data_str_m3_o1_o18_pcu_sym.91
_audit_creation_date              2020-01-03
_audit_creation_method            'Materials Studio'
_symmetry_space_group_name_H-M    'P1'
_symmetry_Int_Tables_number       1
_symmetry_cell_setting            triclinic
loop_
_symmetry_equiv_pos_as_xyz
  x,y,z
_cell_length_a                    29.6420
_cell_length_b                    32.0417
_cell_length_c                    31.3388
_cell_angle_alpha                 91.8673
_cell_angle_beta                  66.6132
_cell_angle_gamma                 89.2274
loop_
_atom_site_label
_atom_site_type_symbol
_atom_site_fract_x
_atom_site_fract_y
_atom_site_fract_z
_atom_site_U_iso_or_equiv
_atom_site_adp_type
_atom_site_occupancy
C1     C     0.16869   0.24632   0.24434   0.00000  Uiso   1.00
C2     C     0.12674   0.31333   0.24520   0.00000  Uiso   1.00
C3     C     0.16364   0.04190   0.26008   0.00000  Uiso   1.00
C4     C     0.17070   0.29090   0.23752   0.00000  Uiso   1.00
C5     C     0.32108   0.13873   0.22218   0.00000  Uiso   1.00
C6     C     0.01283   0.19535   0.27688   0.00000  Uiso   1.00
C7     C     0.03592   0.13876   0.22185   0.00000  Uiso   1.00
C8     C     0.29824   0.19628   0.27625   0.00000  Uiso   1.00
C9     C     0.13570   0.16399   0.33798   0.00000  Uiso   1.00
C10    C     0.19759   0.16976   0.16212   0.00000  Uiso   1.00
C11    C     0.11562   0.16024   0.38916   0.00000  Uiso   1.00
C12    C     0.16496   0.08679   0.25494   0.00000  Uiso   1.00
C13    C     0.21778   0.17454   0.11112   0.00000  Uiso   1.00
C14    C     0.06015   0.19355   0.46135   0.00000  Uiso   1.00
C15    C     0.27433   0.14308   0.03835   0.00000  Uiso   1.00
C16    C     0.06828   0.17626   0.41761   0.00000  Uiso   1.00
C17    C     0.26552   0.15943   0.08257   0.00000  Uiso   1.00
C18    C     0.14790   0.14802   0.41028   0.00000  Uiso   1.00
C19    C     0.18559   0.18717   0.09007   0.00000  Uiso   1.00
C20    C     0.13802   0.16292   0.45653   0.00000  Uiso   1.00
C21    C     0.19624   0.17331   0.04329   0.00000  Uiso   1.00
C22    C     0.09707   0.19087   0.47827   0.00000  Uiso   1.00
C23    C     0.13229   0.21620   0.03074   0.00000  Uiso   1.00
C24    C     0.23762   0.14586   0.02123   0.00000  Uiso   1.00
C25    C     0.16910   0.15481   0.48059   0.00000  Uiso   1.00
C26    C     0.16558   0.18172   0.01893   0.00000  Uiso   1.00
C27    C     0.13958   0.21071   0.11978   0.00000  Uiso   1.00
C28    C     0.19410   0.12454   0.38129   0.00000  Uiso   1.00
C29    C     0.30592   0.16042   0.09715   0.00000  Uiso   1.00
C30    C     0.02760   0.17515   0.40341   0.00000  Uiso   1.00
C31    C     0.26360   0.29230   0.21121   0.00000  Uiso   1.00
C32    C     0.07105   0.04077   0.28893   0.00000  Uiso   1.00
C33    C     0.24595   0.03679   0.26451   0.00000  Uiso   1.00
C34    C     0.20281   0.12055   0.46857   0.00000  Uiso   1.00
C35    C     0.09002   0.29593   0.23045   0.00000  Uiso   1.00
C36    C     0.30902   0.10921   0.19282   0.00000  Uiso   1.00
C37    C     0.02545   0.22441   0.30628   0.00000  Uiso   1.00
C38    C     0.07331   0.10844   0.19066   0.00000  Uiso   1.00
C39    C     0.26270   0.23033   0.30293   0.00000  Uiso   1.00
C40    C     0.09517   0.21790   0.01456   0.00000  Uiso   1.00
C41    C     0.24003   0.11915   0.48457   0.00000  Uiso   1.00
C42    C     0.21318   0.31173   0.23489   0.00000  Uiso   1.00
C43    C     0.12108   0.02103   0.26278   0.00000  Uiso   1.00
C44    C     0.20783   0.01946   0.25177   0.00000  Uiso   1.00
H45    H     0.06693   0.24239   0.02808   0.00000  Uiso   1.00
H46    H     0.06679   0.06857   0.31106   0.00000  Uiso   1.00
H47    H     0.08561   0.08235   0.20461   0.00000  Uiso   1.00
H48    H     0.22419   0.22497   0.32106   0.00000  Uiso   1.00
H49    H     0.26850   0.09484   0.47094   0.00000  Uiso   1.00
H50    H     0.02597   0.21067   0.48130   0.00000  Uiso   1.00
H51    H     0.30883   0.12647   0.01821   0.00000  Uiso   1.00
H52    H     0.13394   0.24208   0.05289   0.00000  Uiso   1.00
H53    H     0.20117   0.09427   0.44698   0.00000  Uiso   1.00
H54    H     0.14169   0.23831   0.13984   0.00000  Uiso   1.00
H55    H     0.22932   0.13541   0.37948   0.00000  Uiso   1.00
H56    H     0.29367   0.30285   0.21986   0.00000  Uiso   1.00
N57    N     0.04759   0.16668   0.25001   0.00000  Uiso   1.00
N58    N     0.28574   0.16666   0.24999   0.00000  Uiso   1.00
N59    N     0.00559   0.16186   0.10799   0.00000  Uiso   1.00
N60    N     0.32771   0.17363   0.39288   0.00000  Uiso   1.00
N61    N     0.27620   0.05021   0.27515   0.00000  Uiso   1.00
N62    N     0.06093   0.28232   0.21827   0.00000  Uiso   1.00
N63    N     0.29971   0.08539   0.16915   0.00000  Uiso   1.00
N64    N     0.03528   0.24794   0.32988   0.00000  Uiso   1.00
O65    O     0.12846   0.22775   0.25000   0.00000  Uiso   1.00
O66    O     0.19282   0.09287   0.35912   0.00000  Uiso   1.00
O67    O     0.27257   0.26568   0.17991   0.00000  Uiso   1.00
O68    O     0.03392   0.02575   0.28779   0.00000  Uiso   1.00
O69    O     0.08859   0.11113   0.14853   0.00000  Uiso   1.00
O70    O     0.27641   0.26587   0.30474   0.00000  Uiso   1.00
O71    O     0.20488   0.10558   0.24999   0.00000  Uiso   1.00
O72    O     0.20490   0.22774   0.25000   0.00000  Uiso   1.00
O73    O     0.12843   0.10559   0.25000   0.00000  Uiso   1.00
O74    O     0.10661   0.16667   0.31612   0.00000  Uiso   1.00
O75    O     0.22672   0.16666   0.18387   0.00000  Uiso   1.00
O76    O     0.18305   0.16666   0.31612   0.00000  Uiso   1.00
O77    O     0.15028   0.16667   0.18388   0.00000  Uiso   1.00
O78    O     0.09930   0.19778   0.12477   0.00000  Uiso   1.00
Zn79   Zn    0.11562   0.16667   0.25000   0.00000  Uiso   1.00
Zn80   Zn    0.21771   0.16666   0.25000   0.00000  Uiso   1.00
C81    C     0.50202   0.24632   0.24434   0.00000  Uiso   1.00
C82    C     0.46007   0.31333   0.24520   0.00000  Uiso   1.00
C83    C     0.49697   0.04190   0.26008   0.00000  Uiso   1.00
C84    C     0.50403   0.29090   0.23752   0.00000  Uiso   1.00
C85    C     0.65441   0.13873   0.22218   0.00000  Uiso   1.00
C86    C     0.34616   0.19535   0.27688   0.00000  Uiso   1.00
C87    C     0.36925   0.13876   0.22185   0.00000  Uiso   1.00
C88    C     0.63157   0.19628   0.27625   0.00000  Uiso   1.00
C89    C     0.46904   0.16399   0.33798   0.00000  Uiso   1.00
C90    C     0.53093   0.16976   0.16212   0.00000  Uiso   1.00
C91    C     0.44895   0.16024   0.38916   0.00000  Uiso   1.00
C92    C     0.49829   0.08679   0.25494   0.00000  Uiso   1.00
C93    C     0.55111   0.17454   0.11112   0.00000  Uiso   1.00
C94    C     0.39349   0.19355   0.46135   0.00000  Uiso   1.00
C95    C     0.60766   0.14308   0.03835   0.00000  Uiso   1.00
C96    C     0.40161   0.17626   0.41761   0.00000  Uiso   1.00
C97    C     0.59885   0.15943   0.08257   0.00000  Uiso   1.00
C98    C     0.48123   0.14802   0.41028   0.00000  Uiso   1.00
C99    C     0.51893   0.18717   0.09007   0.00000  Uiso   1.00
C100   C     0.47136   0.16292   0.45653   0.00000  Uiso   1.00
C101   C     0.52957   0.17331   0.04329   0.00000  Uiso   1.00
C102   C     0.43040   0.19087   0.47827   0.00000  Uiso   1.00
C103   C     0.46563   0.21620   0.03074   0.00000  Uiso   1.00
C104   C     0.57096   0.14586   0.02123   0.00000  Uiso   1.00
C105   C     0.50243   0.15481   0.48059   0.00000  Uiso   1.00
C106   C     0.49891   0.18172   0.01893   0.00000  Uiso   1.00
C107   C     0.47292   0.21071   0.11978   0.00000  Uiso   1.00
C108   C     0.52743   0.12454   0.38129   0.00000  Uiso   1.00
C109   C     0.63925   0.16042   0.09715   0.00000  Uiso   1.00
C110   C     0.36093   0.17515   0.40341   0.00000  Uiso   1.00
C111   C     0.59693   0.29230   0.21121   0.00000  Uiso   1.00
C112   C     0.40438   0.04077   0.28893   0.00000  Uiso   1.00
C113   C     0.57928   0.03679   0.26451   0.00000  Uiso   1.00
C114   C     0.53615   0.12055   0.46857   0.00000  Uiso   1.00
C115   C     0.42336   0.29593   0.23045   0.00000  Uiso   1.00
C116   C     0.64235   0.10921   0.19282   0.00000  Uiso   1.00
C117   C     0.35879   0.22441   0.30628   0.00000  Uiso   1.00
C118   C     0.40664   0.10844   0.19066   0.00000  Uiso   1.00
C119   C     0.59603   0.23033   0.30293   0.00000  Uiso   1.00
C120   C     0.42850   0.21790   0.01456   0.00000  Uiso   1.00
C121   C     0.57337   0.11915   0.48457   0.00000  Uiso   1.00
C122   C     0.54652   0.31173   0.23489   0.00000  Uiso   1.00
C123   C     0.45442   0.02103   0.26278   0.00000  Uiso   1.00
C124   C     0.54117   0.01946   0.25177   0.00000  Uiso   1.00
H125   H     0.40026   0.24239   0.02808   0.00000  Uiso   1.00
H126   H     0.40012   0.06857   0.31106   0.00000  Uiso   1.00
H127   H     0.41895   0.08235   0.20461   0.00000  Uiso   1.00
H128   H     0.55752   0.22497   0.32106   0.00000  Uiso   1.00
H129   H     0.60183   0.09484   0.47094   0.00000  Uiso   1.00
H130   H     0.35930   0.21067   0.48130   0.00000  Uiso   1.00
H131   H     0.64216   0.12647   0.01821   0.00000  Uiso   1.00
H132   H     0.46728   0.24208   0.05289   0.00000  Uiso   1.00
H133   H     0.53450   0.09427   0.44698   0.00000  Uiso   1.00
H134   H     0.47502   0.23831   0.13984   0.00000  Uiso   1.00
H135   H     0.56266   0.13541   0.37948   0.00000  Uiso   1.00
H136   H     0.62700   0.30285   0.21986   0.00000  Uiso   1.00
N137   N     0.38093   0.16668   0.25001   0.00000  Uiso   1.00
N138   N     0.61907   0.16666   0.24999   0.00000  Uiso   1.00
N139   N     0.33892   0.16186   0.10799   0.00000  Uiso   1.00
N140   N     0.66104   0.17363   0.39288   0.00000  Uiso   1.00
N141   N     0.60954   0.05021   0.27515   0.00000  Uiso   1.00
N142   N     0.39426   0.28232   0.21827   0.00000  Uiso   1.00
N143   N     0.63304   0.08539   0.16915   0.00000  Uiso   1.00
N144   N     0.36861   0.24794   0.32988   0.00000  Uiso   1.00
O145   O     0.46179   0.22775   0.25000   0.00000  Uiso   1.00
O146   O     0.52615   0.09287   0.35912   0.00000  Uiso   1.00
O147   O     0.60591   0.26568   0.17991   0.00000  Uiso   1.00
O148   O     0.36725   0.02575   0.28779   0.00000  Uiso   1.00
O149   O     0.42192   0.11113   0.14853   0.00000  Uiso   1.00
O150   O     0.60974   0.26587   0.30474   0.00000  Uiso   1.00
O151   O     0.53821   0.10558   0.24999   0.00000  Uiso   1.00
O152   O     0.53823   0.22774   0.25000   0.00000  Uiso   1.00
O153   O     0.46177   0.10559   0.25000   0.00000  Uiso   1.00
O154   O     0.43994   0.16667   0.31612   0.00000  Uiso   1.00
O155   O     0.56006   0.16666   0.18387   0.00000  Uiso   1.00
O156   O     0.51639   0.16666   0.31612   0.00000  Uiso   1.00
O157   O     0.48361   0.16667   0.18388   0.00000  Uiso   1.00
O158   O     0.43263   0.19778   0.12477   0.00000  Uiso   1.00
Zn159  Zn    0.44896   0.16667   0.25000   0.00000  Uiso   1.00
Zn160  Zn    0.55104   0.16666   0.25000   0.00000  Uiso   1.00
C161   C     0.83535   0.24632   0.24434   0.00000  Uiso   1.00
C162   C     0.79341   0.31333   0.24520   0.00000  Uiso   1.00
C163   C     0.83031   0.04190   0.26008   0.00000  Uiso   1.00
C164   C     0.83736   0.29090   0.23752   0.00000  Uiso   1.00
C165   C     0.98774   0.13873   0.22218   0.00000  Uiso   1.00
C166   C     0.67950   0.19535   0.27688   0.00000  Uiso   1.00
C167   C     0.70259   0.13876   0.22185   0.00000  Uiso   1.00
C168   C     0.96491   0.19628   0.27625   0.00000  Uiso   1.00
C169   C     0.80237   0.16399   0.33798   0.00000  Uiso   1.00
C170   C     0.86426   0.16976   0.16212   0.00000  Uiso   1.00
C171   C     0.78228   0.16024   0.38916   0.00000  Uiso   1.00
C172   C     0.83162   0.08679   0.25494   0.00000  Uiso   1.00
C173   C     0.88444   0.17454   0.11112   0.00000  Uiso   1.00
C174   C     0.72682   0.19355   0.46135   0.00000  Uiso   1.00
C175   C     0.94100   0.14308   0.03835   0.00000  Uiso   1.00
C176   C     0.73494   0.17626   0.41761   0.00000  Uiso   1.00
C177   C     0.93218   0.15943   0.08257   0.00000  Uiso   1.00
C178   C     0.81457   0.14802   0.41028   0.00000  Uiso   1.00
C179   C     0.85226   0.18717   0.09007   0.00000  Uiso   1.00
C180   C     0.80469   0.16292   0.45653   0.00000  Uiso   1.00
C181   C     0.86290   0.17331   0.04329   0.00000  Uiso   1.00
C182   C     0.76373   0.19087   0.47827   0.00000  Uiso   1.00
C183   C     0.79896   0.21620   0.03074   0.00000  Uiso   1.00
C184   C     0.90429   0.14586   0.02123   0.00000  Uiso   1.00
C185   C     0.83577   0.15481   0.48059   0.00000  Uiso   1.00
C186   C     0.83225   0.18172   0.01893   0.00000  Uiso   1.00
C187   C     0.80625   0.21071   0.11978   0.00000  Uiso   1.00
C188   C     0.86076   0.12454   0.38129   0.00000  Uiso   1.00
C189   C     0.97259   0.16042   0.09715   0.00000  Uiso   1.00
C190   C     0.69426   0.17515   0.40341   0.00000  Uiso   1.00
C191   C     0.93026   0.29230   0.21121   0.00000  Uiso   1.00
C192   C     0.73771   0.04077   0.28893   0.00000  Uiso   1.00
C193   C     0.91261   0.03679   0.26451   0.00000  Uiso   1.00
C194   C     0.86948   0.12055   0.46857   0.00000  Uiso   1.00
C195   C     0.75669   0.29593   0.23045   0.00000  Uiso   1.00
C196   C     0.97568   0.10921   0.19282   0.00000  Uiso   1.00
C197   C     0.69212   0.22441   0.30628   0.00000  Uiso   1.00
C198   C     0.73998   0.10844   0.19066   0.00000  Uiso   1.00
C199   C     0.92937   0.23033   0.30293   0.00000  Uiso   1.00
C200   C     0.76184   0.21790   0.01456   0.00000  Uiso   1.00
C201   C     0.90670   0.11915   0.48457   0.00000  Uiso   1.00
C202   C     0.87985   0.31173   0.23489   0.00000  Uiso   1.00
C203   C     0.78775   0.02103   0.26278   0.00000  Uiso   1.00
C204   C     0.87450   0.01946   0.25177   0.00000  Uiso   1.00
H205   H     0.73359   0.24239   0.02808   0.00000  Uiso   1.00
H206   H     0.73346   0.06857   0.31106   0.00000  Uiso   1.00
H207   H     0.75228   0.08235   0.20461   0.00000  Uiso   1.00
H208   H     0.89085   0.22497   0.32106   0.00000  Uiso   1.00
H209   H     0.93517   0.09484   0.47094   0.00000  Uiso   1.00
H210   H     0.69264   0.21067   0.48130   0.00000  Uiso   1.00
H211   H     0.97549   0.12647   0.01821   0.00000  Uiso   1.00
H212   H     0.80061   0.24208   0.05289   0.00000  Uiso   1.00
H213   H     0.86783   0.09427   0.44698   0.00000  Uiso   1.00
H214   H     0.80835   0.23831   0.13984   0.00000  Uiso   1.00
H215   H     0.89599   0.13541   0.37948   0.00000  Uiso   1.00
H216   H     0.96033   0.30285   0.21986   0.00000  Uiso   1.00
N217   N     0.71426   0.16668   0.25001   0.00000  Uiso   1.00
N218   N     0.95241   0.16666   0.24999   0.00000  Uiso   1.00
N219   N     0.67226   0.16186   0.10799   0.00000  Uiso   1.00
N220   N     0.99438   0.17363   0.39288   0.00000  Uiso   1.00
N221   N     0.94287   0.05021   0.27515   0.00000  Uiso   1.00
N222   N     0.72760   0.28232   0.21827   0.00000  Uiso   1.00
N223   N     0.96637   0.08539   0.16915   0.00000  Uiso   1.00
N224   N     0.70194   0.24794   0.32988   0.00000  Uiso   1.00
O225   O     0.79512   0.22775   0.25000   0.00000  Uiso   1.00
O226   O     0.85948   0.09287   0.35912   0.00000  Uiso   1.00
O227   O     0.93924   0.26568   0.17991   0.00000  Uiso   1.00
O228   O     0.70059   0.02575   0.28779   0.00000  Uiso   1.00
O229   O     0.75525   0.11113   0.14853   0.00000  Uiso   1.00
O230   O     0.94307   0.26587   0.30474   0.00000  Uiso   1.00
O231   O     0.87154   0.10558   0.24999   0.00000  Uiso   1.00
O232   O     0.87157   0.22774   0.25000   0.00000  Uiso   1.00
O233   O     0.79510   0.10559   0.25000   0.00000  Uiso   1.00
O234   O     0.77328   0.16667   0.31612   0.00000  Uiso   1.00
O235   O     0.89339   0.16666   0.18387   0.00000  Uiso   1.00
O236   O     0.84972   0.16666   0.31612   0.00000  Uiso   1.00
O237   O     0.81695   0.16667   0.18388   0.00000  Uiso   1.00
O238   O     0.76597   0.19778   0.12477   0.00000  Uiso   1.00
Zn239  Zn    0.78229   0.16667   0.25000   0.00000  Uiso   1.00
Zn240  Zn    0.88438   0.16666   0.25000   0.00000  Uiso   1.00
C241   C     0.16869   0.57966   0.24434   0.00000  Uiso   1.00
C242   C     0.12674   0.64666   0.24520   0.00000  Uiso   1.00
C243   C     0.16364   0.37523   0.26008   0.00000  Uiso   1.00
C244   C     0.17070   0.62424   0.23752   0.00000  Uiso   1.00
C245   C     0.32108   0.47206   0.22218   0.00000  Uiso   1.00
C246   C     0.01283   0.52868   0.27688   0.00000  Uiso   1.00
C247   C     0.03592   0.47209   0.22185   0.00000  Uiso   1.00
C248   C     0.29824   0.52962   0.27625   0.00000  Uiso   1.00
C249   C     0.13570   0.49732   0.33798   0.00000  Uiso   1.00
C250   C     0.19759   0.50309   0.16212   0.00000  Uiso   1.00
C251   C     0.11562   0.49358   0.38916   0.00000  Uiso   1.00
C252   C     0.16496   0.42012   0.25494   0.00000  Uiso   1.00
C253   C     0.21778   0.50787   0.11112   0.00000  Uiso   1.00
C254   C     0.06015   0.52689   0.46135   0.00000  Uiso   1.00
C255   C     0.27433   0.47641   0.03835   0.00000  Uiso   1.00
C256   C     0.06828   0.50959   0.41761   0.00000  Uiso   1.00
C257   C     0.26552   0.49276   0.08257   0.00000  Uiso   1.00
C258   C     0.14790   0.48135   0.41028   0.00000  Uiso   1.00
C259   C     0.18559   0.52051   0.09007   0.00000  Uiso   1.00
C260   C     0.13802   0.49626   0.45653   0.00000  Uiso   1.00
C261   C     0.19624   0.50664   0.04329   0.00000  Uiso   1.00
C262   C     0.09707   0.52420   0.47827   0.00000  Uiso   1.00
C263   C     0.13229   0.54953   0.03074   0.00000  Uiso   1.00
C264   C     0.23762   0.47919   0.02123   0.00000  Uiso   1.00
C265   C     0.16910   0.48814   0.48059   0.00000  Uiso   1.00
C266   C     0.16558   0.51505   0.01893   0.00000  Uiso   1.00
C267   C     0.13958   0.54404   0.11978   0.00000  Uiso   1.00
C268   C     0.19410   0.45787   0.38129   0.00000  Uiso   1.00
C269   C     0.30592   0.49376   0.09715   0.00000  Uiso   1.00
C270   C     0.02760   0.50848   0.40341   0.00000  Uiso   1.00
C271   C     0.26360   0.62564   0.21121   0.00000  Uiso   1.00
C272   C     0.07105   0.37410   0.28893   0.00000  Uiso   1.00
C273   C     0.24595   0.37012   0.26451   0.00000  Uiso   1.00
C274   C     0.20281   0.45389   0.46857   0.00000  Uiso   1.00
C275   C     0.09002   0.62926   0.23045   0.00000  Uiso   1.00
C276   C     0.30902   0.44254   0.19282   0.00000  Uiso   1.00
C277   C     0.02545   0.55774   0.30628   0.00000  Uiso   1.00
C278   C     0.07331   0.44177   0.19066   0.00000  Uiso   1.00
C279   C     0.26270   0.56366   0.30293   0.00000  Uiso   1.00
C280   C     0.09517   0.55123   0.01456   0.00000  Uiso   1.00
C281   C     0.24003   0.45249   0.48457   0.00000  Uiso   1.00
C282   C     0.21318   0.64506   0.23489   0.00000  Uiso   1.00
C283   C     0.12108   0.35436   0.26278   0.00000  Uiso   1.00
C284   C     0.20783   0.35280   0.25177   0.00000  Uiso   1.00
H285   H     0.06693   0.57573   0.02808   0.00000  Uiso   1.00
H286   H     0.06679   0.40190   0.31106   0.00000  Uiso   1.00
H287   H     0.08561   0.41568   0.20461   0.00000  Uiso   1.00
H288   H     0.22419   0.55830   0.32106   0.00000  Uiso   1.00
H289   H     0.26850   0.42817   0.47094   0.00000  Uiso   1.00
H290   H     0.02597   0.54401   0.48130   0.00000  Uiso   1.00
H291   H     0.30883   0.45980   0.01821   0.00000  Uiso   1.00
H292   H     0.13394   0.57541   0.05289   0.00000  Uiso   1.00
H293   H     0.20117   0.42760   0.44698   0.00000  Uiso   1.00
H294   H     0.14169   0.57165   0.13984   0.00000  Uiso   1.00
H295   H     0.22932   0.46874   0.37948   0.00000  Uiso   1.00
H296   H     0.29367   0.63619   0.21986   0.00000  Uiso   1.00
N297   N     0.04759   0.50001   0.25001   0.00000  Uiso   1.00
N298   N     0.28574   0.49999   0.24999   0.00000  Uiso   1.00
N299   N     0.00559   0.49520   0.10799   0.00000  Uiso   1.00
N300   N     0.32771   0.50696   0.39288   0.00000  Uiso   1.00
N301   N     0.27620   0.38354   0.27515   0.00000  Uiso   1.00
N302   N     0.06093   0.61565   0.21827   0.00000  Uiso   1.00
N303   N     0.29971   0.41872   0.16915   0.00000  Uiso   1.00
N304   N     0.03528   0.58127   0.32988   0.00000  Uiso   1.00
O305   O     0.12846   0.56108   0.25000   0.00000  Uiso   1.00
O306   O     0.19282   0.42620   0.35912   0.00000  Uiso   1.00
O307   O     0.27257   0.59902   0.17991   0.00000  Uiso   1.00
O308   O     0.03392   0.35908   0.28779   0.00000  Uiso   1.00
O309   O     0.08859   0.44446   0.14853   0.00000  Uiso   1.00
O310   O     0.27641   0.59920   0.30474   0.00000  Uiso   1.00
O311   O     0.20488   0.43892   0.24999   0.00000  Uiso   1.00
O312   O     0.20490   0.56107   0.25000   0.00000  Uiso   1.00
O313   O     0.12843   0.43893   0.25000   0.00000  Uiso   1.00
O314   O     0.10661   0.50001   0.31612   0.00000  Uiso   1.00
O315   O     0.22672   0.49999   0.18387   0.00000  Uiso   1.00
O316   O     0.18305   0.50000   0.31612   0.00000  Uiso   1.00
O317   O     0.15028   0.50000   0.18388   0.00000  Uiso   1.00
O318   O     0.09930   0.53111   0.12477   0.00000  Uiso   1.00
Zn319  Zn    0.11562   0.50001   0.25000   0.00000  Uiso   1.00
Zn320  Zn    0.21771   0.49999   0.25000   0.00000  Uiso   1.00
C321   C     0.50202   0.57966   0.24434   0.00000  Uiso   1.00
C322   C     0.46007   0.64666   0.24520   0.00000  Uiso   1.00
C323   C     0.49697   0.37523   0.26008   0.00000  Uiso   1.00
C324   C     0.50403   0.62424   0.23752   0.00000  Uiso   1.00
C325   C     0.65441   0.47206   0.22218   0.00000  Uiso   1.00
C326   C     0.34616   0.52868   0.27688   0.00000  Uiso   1.00
C327   C     0.36925   0.47209   0.22185   0.00000  Uiso   1.00
C328   C     0.63157   0.52962   0.27625   0.00000  Uiso   1.00
C329   C     0.46904   0.49732   0.33798   0.00000  Uiso   1.00
C330   C     0.53093   0.50309   0.16212   0.00000  Uiso   1.00
C331   C     0.44895   0.49358   0.38916   0.00000  Uiso   1.00
C332   C     0.49829   0.42012   0.25494   0.00000  Uiso   1.00
C333   C     0.55111   0.50787   0.11112   0.00000  Uiso   1.00
C334   C     0.39349   0.52689   0.46135   0.00000  Uiso   1.00
C335   C     0.60766   0.47641   0.03835   0.00000  Uiso   1.00
C336   C     0.40161   0.50959   0.41761   0.00000  Uiso   1.00
C337   C     0.59885   0.49276   0.08257   0.00000  Uiso   1.00
C338   C     0.48123   0.48135   0.41028   0.00000  Uiso   1.00
C339   C     0.51893   0.52051   0.09007   0.00000  Uiso   1.00
C340   C     0.47136   0.49626   0.45653   0.00000  Uiso   1.00
C341   C     0.52957   0.50664   0.04329   0.00000  Uiso   1.00
C342   C     0.43040   0.52420   0.47827   0.00000  Uiso   1.00
C343   C     0.46563   0.54953   0.03074   0.00000  Uiso   1.00
C344   C     0.57096   0.47919   0.02123   0.00000  Uiso   1.00
C345   C     0.50243   0.48814   0.48059   0.00000  Uiso   1.00
C346   C     0.49891   0.51505   0.01893   0.00000  Uiso   1.00
C347   C     0.47292   0.54404   0.11978   0.00000  Uiso   1.00
C348   C     0.52743   0.45787   0.38129   0.00000  Uiso   1.00
C349   C     0.63925   0.49376   0.09715   0.00000  Uiso   1.00
C350   C     0.36093   0.50848   0.40341   0.00000  Uiso   1.00
C351   C     0.59693   0.62564   0.21121   0.00000  Uiso   1.00
C352   C     0.40438   0.37410   0.28893   0.00000  Uiso   1.00
C353   C     0.57928   0.37012   0.26451   0.00000  Uiso   1.00
C354   C     0.53615   0.45389   0.46857   0.00000  Uiso   1.00
C355   C     0.42336   0.62926   0.23045   0.00000  Uiso   1.00
C356   C     0.64235   0.44254   0.19282   0.00000  Uiso   1.00
C357   C     0.35879   0.55774   0.30628   0.00000  Uiso   1.00
C358   C     0.40664   0.44177   0.19066   0.00000  Uiso   1.00
C359   C     0.59603   0.56366   0.30293   0.00000  Uiso   1.00
C360   C     0.42850   0.55123   0.01456   0.00000  Uiso   1.00
C361   C     0.57337   0.45249   0.48457   0.00000  Uiso   1.00
C362   C     0.54652   0.64506   0.23489   0.00000  Uiso   1.00
C363   C     0.45442   0.35436   0.26278   0.00000  Uiso   1.00
C364   C     0.54117   0.35280   0.25177   0.00000  Uiso   1.00
H365   H     0.40026   0.57573   0.02808   0.00000  Uiso   1.00
H366   H     0.40012   0.40190   0.31106   0.00000  Uiso   1.00
H367   H     0.41895   0.41568   0.20461   0.00000  Uiso   1.00
H368   H     0.55752   0.55830   0.32106   0.00000  Uiso   1.00
H369   H     0.60183   0.42817   0.47094   0.00000  Uiso   1.00
H370   H     0.35930   0.54401   0.48130   0.00000  Uiso   1.00
H371   H     0.64216   0.45980   0.01821   0.00000  Uiso   1.00
H372   H     0.46728   0.57541   0.05289   0.00000  Uiso   1.00
H373   H     0.53450   0.42760   0.44698   0.00000  Uiso   1.00
H374   H     0.47502   0.57165   0.13984   0.00000  Uiso   1.00
H375   H     0.56266   0.46874   0.37948   0.00000  Uiso   1.00
H376   H     0.62700   0.63619   0.21986   0.00000  Uiso   1.00
N377   N     0.38093   0.50001   0.25001   0.00000  Uiso   1.00
N378   N     0.61907   0.49999   0.24999   0.00000  Uiso   1.00
N379   N     0.33892   0.49520   0.10799   0.00000  Uiso   1.00
N380   N     0.66104   0.50696   0.39288   0.00000  Uiso   1.00
N381   N     0.60954   0.38354   0.27515   0.00000  Uiso   1.00
N382   N     0.39426   0.61565   0.21827   0.00000  Uiso   1.00
N383   N     0.63304   0.41872   0.16915   0.00000  Uiso   1.00
N384   N     0.36861   0.58127   0.32988   0.00000  Uiso   1.00
O385   O     0.46179   0.56108   0.25000   0.00000  Uiso   1.00
O386   O     0.52615   0.42620   0.35912   0.00000  Uiso   1.00
O387   O     0.60591   0.59902   0.17991   0.00000  Uiso   1.00
O388   O     0.36725   0.35908   0.28779   0.00000  Uiso   1.00
O389   O     0.42192   0.44446   0.14853   0.00000  Uiso   1.00
O390   O     0.60974   0.59920   0.30474   0.00000  Uiso   1.00
O391   O     0.53821   0.43892   0.24999   0.00000  Uiso   1.00
O392   O     0.53823   0.56107   0.25000   0.00000  Uiso   1.00
O393   O     0.46177   0.43893   0.25000   0.00000  Uiso   1.00
O394   O     0.43994   0.50001   0.31612   0.00000  Uiso   1.00
O395   O     0.56006   0.49999   0.18387   0.00000  Uiso   1.00
O396   O     0.51639   0.50000   0.31612   0.00000  Uiso   1.00
O397   O     0.48361   0.50000   0.18388   0.00000  Uiso   1.00
O398   O     0.43263   0.53111   0.12477   0.00000  Uiso   1.00
Zn399  Zn    0.44896   0.50001   0.25000   0.00000  Uiso   1.00
Zn400  Zn    0.55104   0.49999   0.25000   0.00000  Uiso   1.00
C401   C     0.83535   0.57966   0.24434   0.00000  Uiso   1.00
C402   C     0.79341   0.64666   0.24520   0.00000  Uiso   1.00
C403   C     0.83031   0.37523   0.26008   0.00000  Uiso   1.00
C404   C     0.83736   0.62424   0.23752   0.00000  Uiso   1.00
C405   C     0.98774   0.47206   0.22218   0.00000  Uiso   1.00
C406   C     0.67950   0.52868   0.27688   0.00000  Uiso   1.00
C407   C     0.70259   0.47209   0.22185   0.00000  Uiso   1.00
C408   C     0.96491   0.52962   0.27625   0.00000  Uiso   1.00
C409   C     0.80237   0.49732   0.33798   0.00000  Uiso   1.00
C410   C     0.86426   0.50309   0.16212   0.00000  Uiso   1.00
C411   C     0.78228   0.49358   0.38916   0.00000  Uiso   1.00
C412   C     0.83162   0.42012   0.25494   0.00000  Uiso   1.00
C413   C     0.88444   0.50787   0.11112   0.00000  Uiso   1.00
C414   C     0.72682   0.52689   0.46135   0.00000  Uiso   1.00
C415   C     0.94100   0.47641   0.03835   0.00000  Uiso   1.00
C416   C     0.73494   0.50959   0.41761   0.00000  Uiso   1.00
C417   C     0.93218   0.49276   0.08257   0.00000  Uiso   1.00
C418   C     0.81457   0.48135   0.41028   0.00000  Uiso   1.00
C419   C     0.85226   0.52051   0.09007   0.00000  Uiso   1.00
C420   C     0.80469   0.49626   0.45653   0.00000  Uiso   1.00
C421   C     0.86290   0.50664   0.04329   0.00000  Uiso   1.00
C422   C     0.76373   0.52420   0.47827   0.00000  Uiso   1.00
C423   C     0.79896   0.54953   0.03074   0.00000  Uiso   1.00
C424   C     0.90429   0.47919   0.02123   0.00000  Uiso   1.00
C425   C     0.83577   0.48814   0.48059   0.00000  Uiso   1.00
C426   C     0.83225   0.51505   0.01893   0.00000  Uiso   1.00
C427   C     0.80625   0.54404   0.11978   0.00000  Uiso   1.00
C428   C     0.86076   0.45787   0.38129   0.00000  Uiso   1.00
C429   C     0.97259   0.49376   0.09715   0.00000  Uiso   1.00
C430   C     0.69426   0.50848   0.40341   0.00000  Uiso   1.00
C431   C     0.93026   0.62564   0.21121   0.00000  Uiso   1.00
C432   C     0.73771   0.37410   0.28893   0.00000  Uiso   1.00
C433   C     0.91261   0.37012   0.26451   0.00000  Uiso   1.00
C434   C     0.86948   0.45389   0.46857   0.00000  Uiso   1.00
C435   C     0.75669   0.62926   0.23045   0.00000  Uiso   1.00
C436   C     0.97568   0.44254   0.19282   0.00000  Uiso   1.00
C437   C     0.69212   0.55774   0.30628   0.00000  Uiso   1.00
C438   C     0.73998   0.44177   0.19066   0.00000  Uiso   1.00
C439   C     0.92937   0.56366   0.30293   0.00000  Uiso   1.00
C440   C     0.76184   0.55123   0.01456   0.00000  Uiso   1.00
C441   C     0.90670   0.45249   0.48457   0.00000  Uiso   1.00
C442   C     0.87985   0.64506   0.23489   0.00000  Uiso   1.00
C443   C     0.78775   0.35436   0.26278   0.00000  Uiso   1.00
C444   C     0.87450   0.35280   0.25177   0.00000  Uiso   1.00
H445   H     0.73359   0.57573   0.02808   0.00000  Uiso   1.00
H446   H     0.73346   0.40190   0.31106   0.00000  Uiso   1.00
H447   H     0.75228   0.41568   0.20461   0.00000  Uiso   1.00
H448   H     0.89085   0.55830   0.32106   0.00000  Uiso   1.00
H449   H     0.93517   0.42817   0.47094   0.00000  Uiso   1.00
H450   H     0.69264   0.54401   0.48130   0.00000  Uiso   1.00
H451   H     0.97549   0.45980   0.01821   0.00000  Uiso   1.00
H452   H     0.80061   0.57541   0.05289   0.00000  Uiso   1.00
H453   H     0.86783   0.42760   0.44698   0.00000  Uiso   1.00
H454   H     0.80835   0.57165   0.13984   0.00000  Uiso   1.00
H455   H     0.89599   0.46874   0.37948   0.00000  Uiso   1.00
H456   H     0.96033   0.63619   0.21986   0.00000  Uiso   1.00
N457   N     0.71426   0.50001   0.25001   0.00000  Uiso   1.00
N458   N     0.95241   0.49999   0.24999   0.00000  Uiso   1.00
N459   N     0.67226   0.49520   0.10799   0.00000  Uiso   1.00
N460   N     0.99438   0.50696   0.39288   0.00000  Uiso   1.00
N461   N     0.94287   0.38354   0.27515   0.00000  Uiso   1.00
N462   N     0.72760   0.61565   0.21827   0.00000  Uiso   1.00
N463   N     0.96637   0.41872   0.16915   0.00000  Uiso   1.00
N464   N     0.70194   0.58127   0.32988   0.00000  Uiso   1.00
O465   O     0.79512   0.56108   0.25000   0.00000  Uiso   1.00
O466   O     0.85948   0.42620   0.35912   0.00000  Uiso   1.00
O467   O     0.93924   0.59902   0.17991   0.00000  Uiso   1.00
O468   O     0.70059   0.35908   0.28779   0.00000  Uiso   1.00
O469   O     0.75525   0.44446   0.14853   0.00000  Uiso   1.00
O470   O     0.94307   0.59920   0.30474   0.00000  Uiso   1.00
O471   O     0.87154   0.43892   0.24999   0.00000  Uiso   1.00
O472   O     0.87157   0.56107   0.25000   0.00000  Uiso   1.00
O473   O     0.79510   0.43893   0.25000   0.00000  Uiso   1.00
O474   O     0.77328   0.50001   0.31612   0.00000  Uiso   1.00
O475   O     0.89339   0.49999   0.18387   0.00000  Uiso   1.00
O476   O     0.84972   0.50000   0.31612   0.00000  Uiso   1.00
O477   O     0.81695   0.50000   0.18388   0.00000  Uiso   1.00
O478   O     0.76597   0.53111   0.12477   0.00000  Uiso   1.00
Zn479  Zn    0.78229   0.50001   0.25000   0.00000  Uiso   1.00
Zn480  Zn    0.88438   0.49999   0.25000   0.00000  Uiso   1.00
C481   C     0.16869   0.91299   0.24434   0.00000  Uiso   1.00
C482   C     0.12674   0.98000   0.24520   0.00000  Uiso   1.00
C483   C     0.16364   0.70857   0.26008   0.00000  Uiso   1.00
C484   C     0.17070   0.95757   0.23752   0.00000  Uiso   1.00
C485   C     0.32108   0.80539   0.22218   0.00000  Uiso   1.00
C486   C     0.01283   0.86202   0.27688   0.00000  Uiso   1.00
C487   C     0.03592   0.80543   0.22185   0.00000  Uiso   1.00
C488   C     0.29824   0.86295   0.27625   0.00000  Uiso   1.00
C489   C     0.13570   0.83066   0.33798   0.00000  Uiso   1.00
C490   C     0.19759   0.83642   0.16212   0.00000  Uiso   1.00
C491   C     0.11562   0.82691   0.38916   0.00000  Uiso   1.00
C492   C     0.16496   0.75346   0.25494   0.00000  Uiso   1.00
C493   C     0.21778   0.84120   0.11112   0.00000  Uiso   1.00
C494   C     0.06015   0.86022   0.46135   0.00000  Uiso   1.00
C495   C     0.27433   0.80975   0.03835   0.00000  Uiso   1.00
C496   C     0.06828   0.84292   0.41761   0.00000  Uiso   1.00
C497   C     0.26552   0.82610   0.08257   0.00000  Uiso   1.00
C498   C     0.14790   0.81469   0.41028   0.00000  Uiso   1.00
C499   C     0.18559   0.85384   0.09007   0.00000  Uiso   1.00
C500   C     0.13802   0.82959   0.45653   0.00000  Uiso   1.00
C501   C     0.19624   0.83997   0.04329   0.00000  Uiso   1.00
C502   C     0.09707   0.85753   0.47827   0.00000  Uiso   1.00
C503   C     0.13229   0.88287   0.03074   0.00000  Uiso   1.00
C504   C     0.23762   0.81252   0.02123   0.00000  Uiso   1.00
C505   C     0.16910   0.82148   0.48059   0.00000  Uiso   1.00
C506   C     0.16558   0.84838   0.01893   0.00000  Uiso   1.00
C507   C     0.13958   0.87738   0.11978   0.00000  Uiso   1.00
C508   C     0.19410   0.79120   0.38129   0.00000  Uiso   1.00
C509   C     0.30592   0.82709   0.09715   0.00000  Uiso   1.00
C510   C     0.02760   0.84182   0.40341   0.00000  Uiso   1.00
C511   C     0.26360   0.95897   0.21121   0.00000  Uiso   1.00
C512   C     0.07105   0.70744   0.28893   0.00000  Uiso   1.00
C513   C     0.24595   0.70346   0.26451   0.00000  Uiso   1.00
C514   C     0.20281   0.78722   0.46857   0.00000  Uiso   1.00
C515   C     0.09002   0.96260   0.23045   0.00000  Uiso   1.00
C516   C     0.30902   0.77588   0.19282   0.00000  Uiso   1.00
C517   C     0.02545   0.89108   0.30628   0.00000  Uiso   1.00
C518   C     0.07331   0.77510   0.19066   0.00000  Uiso   1.00
C519   C     0.26270   0.89700   0.30293   0.00000  Uiso   1.00
C520   C     0.09517   0.88457   0.01456   0.00000  Uiso   1.00
C521   C     0.24003   0.78582   0.48457   0.00000  Uiso   1.00
C522   C     0.21318   0.97839   0.23489   0.00000  Uiso   1.00
C523   C     0.12108   0.68770   0.26278   0.00000  Uiso   1.00
C524   C     0.20783   0.68613   0.25177   0.00000  Uiso   1.00
H525   H     0.06693   0.90906   0.02808   0.00000  Uiso   1.00
H526   H     0.06679   0.73523   0.31106   0.00000  Uiso   1.00
H527   H     0.08561   0.74901   0.20461   0.00000  Uiso   1.00
H528   H     0.22419   0.89163   0.32106   0.00000  Uiso   1.00
H529   H     0.26850   0.76150   0.47094   0.00000  Uiso   1.00
H530   H     0.02597   0.87734   0.48130   0.00000  Uiso   1.00
H531   H     0.30883   0.79313   0.01821   0.00000  Uiso   1.00
H532   H     0.13394   0.90874   0.05289   0.00000  Uiso   1.00
H533   H     0.20117   0.76093   0.44698   0.00000  Uiso   1.00
H534   H     0.14169   0.90498   0.13984   0.00000  Uiso   1.00
H535   H     0.22932   0.80207   0.37948   0.00000  Uiso   1.00
H536   H     0.29367   0.96952   0.21986   0.00000  Uiso   1.00
N537   N     0.04759   0.83334   0.25001   0.00000  Uiso   1.00
N538   N     0.28574   0.83332   0.24999   0.00000  Uiso   1.00
N539   N     0.00559   0.82853   0.10799   0.00000  Uiso   1.00
N540   N     0.32771   0.84029   0.39288   0.00000  Uiso   1.00
N541   N     0.27620   0.71687   0.27515   0.00000  Uiso   1.00
N542   N     0.06093   0.94898   0.21827   0.00000  Uiso   1.00
N543   N     0.29971   0.75206   0.16915   0.00000  Uiso   1.00
N544   N     0.03528   0.91460   0.32988   0.00000  Uiso   1.00
O545   O     0.12846   0.89442   0.25000   0.00000  Uiso   1.00
O546   O     0.19282   0.75953   0.35912   0.00000  Uiso   1.00
O547   O     0.27257   0.93235   0.17991   0.00000  Uiso   1.00
O548   O     0.03392   0.69241   0.28779   0.00000  Uiso   1.00
O549   O     0.08859   0.77779   0.14853   0.00000  Uiso   1.00
O550   O     0.27641   0.93253   0.30474   0.00000  Uiso   1.00
O551   O     0.20488   0.77225   0.24999   0.00000  Uiso   1.00
O552   O     0.20490   0.89441   0.25000   0.00000  Uiso   1.00
O553   O     0.12843   0.77226   0.25000   0.00000  Uiso   1.00
O554   O     0.10661   0.83334   0.31612   0.00000  Uiso   1.00
O555   O     0.22672   0.83333   0.18387   0.00000  Uiso   1.00
O556   O     0.18305   0.83333   0.31612   0.00000  Uiso   1.00
O557   O     0.15028   0.83334   0.18388   0.00000  Uiso   1.00
O558   O     0.09930   0.86444   0.12477   0.00000  Uiso   1.00
Zn559  Zn    0.11562   0.83334   0.25000   0.00000  Uiso   1.00
Zn560  Zn    0.21771   0.83333   0.25000   0.00000  Uiso   1.00
C561   C     0.50202   0.91299   0.24434   0.00000  Uiso   1.00
C562   C     0.46007   0.98000   0.24520   0.00000  Uiso   1.00
C563   C     0.49697   0.70857   0.26008   0.00000  Uiso   1.00
C564   C     0.50403   0.95757   0.23752   0.00000  Uiso   1.00
C565   C     0.65441   0.80539   0.22218   0.00000  Uiso   1.00
C566   C     0.34616   0.86202   0.27688   0.00000  Uiso   1.00
C567   C     0.36925   0.80543   0.22185   0.00000  Uiso   1.00
C568   C     0.63157   0.86295   0.27625   0.00000  Uiso   1.00
C569   C     0.46904   0.83066   0.33798   0.00000  Uiso   1.00
C570   C     0.53093   0.83642   0.16212   0.00000  Uiso   1.00
C571   C     0.44895   0.82691   0.38916   0.00000  Uiso   1.00
C572   C     0.49829   0.75346   0.25494   0.00000  Uiso   1.00
C573   C     0.55111   0.84120   0.11112   0.00000  Uiso   1.00
C574   C     0.39349   0.86022   0.46135   0.00000  Uiso   1.00
C575   C     0.60766   0.80975   0.03835   0.00000  Uiso   1.00
C576   C     0.40161   0.84292   0.41761   0.00000  Uiso   1.00
C577   C     0.59885   0.82610   0.08257   0.00000  Uiso   1.00
C578   C     0.48123   0.81469   0.41028   0.00000  Uiso   1.00
C579   C     0.51893   0.85384   0.09007   0.00000  Uiso   1.00
C580   C     0.47136   0.82959   0.45653   0.00000  Uiso   1.00
C581   C     0.52957   0.83997   0.04329   0.00000  Uiso   1.00
C582   C     0.43040   0.85753   0.47827   0.00000  Uiso   1.00
C583   C     0.46563   0.88287   0.03074   0.00000  Uiso   1.00
C584   C     0.57096   0.81252   0.02123   0.00000  Uiso   1.00
C585   C     0.50243   0.82148   0.48059   0.00000  Uiso   1.00
C586   C     0.49891   0.84838   0.01893   0.00000  Uiso   1.00
C587   C     0.47292   0.87738   0.11978   0.00000  Uiso   1.00
C588   C     0.52743   0.79120   0.38129   0.00000  Uiso   1.00
C589   C     0.63925   0.82709   0.09715   0.00000  Uiso   1.00
C590   C     0.36093   0.84182   0.40341   0.00000  Uiso   1.00
C591   C     0.59693   0.95897   0.21121   0.00000  Uiso   1.00
C592   C     0.40438   0.70744   0.28893   0.00000  Uiso   1.00
C593   C     0.57928   0.70346   0.26451   0.00000  Uiso   1.00
C594   C     0.53615   0.78722   0.46857   0.00000  Uiso   1.00
C595   C     0.42336   0.96260   0.23045   0.00000  Uiso   1.00
C596   C     0.64235   0.77588   0.19282   0.00000  Uiso   1.00
C597   C     0.35879   0.89108   0.30628   0.00000  Uiso   1.00
C598   C     0.40664   0.77510   0.19066   0.00000  Uiso   1.00
C599   C     0.59603   0.89700   0.30293   0.00000  Uiso   1.00
C600   C     0.42850   0.88457   0.01456   0.00000  Uiso   1.00
C601   C     0.57337   0.78582   0.48457   0.00000  Uiso   1.00
C602   C     0.54652   0.97839   0.23489   0.00000  Uiso   1.00
C603   C     0.45442   0.68770   0.26278   0.00000  Uiso   1.00
C604   C     0.54117   0.68613   0.25177   0.00000  Uiso   1.00
H605   H     0.40026   0.90906   0.02808   0.00000  Uiso   1.00
H606   H     0.40012   0.73523   0.31106   0.00000  Uiso   1.00
H607   H     0.41895   0.74901   0.20461   0.00000  Uiso   1.00
H608   H     0.55752   0.89163   0.32106   0.00000  Uiso   1.00
H609   H     0.60183   0.76150   0.47094   0.00000  Uiso   1.00
H610   H     0.35930   0.87734   0.48130   0.00000  Uiso   1.00
H611   H     0.64216   0.79313   0.01821   0.00000  Uiso   1.00
H612   H     0.46728   0.90874   0.05289   0.00000  Uiso   1.00
H613   H     0.53450   0.76093   0.44698   0.00000  Uiso   1.00
H614   H     0.47502   0.90498   0.13984   0.00000  Uiso   1.00
H615   H     0.56266   0.80207   0.37948   0.00000  Uiso   1.00
H616   H     0.62700   0.96952   0.21986   0.00000  Uiso   1.00
N617   N     0.38093   0.83334   0.25001   0.00000  Uiso   1.00
N618   N     0.61907   0.83332   0.24999   0.00000  Uiso   1.00
N619   N     0.33892   0.82853   0.10799   0.00000  Uiso   1.00
N620   N     0.66104   0.84029   0.39288   0.00000  Uiso   1.00
N621   N     0.60954   0.71687   0.27515   0.00000  Uiso   1.00
N622   N     0.39426   0.94898   0.21827   0.00000  Uiso   1.00
N623   N     0.63304   0.75206   0.16915   0.00000  Uiso   1.00
N624   N     0.36861   0.91460   0.32988   0.00000  Uiso   1.00
O625   O     0.46179   0.89442   0.25000   0.00000  Uiso   1.00
O626   O     0.52615   0.75953   0.35912   0.00000  Uiso   1.00
O627   O     0.60591   0.93235   0.17991   0.00000  Uiso   1.00
O628   O     0.36725   0.69241   0.28779   0.00000  Uiso   1.00
O629   O     0.42192   0.77779   0.14853   0.00000  Uiso   1.00
O630   O     0.60974   0.93253   0.30474   0.00000  Uiso   1.00
O631   O     0.53821   0.77225   0.24999   0.00000  Uiso   1.00
O632   O     0.53823   0.89441   0.25000   0.00000  Uiso   1.00
O633   O     0.46177   0.77226   0.25000   0.00000  Uiso   1.00
O634   O     0.43994   0.83334   0.31612   0.00000  Uiso   1.00
O635   O     0.56006   0.83333   0.18387   0.00000  Uiso   1.00
O636   O     0.51639   0.83333   0.31612   0.00000  Uiso   1.00
O637   O     0.48361   0.83334   0.18388   0.00000  Uiso   1.00
O638   O     0.43263   0.86444   0.12477   0.00000  Uiso   1.00
Zn639  Zn    0.44896   0.83334   0.25000   0.00000  Uiso   1.00
Zn640  Zn    0.55104   0.83333   0.25000   0.00000  Uiso   1.00
C641   C     0.83535   0.91299   0.24434   0.00000  Uiso   1.00
C642   C     0.79341   0.98000   0.24520   0.00000  Uiso   1.00
C643   C     0.83031   0.70857   0.26008   0.00000  Uiso   1.00
C644   C     0.83736   0.95757   0.23752   0.00000  Uiso   1.00
C645   C     0.98774   0.80539   0.22218   0.00000  Uiso   1.00
C646   C     0.67950   0.86202   0.27688   0.00000  Uiso   1.00
C647   C     0.70259   0.80543   0.22185   0.00000  Uiso   1.00
C648   C     0.96491   0.86295   0.27625   0.00000  Uiso   1.00
C649   C     0.80237   0.83066   0.33798   0.00000  Uiso   1.00
C650   C     0.86426   0.83642   0.16212   0.00000  Uiso   1.00
C651   C     0.78228   0.82691   0.38916   0.00000  Uiso   1.00
C652   C     0.83162   0.75346   0.25494   0.00000  Uiso   1.00
C653   C     0.88444   0.84120   0.11112   0.00000  Uiso   1.00
C654   C     0.72682   0.86022   0.46135   0.00000  Uiso   1.00
C655   C     0.94100   0.80975   0.03835   0.00000  Uiso   1.00
C656   C     0.73494   0.84292   0.41761   0.00000  Uiso   1.00
C657   C     0.93218   0.82610   0.08257   0.00000  Uiso   1.00
C658   C     0.81457   0.81469   0.41028   0.00000  Uiso   1.00
C659   C     0.85226   0.85384   0.09007   0.00000  Uiso   1.00
C660   C     0.80469   0.82959   0.45653   0.00000  Uiso   1.00
C661   C     0.86290   0.83997   0.04329   0.00000  Uiso   1.00
C662   C     0.76373   0.85753   0.47827   0.00000  Uiso   1.00
C663   C     0.79896   0.88287   0.03074   0.00000  Uiso   1.00
C664   C     0.90429   0.81252   0.02123   0.00000  Uiso   1.00
C665   C     0.83577   0.82148   0.48059   0.00000  Uiso   1.00
C666   C     0.83225   0.84838   0.01893   0.00000  Uiso   1.00
C667   C     0.80625   0.87738   0.11978   0.00000  Uiso   1.00
C668   C     0.86076   0.79120   0.38129   0.00000  Uiso   1.00
C669   C     0.97259   0.82709   0.09715   0.00000  Uiso   1.00
C670   C     0.69426   0.84182   0.40341   0.00000  Uiso   1.00
C671   C     0.93026   0.95897   0.21121   0.00000  Uiso   1.00
C672   C     0.73771   0.70744   0.28893   0.00000  Uiso   1.00
C673   C     0.91261   0.70346   0.26451   0.00000  Uiso   1.00
C674   C     0.86948   0.78722   0.46857   0.00000  Uiso   1.00
C675   C     0.75669   0.96260   0.23045   0.00000  Uiso   1.00
C676   C     0.97568   0.77588   0.19282   0.00000  Uiso   1.00
C677   C     0.69212   0.89108   0.30628   0.00000  Uiso   1.00
C678   C     0.73998   0.77510   0.19066   0.00000  Uiso   1.00
C679   C     0.92937   0.89700   0.30293   0.00000  Uiso   1.00
C680   C     0.76184   0.88457   0.01456   0.00000  Uiso   1.00
C681   C     0.90670   0.78582   0.48457   0.00000  Uiso   1.00
C682   C     0.87985   0.97839   0.23489   0.00000  Uiso   1.00
C683   C     0.78775   0.68770   0.26278   0.00000  Uiso   1.00
C684   C     0.87450   0.68613   0.25177   0.00000  Uiso   1.00
H685   H     0.73359   0.90906   0.02808   0.00000  Uiso   1.00
H686   H     0.73346   0.73523   0.31106   0.00000  Uiso   1.00
H687   H     0.75228   0.74901   0.20461   0.00000  Uiso   1.00
H688   H     0.89085   0.89163   0.32106   0.00000  Uiso   1.00
H689   H     0.93517   0.76150   0.47094   0.00000  Uiso   1.00
H690   H     0.69264   0.87734   0.48130   0.00000  Uiso   1.00
H691   H     0.97549   0.79313   0.01821   0.00000  Uiso   1.00
H692   H     0.80061   0.90874   0.05289   0.00000  Uiso   1.00
H693   H     0.86783   0.76093   0.44698   0.00000  Uiso   1.00
H694   H     0.80835   0.90498   0.13984   0.00000  Uiso   1.00
H695   H     0.89599   0.80207   0.37948   0.00000  Uiso   1.00
H696   H     0.96033   0.96952   0.21986   0.00000  Uiso   1.00
N697   N     0.71426   0.83334   0.25001   0.00000  Uiso   1.00
N698   N     0.95241   0.83332   0.24999   0.00000  Uiso   1.00
N699   N     0.67226   0.82853   0.10799   0.00000  Uiso   1.00
N700   N     0.99438   0.84029   0.39288   0.00000  Uiso   1.00
N701   N     0.94287   0.71687   0.27515   0.00000  Uiso   1.00
N702   N     0.72760   0.94898   0.21827   0.00000  Uiso   1.00
N703   N     0.96637   0.75206   0.16915   0.00000  Uiso   1.00
N704   N     0.70194   0.91460   0.32988   0.00000  Uiso   1.00
O705   O     0.79512   0.89442   0.25000   0.00000  Uiso   1.00
O706   O     0.85948   0.75953   0.35912   0.00000  Uiso   1.00
O707   O     0.93924   0.93235   0.17991   0.00000  Uiso   1.00
O708   O     0.70059   0.69241   0.28779   0.00000  Uiso   1.00
O709   O     0.75525   0.77779   0.14853   0.00000  Uiso   1.00
O710   O     0.94307   0.93253   0.30474   0.00000  Uiso   1.00
O711   O     0.87154   0.77225   0.24999   0.00000  Uiso   1.00
O712   O     0.87157   0.89441   0.25000   0.00000  Uiso   1.00
O713   O     0.79510   0.77226   0.25000   0.00000  Uiso   1.00
O714   O     0.77328   0.83334   0.31612   0.00000  Uiso   1.00
O715   O     0.89339   0.83333   0.18387   0.00000  Uiso   1.00
O716   O     0.84972   0.83333   0.31612   0.00000  Uiso   1.00
O717   O     0.81695   0.83334   0.18388   0.00000  Uiso   1.00
O718   O     0.76597   0.86444   0.12477   0.00000  Uiso   1.00
Zn719  Zn    0.78229   0.83334   0.25000   0.00000  Uiso   1.00
Zn720  Zn    0.88438   0.83333   0.25000   0.00000  Uiso   1.00
C721   C     0.16869   0.24632   0.74434   0.00000  Uiso   1.00
C722   C     0.12674   0.31333   0.74520   0.00000  Uiso   1.00
C723   C     0.16364   0.04190   0.76008   0.00000  Uiso   1.00
C724   C     0.17070   0.29090   0.73752   0.00000  Uiso   1.00
C725   C     0.32108   0.13873   0.72218   0.00000  Uiso   1.00
C726   C     0.01283   0.19535   0.77688   0.00000  Uiso   1.00
C727   C     0.03592   0.13876   0.72185   0.00000  Uiso   1.00
C728   C     0.29824   0.19628   0.77625   0.00000  Uiso   1.00
C729   C     0.13570   0.16399   0.83798   0.00000  Uiso   1.00
C730   C     0.19759   0.16976   0.66212   0.00000  Uiso   1.00
C731   C     0.11562   0.16024   0.88916   0.00000  Uiso   1.00
C732   C     0.16496   0.08679   0.75494   0.00000  Uiso   1.00
C733   C     0.21778   0.17454   0.61112   0.00000  Uiso   1.00
C734   C     0.06015   0.19355   0.96135   0.00000  Uiso   1.00
C735   C     0.27433   0.14308   0.53835   0.00000  Uiso   1.00
C736   C     0.06828   0.17626   0.91761   0.00000  Uiso   1.00
C737   C     0.26552   0.15943   0.58257   0.00000  Uiso   1.00
C738   C     0.14790   0.14802   0.91028   0.00000  Uiso   1.00
C739   C     0.18559   0.18717   0.59007   0.00000  Uiso   1.00
C740   C     0.13802   0.16292   0.95653   0.00000  Uiso   1.00
C741   C     0.19624   0.17331   0.54329   0.00000  Uiso   1.00
C742   C     0.09707   0.19087   0.97827   0.00000  Uiso   1.00
C743   C     0.13229   0.21620   0.53074   0.00000  Uiso   1.00
C744   C     0.23762   0.14586   0.52123   0.00000  Uiso   1.00
C745   C     0.16910   0.15481   0.98059   0.00000  Uiso   1.00
C746   C     0.16558   0.18172   0.51893   0.00000  Uiso   1.00
C747   C     0.13958   0.21071   0.61978   0.00000  Uiso   1.00
C748   C     0.19410   0.12454   0.88129   0.00000  Uiso   1.00
C749   C     0.30592   0.16042   0.59715   0.00000  Uiso   1.00
C750   C     0.02760   0.17515   0.90341   0.00000  Uiso   1.00
C751   C     0.26360   0.29230   0.71121   0.00000  Uiso   1.00
C752   C     0.07105   0.04077   0.78893   0.00000  Uiso   1.00
C753   C     0.24595   0.03679   0.76451   0.00000  Uiso   1.00
C754   C     0.20281   0.12055   0.96857   0.00000  Uiso   1.00
C755   C     0.09002   0.29593   0.73045   0.00000  Uiso   1.00
C756   C     0.30902   0.10921   0.69282   0.00000  Uiso   1.00
C757   C     0.02545   0.22441   0.80628   0.00000  Uiso   1.00
C758   C     0.07331   0.10844   0.69066   0.00000  Uiso   1.00
C759   C     0.26270   0.23033   0.80293   0.00000  Uiso   1.00
C760   C     0.09517   0.21790   0.51456   0.00000  Uiso   1.00
C761   C     0.24003   0.11915   0.98457   0.00000  Uiso   1.00
C762   C     0.21318   0.31173   0.73489   0.00000  Uiso   1.00
C763   C     0.12108   0.02103   0.76278   0.00000  Uiso   1.00
C764   C     0.20783   0.01946   0.75177   0.00000  Uiso   1.00
H765   H     0.06693   0.24239   0.52808   0.00000  Uiso   1.00
H766   H     0.06679   0.06857   0.81106   0.00000  Uiso   1.00
H767   H     0.08561   0.08235   0.70461   0.00000  Uiso   1.00
H768   H     0.22419   0.22497   0.82106   0.00000  Uiso   1.00
H769   H     0.26850   0.09484   0.97094   0.00000  Uiso   1.00
H770   H     0.02597   0.21067   0.98130   0.00000  Uiso   1.00
H771   H     0.30883   0.12647   0.51821   0.00000  Uiso   1.00
H772   H     0.13394   0.24208   0.55289   0.00000  Uiso   1.00
H773   H     0.20117   0.09427   0.94698   0.00000  Uiso   1.00
H774   H     0.14169   0.23831   0.63984   0.00000  Uiso   1.00
H775   H     0.22932   0.13541   0.87948   0.00000  Uiso   1.00
H776   H     0.29367   0.30285   0.71986   0.00000  Uiso   1.00
N777   N     0.04759   0.16668   0.75001   0.00000  Uiso   1.00
N778   N     0.28574   0.16666   0.74999   0.00000  Uiso   1.00
N779   N     0.00559   0.16186   0.60799   0.00000  Uiso   1.00
N780   N     0.32771   0.17363   0.89288   0.00000  Uiso   1.00
N781   N     0.27620   0.05021   0.77515   0.00000  Uiso   1.00
N782   N     0.06093   0.28232   0.71827   0.00000  Uiso   1.00
N783   N     0.29971   0.08539   0.66915   0.00000  Uiso   1.00
N784   N     0.03528   0.24794   0.82988   0.00000  Uiso   1.00
O785   O     0.12846   0.22775   0.75000   0.00000  Uiso   1.00
O786   O     0.19282   0.09287   0.85912   0.00000  Uiso   1.00
O787   O     0.27257   0.26568   0.67991   0.00000  Uiso   1.00
O788   O     0.03392   0.02575   0.78779   0.00000  Uiso   1.00
O789   O     0.08859   0.11113   0.64853   0.00000  Uiso   1.00
O790   O     0.27641   0.26587   0.80474   0.00000  Uiso   1.00
O791   O     0.20488   0.10558   0.74999   0.00000  Uiso   1.00
O792   O     0.20490   0.22774   0.75000   0.00000  Uiso   1.00
O793   O     0.12843   0.10559   0.75000   0.00000  Uiso   1.00
O794   O     0.10661   0.16667   0.81612   0.00000  Uiso   1.00
O795   O     0.22672   0.16666   0.68387   0.00000  Uiso   1.00
O796   O     0.18305   0.16666   0.81612   0.00000  Uiso   1.00
O797   O     0.15028   0.16667   0.68388   0.00000  Uiso   1.00
O798   O     0.09930   0.19778   0.62477   0.00000  Uiso   1.00
Zn799  Zn    0.11562   0.16667   0.75000   0.00000  Uiso   1.00
Zn800  Zn    0.21771   0.16666   0.75000   0.00000  Uiso   1.00
C801   C     0.50202   0.24632   0.74434   0.00000  Uiso   1.00
C802   C     0.46007   0.31333   0.74520   0.00000  Uiso   1.00
C803   C     0.49697   0.04190   0.76008   0.00000  Uiso   1.00
C804   C     0.50403   0.29090   0.73752   0.00000  Uiso   1.00
C805   C     0.65441   0.13873   0.72218   0.00000  Uiso   1.00
C806   C     0.34616   0.19535   0.77688   0.00000  Uiso   1.00
C807   C     0.36925   0.13876   0.72185   0.00000  Uiso   1.00
C808   C     0.63157   0.19628   0.77625   0.00000  Uiso   1.00
C809   C     0.46904   0.16399   0.83798   0.00000  Uiso   1.00
C810   C     0.53093   0.16976   0.66212   0.00000  Uiso   1.00
C811   C     0.44895   0.16024   0.88916   0.00000  Uiso   1.00
C812   C     0.49829   0.08679   0.75494   0.00000  Uiso   1.00
C813   C     0.55111   0.17454   0.61112   0.00000  Uiso   1.00
C814   C     0.39349   0.19355   0.96135   0.00000  Uiso   1.00
C815   C     0.60766   0.14308   0.53835   0.00000  Uiso   1.00
C816   C     0.40161   0.17626   0.91761   0.00000  Uiso   1.00
C817   C     0.59885   0.15943   0.58257   0.00000  Uiso   1.00
C818   C     0.48123   0.14802   0.91028   0.00000  Uiso   1.00
C819   C     0.51893   0.18717   0.59007   0.00000  Uiso   1.00
C820   C     0.47136   0.16292   0.95653   0.00000  Uiso   1.00
C821   C     0.52957   0.17331   0.54329   0.00000  Uiso   1.00
C822   C     0.43040   0.19087   0.97827   0.00000  Uiso   1.00
C823   C     0.46563   0.21620   0.53074   0.00000  Uiso   1.00
C824   C     0.57096   0.14586   0.52123   0.00000  Uiso   1.00
C825   C     0.50243   0.15481   0.98059   0.00000  Uiso   1.00
C826   C     0.49891   0.18172   0.51893   0.00000  Uiso   1.00
C827   C     0.47292   0.21071   0.61978   0.00000  Uiso   1.00
C828   C     0.52743   0.12454   0.88129   0.00000  Uiso   1.00
C829   C     0.63925   0.16042   0.59715   0.00000  Uiso   1.00
C830   C     0.36093   0.17515   0.90341   0.00000  Uiso   1.00
C831   C     0.59693   0.29230   0.71121   0.00000  Uiso   1.00
C832   C     0.40438   0.04077   0.78893   0.00000  Uiso   1.00
C833   C     0.57928   0.03679   0.76451   0.00000  Uiso   1.00
C834   C     0.53615   0.12055   0.96857   0.00000  Uiso   1.00
C835   C     0.42336   0.29593   0.73045   0.00000  Uiso   1.00
C836   C     0.64235   0.10921   0.69282   0.00000  Uiso   1.00
C837   C     0.35879   0.22441   0.80628   0.00000  Uiso   1.00
C838   C     0.40664   0.10844   0.69066   0.00000  Uiso   1.00
C839   C     0.59603   0.23033   0.80293   0.00000  Uiso   1.00
C840   C     0.42850   0.21790   0.51456   0.00000  Uiso   1.00
C841   C     0.57337   0.11915   0.98457   0.00000  Uiso   1.00
C842   C     0.54652   0.31173   0.73489   0.00000  Uiso   1.00
C843   C     0.45442   0.02103   0.76278   0.00000  Uiso   1.00
C844   C     0.54117   0.01946   0.75177   0.00000  Uiso   1.00
H845   H     0.40026   0.24239   0.52808   0.00000  Uiso   1.00
H846   H     0.40012   0.06857   0.81106   0.00000  Uiso   1.00
H847   H     0.41895   0.08235   0.70461   0.00000  Uiso   1.00
H848   H     0.55752   0.22497   0.82106   0.00000  Uiso   1.00
H849   H     0.60183   0.09484   0.97094   0.00000  Uiso   1.00
H850   H     0.35930   0.21067   0.98130   0.00000  Uiso   1.00
H851   H     0.64216   0.12647   0.51821   0.00000  Uiso   1.00
H852   H     0.46728   0.24208   0.55289   0.00000  Uiso   1.00
H853   H     0.53450   0.09427   0.94698   0.00000  Uiso   1.00
H854   H     0.47502   0.23831   0.63984   0.00000  Uiso   1.00
H855   H     0.56266   0.13541   0.87948   0.00000  Uiso   1.00
H856   H     0.62700   0.30285   0.71986   0.00000  Uiso   1.00
N857   N     0.38093   0.16668   0.75001   0.00000  Uiso   1.00
N858   N     0.61907   0.16666   0.74999   0.00000  Uiso   1.00
N859   N     0.33892   0.16186   0.60799   0.00000  Uiso   1.00
N860   N     0.66104   0.17363   0.89288   0.00000  Uiso   1.00
N861   N     0.60954   0.05021   0.77515   0.00000  Uiso   1.00
N862   N     0.39426   0.28232   0.71827   0.00000  Uiso   1.00
N863   N     0.63304   0.08539   0.66915   0.00000  Uiso   1.00
N864   N     0.36861   0.24794   0.82988   0.00000  Uiso   1.00
O865   O     0.46179   0.22775   0.75000   0.00000  Uiso   1.00
O866   O     0.52615   0.09287   0.85912   0.00000  Uiso   1.00
O867   O     0.60591   0.26568   0.67991   0.00000  Uiso   1.00
O868   O     0.36725   0.02575   0.78779   0.00000  Uiso   1.00
O869   O     0.42192   0.11113   0.64853   0.00000  Uiso   1.00
O870   O     0.60974   0.26587   0.80474   0.00000  Uiso   1.00
O871   O     0.53821   0.10558   0.74999   0.00000  Uiso   1.00
O872   O     0.53823   0.22774   0.75000   0.00000  Uiso   1.00
O873   O     0.46177   0.10559   0.75000   0.00000  Uiso   1.00
O874   O     0.43994   0.16667   0.81612   0.00000  Uiso   1.00
O875   O     0.56006   0.16666   0.68387   0.00000  Uiso   1.00
O876   O     0.51639   0.16666   0.81612   0.00000  Uiso   1.00
O877   O     0.48361   0.16667   0.68388   0.00000  Uiso   1.00
O878   O     0.43263   0.19778   0.62477   0.00000  Uiso   1.00
Zn879  Zn    0.44896   0.16667   0.75000   0.00000  Uiso   1.00
Zn880  Zn    0.55104   0.16666   0.75000   0.00000  Uiso   1.00
C881   C     0.83535   0.24632   0.74434   0.00000  Uiso   1.00
C882   C     0.79341   0.31333   0.74520   0.00000  Uiso   1.00
C883   C     0.83031   0.04190   0.76008   0.00000  Uiso   1.00
C884   C     0.83736   0.29090   0.73752   0.00000  Uiso   1.00
C885   C     0.98774   0.13873   0.72218   0.00000  Uiso   1.00
C886   C     0.67950   0.19535   0.77688   0.00000  Uiso   1.00
C887   C     0.70259   0.13876   0.72185   0.00000  Uiso   1.00
C888   C     0.96491   0.19628   0.77625   0.00000  Uiso   1.00
C889   C     0.80237   0.16399   0.83798   0.00000  Uiso   1.00
C890   C     0.86426   0.16976   0.66212   0.00000  Uiso   1.00
C891   C     0.78228   0.16024   0.88916   0.00000  Uiso   1.00
C892   C     0.83162   0.08679   0.75494   0.00000  Uiso   1.00
C893   C     0.88444   0.17454   0.61112   0.00000  Uiso   1.00
C894   C     0.72682   0.19355   0.96135   0.00000  Uiso   1.00
C895   C     0.94100   0.14308   0.53835   0.00000  Uiso   1.00
C896   C     0.73494   0.17626   0.91761   0.00000  Uiso   1.00
C897   C     0.93218   0.15943   0.58257   0.00000  Uiso   1.00
C898   C     0.81457   0.14802   0.91028   0.00000  Uiso   1.00
C899   C     0.85226   0.18717   0.59007   0.00000  Uiso   1.00
C900   C     0.80469   0.16292   0.95653   0.00000  Uiso   1.00
C901   C     0.86290   0.17331   0.54329   0.00000  Uiso   1.00
C902   C     0.76373   0.19087   0.97827   0.00000  Uiso   1.00
C903   C     0.79896   0.21620   0.53074   0.00000  Uiso   1.00
C904   C     0.90429   0.14586   0.52123   0.00000  Uiso   1.00
C905   C     0.83577   0.15481   0.98059   0.00000  Uiso   1.00
C906   C     0.83225   0.18172   0.51893   0.00000  Uiso   1.00
C907   C     0.80625   0.21071   0.61978   0.00000  Uiso   1.00
C908   C     0.86076   0.12454   0.88129   0.00000  Uiso   1.00
C909   C     0.97259   0.16042   0.59715   0.00000  Uiso   1.00
C910   C     0.69426   0.17515   0.90341   0.00000  Uiso   1.00
C911   C     0.93026   0.29230   0.71121   0.00000  Uiso   1.00
C912   C     0.73771   0.04077   0.78893   0.00000  Uiso   1.00
C913   C     0.91261   0.03679   0.76451   0.00000  Uiso   1.00
C914   C     0.86948   0.12055   0.96857   0.00000  Uiso   1.00
C915   C     0.75669   0.29593   0.73045   0.00000  Uiso   1.00
C916   C     0.97568   0.10921   0.69282   0.00000  Uiso   1.00
C917   C     0.69212   0.22441   0.80628   0.00000  Uiso   1.00
C918   C     0.73998   0.10844   0.69066   0.00000  Uiso   1.00
C919   C     0.92937   0.23033   0.80293   0.00000  Uiso   1.00
C920   C     0.76184   0.21790   0.51456   0.00000  Uiso   1.00
C921   C     0.90670   0.11915   0.98457   0.00000  Uiso   1.00
C922   C     0.87985   0.31173   0.73489   0.00000  Uiso   1.00
C923   C     0.78775   0.02103   0.76278   0.00000  Uiso   1.00
C924   C     0.87450   0.01946   0.75177   0.00000  Uiso   1.00
H925   H     0.73359   0.24239   0.52808   0.00000  Uiso   1.00
H926   H     0.73346   0.06857   0.81106   0.00000  Uiso   1.00
H927   H     0.75228   0.08235   0.70461   0.00000  Uiso   1.00
H928   H     0.89085   0.22497   0.82106   0.00000  Uiso   1.00
H929   H     0.93517   0.09484   0.97094   0.00000  Uiso   1.00
H930   H     0.69264   0.21067   0.98130   0.00000  Uiso   1.00
H931   H     0.97549   0.12647   0.51821   0.00000  Uiso   1.00
H932   H     0.80061   0.24208   0.55289   0.00000  Uiso   1.00
H933   H     0.86783   0.09427   0.94698   0.00000  Uiso   1.00
H934   H     0.80835   0.23831   0.63984   0.00000  Uiso   1.00
H935   H     0.89599   0.13541   0.87948   0.00000  Uiso   1.00
H936   H     0.96033   0.30285   0.71986   0.00000  Uiso   1.00
N937   N     0.71426   0.16668   0.75001   0.00000  Uiso   1.00
N938   N     0.95241   0.16666   0.74999   0.00000  Uiso   1.00
N939   N     0.67226   0.16186   0.60799   0.00000  Uiso   1.00
N940   N     0.99438   0.17363   0.89288   0.00000  Uiso   1.00
N941   N     0.94287   0.05021   0.77515   0.00000  Uiso   1.00
N942   N     0.72760   0.28232   0.71827   0.00000  Uiso   1.00
N943   N     0.96637   0.08539   0.66915   0.00000  Uiso   1.00
N944   N     0.70194   0.24794   0.82988   0.00000  Uiso   1.00
O945   O     0.79512   0.22775   0.75000   0.00000  Uiso   1.00
O946   O     0.85948   0.09287   0.85912   0.00000  Uiso   1.00
O947   O     0.93924   0.26568   0.67991   0.00000  Uiso   1.00
O948   O     0.70059   0.02575   0.78779   0.00000  Uiso   1.00
O949   O     0.75525   0.11113   0.64853   0.00000  Uiso   1.00
O950   O     0.94307   0.26587   0.80474   0.00000  Uiso   1.00
O951   O     0.87154   0.10558   0.74999   0.00000  Uiso   1.00
O952   O     0.87157   0.22774   0.75000   0.00000  Uiso   1.00
O953   O     0.79510   0.10559   0.75000   0.00000  Uiso   1.00
O954   O     0.77328   0.16667   0.81612   0.00000  Uiso   1.00
O955   O     0.89339   0.16666   0.68387   0.00000  Uiso   1.00
O956   O     0.84972   0.16666   0.81612   0.00000  Uiso   1.00
O957   O     0.81695   0.16667   0.68388   0.00000  Uiso   1.00
O958   O     0.76597   0.19778   0.62477   0.00000  Uiso   1.00
Zn959  Zn    0.78229   0.16667   0.75000   0.00000  Uiso   1.00
Zn960  Zn    0.88438   0.16666   0.75000   0.00000  Uiso   1.00
C961   C     0.16869   0.57966   0.74434   0.00000  Uiso   1.00
C962   C     0.12674   0.64666   0.74520   0.00000  Uiso   1.00
C963   C     0.16364   0.37523   0.76008   0.00000  Uiso   1.00
C964   C     0.17070   0.62424   0.73752   0.00000  Uiso   1.00
C965   C     0.32108   0.47206   0.72218   0.00000  Uiso   1.00
C966   C     0.01283   0.52868   0.77688   0.00000  Uiso   1.00
C967   C     0.03592   0.47209   0.72185   0.00000  Uiso   1.00
C968   C     0.29824   0.52962   0.77625   0.00000  Uiso   1.00
C969   C     0.13570   0.49732   0.83798   0.00000  Uiso   1.00
C970   C     0.19759   0.50309   0.66212   0.00000  Uiso   1.00
C971   C     0.11562   0.49358   0.88916   0.00000  Uiso   1.00
C972   C     0.16496   0.42012   0.75494   0.00000  Uiso   1.00
C973   C     0.21778   0.50787   0.61112   0.00000  Uiso   1.00
C974   C     0.06015   0.52689   0.96135   0.00000  Uiso   1.00
C975   C     0.27433   0.47641   0.53835   0.00000  Uiso   1.00
C976   C     0.06828   0.50959   0.91761   0.00000  Uiso   1.00
C977   C     0.26552   0.49276   0.58257   0.00000  Uiso   1.00
C978   C     0.14790   0.48135   0.91028   0.00000  Uiso   1.00
C979   C     0.18559   0.52051   0.59007   0.00000  Uiso   1.00
C980   C     0.13802   0.49626   0.95653   0.00000  Uiso   1.00
C981   C     0.19624   0.50664   0.54329   0.00000  Uiso   1.00
C982   C     0.09707   0.52420   0.97827   0.00000  Uiso   1.00
C983   C     0.13229   0.54953   0.53074   0.00000  Uiso   1.00
C984   C     0.23762   0.47919   0.52123   0.00000  Uiso   1.00
C985   C     0.16910   0.48814   0.98059   0.00000  Uiso   1.00
C986   C     0.16558   0.51505   0.51893   0.00000  Uiso   1.00
C987   C     0.13958   0.54404   0.61978   0.00000  Uiso   1.00
C988   C     0.19410   0.45787   0.88129   0.00000  Uiso   1.00
C989   C     0.30592   0.49376   0.59715   0.00000  Uiso   1.00
C990   C     0.02760   0.50848   0.90341   0.00000  Uiso   1.00
C991   C     0.26360   0.62564   0.71121   0.00000  Uiso   1.00
C992   C     0.07105   0.37410   0.78893   0.00000  Uiso   1.00
C993   C     0.24595   0.37012   0.76451   0.00000  Uiso   1.00
C994   C     0.20281   0.45389   0.96857   0.00000  Uiso   1.00
C995   C     0.09002   0.62926   0.73045   0.00000  Uiso   1.00
C996   C     0.30902   0.44254   0.69282   0.00000  Uiso   1.00
C997   C     0.02545   0.55774   0.80628   0.00000  Uiso   1.00
C998   C     0.07331   0.44177   0.69066   0.00000  Uiso   1.00
C999   C     0.26270   0.56366   0.80293   0.00000  Uiso   1.00
C1000  C     0.09517   0.55123   0.51456   0.00000  Uiso   1.00
C1001  C     0.24003   0.45249   0.98457   0.00000  Uiso   1.00
C1002  C     0.21318   0.64506   0.73489   0.00000  Uiso   1.00
C1003  C     0.12108   0.35436   0.76278   0.00000  Uiso   1.00
C1004  C     0.20783   0.35280   0.75177   0.00000  Uiso   1.00
H1005  H     0.06693   0.57573   0.52808   0.00000  Uiso   1.00
H1006  H     0.06679   0.40190   0.81106   0.00000  Uiso   1.00
H1007  H     0.08561   0.41568   0.70461   0.00000  Uiso   1.00
H1008  H     0.22419   0.55830   0.82106   0.00000  Uiso   1.00
H1009  H     0.26850   0.42817   0.97094   0.00000  Uiso   1.00
H1010  H     0.02597   0.54401   0.98130   0.00000  Uiso   1.00
H1011  H     0.30883   0.45980   0.51821   0.00000  Uiso   1.00
H1012  H     0.13394   0.57541   0.55289   0.00000  Uiso   1.00
H1013  H     0.20117   0.42760   0.94698   0.00000  Uiso   1.00
H1014  H     0.14169   0.57165   0.63984   0.00000  Uiso   1.00
H1015  H     0.22932   0.46874   0.87948   0.00000  Uiso   1.00
H1016  H     0.29367   0.63619   0.71986   0.00000  Uiso   1.00
N1017  N     0.04759   0.50001   0.75001   0.00000  Uiso   1.00
N1018  N     0.28574   0.49999   0.74999   0.00000  Uiso   1.00
N1019  N     0.00559   0.49520   0.60799   0.00000  Uiso   1.00
N1020  N     0.32771   0.50696   0.89288   0.00000  Uiso   1.00
N1021  N     0.27620   0.38354   0.77515   0.00000  Uiso   1.00
N1022  N     0.06093   0.61565   0.71827   0.00000  Uiso   1.00
N1023  N     0.29971   0.41872   0.66915   0.00000  Uiso   1.00
N1024  N     0.03528   0.58127   0.82988   0.00000  Uiso   1.00
O1025  O     0.12846   0.56108   0.75000   0.00000  Uiso   1.00
O1026  O     0.19282   0.42620   0.85912   0.00000  Uiso   1.00
O1027  O     0.27257   0.59902   0.67991   0.00000  Uiso   1.00
O1028  O     0.03392   0.35908   0.78779   0.00000  Uiso   1.00
O1029  O     0.08859   0.44446   0.64853   0.00000  Uiso   1.00
O1030  O     0.27641   0.59920   0.80474   0.00000  Uiso   1.00
O1031  O     0.20488   0.43892   0.74999   0.00000  Uiso   1.00
O1032  O     0.20490   0.56107   0.75000   0.00000  Uiso   1.00
O1033  O     0.12843   0.43893   0.75000   0.00000  Uiso   1.00
O1034  O     0.10661   0.50001   0.81612   0.00000  Uiso   1.00
O1035  O     0.22672   0.49999   0.68387   0.00000  Uiso   1.00
O1036  O     0.18305   0.50000   0.81612   0.00000  Uiso   1.00
O1037  O     0.15028   0.50000   0.68388   0.00000  Uiso   1.00
O1038  O     0.09930   0.53111   0.62477   0.00000  Uiso   1.00
Zn1039 Zn    0.11562   0.50001   0.75000   0.00000  Uiso   1.00
Zn1040 Zn    0.21771   0.49999   0.75000   0.00000  Uiso   1.00
C1041  C     0.50202   0.57966   0.74434   0.00000  Uiso   1.00
C1042  C     0.46007   0.64666   0.74520   0.00000  Uiso   1.00
C1043  C     0.49697   0.37523   0.76008   0.00000  Uiso   1.00
C1044  C     0.50403   0.62424   0.73752   0.00000  Uiso   1.00
C1045  C     0.65441   0.47206   0.72218   0.00000  Uiso   1.00
C1046  C     0.34616   0.52868   0.77688   0.00000  Uiso   1.00
C1047  C     0.36925   0.47209   0.72185   0.00000  Uiso   1.00
C1048  C     0.63157   0.52962   0.77625   0.00000  Uiso   1.00
C1049  C     0.46904   0.49732   0.83798   0.00000  Uiso   1.00
C1050  C     0.53093   0.50309   0.66212   0.00000  Uiso   1.00
C1051  C     0.44895   0.49358   0.88916   0.00000  Uiso   1.00
C1052  C     0.49829   0.42012   0.75494   0.00000  Uiso   1.00
C1053  C     0.55111   0.50787   0.61112   0.00000  Uiso   1.00
C1054  C     0.39349   0.52689   0.96135   0.00000  Uiso   1.00
C1055  C     0.60766   0.47641   0.53835   0.00000  Uiso   1.00
C1056  C     0.40161   0.50959   0.91761   0.00000  Uiso   1.00
C1057  C     0.59885   0.49276   0.58257   0.00000  Uiso   1.00
C1058  C     0.48123   0.48135   0.91028   0.00000  Uiso   1.00
C1059  C     0.51893   0.52051   0.59007   0.00000  Uiso   1.00
C1060  C     0.47136   0.49626   0.95653   0.00000  Uiso   1.00
C1061  C     0.52957   0.50664   0.54329   0.00000  Uiso   1.00
C1062  C     0.43040   0.52420   0.97827   0.00000  Uiso   1.00
C1063  C     0.46563   0.54953   0.53074   0.00000  Uiso   1.00
C1064  C     0.57096   0.47919   0.52123   0.00000  Uiso   1.00
C1065  C     0.50243   0.48814   0.98059   0.00000  Uiso   1.00
C1066  C     0.49891   0.51505   0.51893   0.00000  Uiso   1.00
C1067  C     0.47292   0.54404   0.61978   0.00000  Uiso   1.00
C1068  C     0.52743   0.45787   0.88129   0.00000  Uiso   1.00
C1069  C     0.63925   0.49376   0.59715   0.00000  Uiso   1.00
C1070  C     0.36093   0.50848   0.90341   0.00000  Uiso   1.00
C1071  C     0.59693   0.62564   0.71121   0.00000  Uiso   1.00
C1072  C     0.40438   0.37410   0.78893   0.00000  Uiso   1.00
C1073  C     0.57928   0.37012   0.76451   0.00000  Uiso   1.00
C1074  C     0.53615   0.45389   0.96857   0.00000  Uiso   1.00
C1075  C     0.42336   0.62926   0.73045   0.00000  Uiso   1.00
C1076  C     0.64235   0.44254   0.69282   0.00000  Uiso   1.00
C1077  C     0.35879   0.55774   0.80628   0.00000  Uiso   1.00
C1078  C     0.40664   0.44177   0.69066   0.00000  Uiso   1.00
C1079  C     0.59603   0.56366   0.80293   0.00000  Uiso   1.00
C1080  C     0.42850   0.55123   0.51456   0.00000  Uiso   1.00
C1081  C     0.57337   0.45249   0.98457   0.00000  Uiso   1.00
C1082  C     0.54652   0.64506   0.73489   0.00000  Uiso   1.00
C1083  C     0.45442   0.35436   0.76278   0.00000  Uiso   1.00
C1084  C     0.54117   0.35280   0.75177   0.00000  Uiso   1.00
H1085  H     0.40026   0.57573   0.52808   0.00000  Uiso   1.00
H1086  H     0.40012   0.40190   0.81106   0.00000  Uiso   1.00
H1087  H     0.41895   0.41568   0.70461   0.00000  Uiso   1.00
H1088  H     0.55752   0.55830   0.82106   0.00000  Uiso   1.00
H1089  H     0.60183   0.42817   0.97094   0.00000  Uiso   1.00
H1090  H     0.35930   0.54401   0.98130   0.00000  Uiso   1.00
H1091  H     0.64216   0.45980   0.51821   0.00000  Uiso   1.00
H1092  H     0.46728   0.57541   0.55289   0.00000  Uiso   1.00
H1093  H     0.53450   0.42760   0.94698   0.00000  Uiso   1.00
H1094  H     0.47502   0.57165   0.63984   0.00000  Uiso   1.00
H1095  H     0.56266   0.46874   0.87948   0.00000  Uiso   1.00
H1096  H     0.62700   0.63619   0.71986   0.00000  Uiso   1.00
N1097  N     0.38093   0.50001   0.75001   0.00000  Uiso   1.00
N1098  N     0.61907   0.49999   0.74999   0.00000  Uiso   1.00
N1099  N     0.33892   0.49520   0.60799   0.00000  Uiso   1.00
N1100  N     0.66104   0.50696   0.89288   0.00000  Uiso   1.00
N1101  N     0.60954   0.38354   0.77515   0.00000  Uiso   1.00
N1102  N     0.39426   0.61565   0.71827   0.00000  Uiso   1.00
N1103  N     0.63304   0.41872   0.66915   0.00000  Uiso   1.00
N1104  N     0.36861   0.58127   0.82988   0.00000  Uiso   1.00
O1105  O     0.46179   0.56108   0.75000   0.00000  Uiso   1.00
O1106  O     0.52615   0.42620   0.85912   0.00000  Uiso   1.00
O1107  O     0.60591   0.59902   0.67991   0.00000  Uiso   1.00
O1108  O     0.36725   0.35908   0.78779   0.00000  Uiso   1.00
O1109  O     0.42192   0.44446   0.64853   0.00000  Uiso   1.00
O1110  O     0.60974   0.59920   0.80474   0.00000  Uiso   1.00
O1111  O     0.53821   0.43892   0.74999   0.00000  Uiso   1.00
O1112  O     0.53823   0.56107   0.75000   0.00000  Uiso   1.00
O1113  O     0.46177   0.43893   0.75000   0.00000  Uiso   1.00
O1114  O     0.43994   0.50001   0.81612   0.00000  Uiso   1.00
O1115  O     0.56006   0.49999   0.68387   0.00000  Uiso   1.00
O1116  O     0.51639   0.50000   0.81612   0.00000  Uiso   1.00
O1117  O     0.48361   0.50000   0.68388   0.00000  Uiso   1.00
O1118  O     0.43263   0.53111   0.62477   0.00000  Uiso   1.00
Zn1119 Zn    0.44896   0.50001   0.75000   0.00000  Uiso   1.00
Zn1120 Zn    0.55104   0.49999   0.75000   0.00000  Uiso   1.00
C1121  C     0.83535   0.57966   0.74434   0.00000  Uiso   1.00
C1122  C     0.79341   0.64666   0.74520   0.00000  Uiso   1.00
C1123  C     0.83031   0.37523   0.76008   0.00000  Uiso   1.00
C1124  C     0.83736   0.62424   0.73752   0.00000  Uiso   1.00
C1125  C     0.98774   0.47206   0.72218   0.00000  Uiso   1.00
C1126  C     0.67950   0.52868   0.77688   0.00000  Uiso   1.00
C1127  C     0.70259   0.47209   0.72185   0.00000  Uiso   1.00
C1128  C     0.96491   0.52962   0.77625   0.00000  Uiso   1.00
C1129  C     0.80237   0.49732   0.83798   0.00000  Uiso   1.00
C1130  C     0.86426   0.50309   0.66212   0.00000  Uiso   1.00
C1131  C     0.78228   0.49358   0.88916   0.00000  Uiso   1.00
C1132  C     0.83162   0.42012   0.75494   0.00000  Uiso   1.00
C1133  C     0.88444   0.50787   0.61112   0.00000  Uiso   1.00
C1134  C     0.72682   0.52689   0.96135   0.00000  Uiso   1.00
C1135  C     0.94100   0.47641   0.53835   0.00000  Uiso   1.00
C1136  C     0.73494   0.50959   0.91761   0.00000  Uiso   1.00
C1137  C     0.93218   0.49276   0.58257   0.00000  Uiso   1.00
C1138  C     0.81457   0.48135   0.91028   0.00000  Uiso   1.00
C1139  C     0.85226   0.52051   0.59007   0.00000  Uiso   1.00
C1140  C     0.80469   0.49626   0.95653   0.00000  Uiso   1.00
C1141  C     0.86290   0.50664   0.54329   0.00000  Uiso   1.00
C1142  C     0.76373   0.52420   0.97827   0.00000  Uiso   1.00
C1143  C     0.79896   0.54953   0.53074   0.00000  Uiso   1.00
C1144  C     0.90429   0.47919   0.52123   0.00000  Uiso   1.00
C1145  C     0.83577   0.48814   0.98059   0.00000  Uiso   1.00
C1146  C     0.83225   0.51505   0.51893   0.00000  Uiso   1.00
C1147  C     0.80625   0.54404   0.61978   0.00000  Uiso   1.00
C1148  C     0.86076   0.45787   0.88129   0.00000  Uiso   1.00
C1149  C     0.97259   0.49376   0.59715   0.00000  Uiso   1.00
C1150  C     0.69426   0.50848   0.90341   0.00000  Uiso   1.00
C1151  C     0.93026   0.62564   0.71121   0.00000  Uiso   1.00
C1152  C     0.73771   0.37410   0.78893   0.00000  Uiso   1.00
C1153  C     0.91261   0.37012   0.76451   0.00000  Uiso   1.00
C1154  C     0.86948   0.45389   0.96857   0.00000  Uiso   1.00
C1155  C     0.75669   0.62926   0.73045   0.00000  Uiso   1.00
C1156  C     0.97568   0.44254   0.69282   0.00000  Uiso   1.00
C1157  C     0.69212   0.55774   0.80628   0.00000  Uiso   1.00
C1158  C     0.73998   0.44177   0.69066   0.00000  Uiso   1.00
C1159  C     0.92937   0.56366   0.80293   0.00000  Uiso   1.00
C1160  C     0.76184   0.55123   0.51456   0.00000  Uiso   1.00
C1161  C     0.90670   0.45249   0.98457   0.00000  Uiso   1.00
C1162  C     0.87985   0.64506   0.73489   0.00000  Uiso   1.00
C1163  C     0.78775   0.35436   0.76278   0.00000  Uiso   1.00
C1164  C     0.87450   0.35280   0.75177   0.00000  Uiso   1.00
H1165  H     0.73359   0.57573   0.52808   0.00000  Uiso   1.00
H1166  H     0.73346   0.40190   0.81106   0.00000  Uiso   1.00
H1167  H     0.75228   0.41568   0.70461   0.00000  Uiso   1.00
H1168  H     0.89085   0.55830   0.82106   0.00000  Uiso   1.00
H1169  H     0.93517   0.42817   0.97094   0.00000  Uiso   1.00
H1170  H     0.69264   0.54401   0.98130   0.00000  Uiso   1.00
H1171  H     0.97549   0.45980   0.51821   0.00000  Uiso   1.00
H1172  H     0.80061   0.57541   0.55289   0.00000  Uiso   1.00
H1173  H     0.86783   0.42760   0.94698   0.00000  Uiso   1.00
H1174  H     0.80835   0.57165   0.63984   0.00000  Uiso   1.00
H1175  H     0.89599   0.46874   0.87948   0.00000  Uiso   1.00
H1176  H     0.96033   0.63619   0.71986   0.00000  Uiso   1.00
N1177  N     0.71426   0.50001   0.75001   0.00000  Uiso   1.00
N1178  N     0.95241   0.49999   0.74999   0.00000  Uiso   1.00
N1179  N     0.67226   0.49520   0.60799   0.00000  Uiso   1.00
N1180  N     0.99438   0.50696   0.89288   0.00000  Uiso   1.00
N1181  N     0.94287   0.38354   0.77515   0.00000  Uiso   1.00
N1182  N     0.72760   0.61565   0.71827   0.00000  Uiso   1.00
N1183  N     0.96637   0.41872   0.66915   0.00000  Uiso   1.00
N1184  N     0.70194   0.58127   0.82988   0.00000  Uiso   1.00
O1185  O     0.79512   0.56108   0.75000   0.00000  Uiso   1.00
O1186  O     0.85948   0.42620   0.85912   0.00000  Uiso   1.00
O1187  O     0.93924   0.59902   0.67991   0.00000  Uiso   1.00
O1188  O     0.70059   0.35908   0.78779   0.00000  Uiso   1.00
O1189  O     0.75525   0.44446   0.64853   0.00000  Uiso   1.00
O1190  O     0.94307   0.59920   0.80474   0.00000  Uiso   1.00
O1191  O     0.87154   0.43892   0.74999   0.00000  Uiso   1.00
O1192  O     0.87157   0.56107   0.75000   0.00000  Uiso   1.00
O1193  O     0.79510   0.43893   0.75000   0.00000  Uiso   1.00
O1194  O     0.77328   0.50001   0.81612   0.00000  Uiso   1.00
O1195  O     0.89339   0.49999   0.68387   0.00000  Uiso   1.00
O1196  O     0.84972   0.50000   0.81612   0.00000  Uiso   1.00
O1197  O     0.81695   0.50000   0.68388   0.00000  Uiso   1.00
O1198  O     0.76597   0.53111   0.62477   0.00000  Uiso   1.00
Zn1199 Zn    0.78229   0.50001   0.75000   0.00000  Uiso   1.00
Zn1200 Zn    0.88438   0.49999   0.75000   0.00000  Uiso   1.00
C1201  C     0.16869   0.91299   0.74434   0.00000  Uiso   1.00
C1202  C     0.12674   0.98000   0.74520   0.00000  Uiso   1.00
C1203  C     0.16364   0.70857   0.76008   0.00000  Uiso   1.00
C1204  C     0.17070   0.95757   0.73752   0.00000  Uiso   1.00
C1205  C     0.32108   0.80539   0.72218   0.00000  Uiso   1.00
C1206  C     0.01283   0.86202   0.77688   0.00000  Uiso   1.00
C1207  C     0.03592   0.80543   0.72185   0.00000  Uiso   1.00
C1208  C     0.29824   0.86295   0.77625   0.00000  Uiso   1.00
C1209  C     0.13570   0.83066   0.83798   0.00000  Uiso   1.00
C1210  C     0.19759   0.83642   0.66212   0.00000  Uiso   1.00
C1211  C     0.11562   0.82691   0.88916   0.00000  Uiso   1.00
C1212  C     0.16496   0.75346   0.75494   0.00000  Uiso   1.00
C1213  C     0.21778   0.84120   0.61112   0.00000  Uiso   1.00
C1214  C     0.06015   0.86022   0.96135   0.00000  Uiso   1.00
C1215  C     0.27433   0.80975   0.53835   0.00000  Uiso   1.00
C1216  C     0.06828   0.84292   0.91761   0.00000  Uiso   1.00
C1217  C     0.26552   0.82610   0.58257   0.00000  Uiso   1.00
C1218  C     0.14790   0.81469   0.91028   0.00000  Uiso   1.00
C1219  C     0.18559   0.85384   0.59007   0.00000  Uiso   1.00
C1220  C     0.13802   0.82959   0.95653   0.00000  Uiso   1.00
C1221  C     0.19624   0.83997   0.54329   0.00000  Uiso   1.00
C1222  C     0.09707   0.85753   0.97827   0.00000  Uiso   1.00
C1223  C     0.13229   0.88287   0.53074   0.00000  Uiso   1.00
C1224  C     0.23762   0.81252   0.52123   0.00000  Uiso   1.00
C1225  C     0.16910   0.82148   0.98059   0.00000  Uiso   1.00
C1226  C     0.16558   0.84838   0.51893   0.00000  Uiso   1.00
C1227  C     0.13958   0.87738   0.61978   0.00000  Uiso   1.00
C1228  C     0.19410   0.79120   0.88129   0.00000  Uiso   1.00
C1229  C     0.30592   0.82709   0.59715   0.00000  Uiso   1.00
C1230  C     0.02760   0.84182   0.90341   0.00000  Uiso   1.00
C1231  C     0.26360   0.95897   0.71121   0.00000  Uiso   1.00
C1232  C     0.07105   0.70744   0.78893   0.00000  Uiso   1.00
C1233  C     0.24595   0.70346   0.76451   0.00000  Uiso   1.00
C1234  C     0.20281   0.78722   0.96857   0.00000  Uiso   1.00
C1235  C     0.09002   0.96260   0.73045   0.00000  Uiso   1.00
C1236  C     0.30902   0.77588   0.69282   0.00000  Uiso   1.00
C1237  C     0.02545   0.89108   0.80628   0.00000  Uiso   1.00
C1238  C     0.07331   0.77510   0.69066   0.00000  Uiso   1.00
C1239  C     0.26270   0.89700   0.80293   0.00000  Uiso   1.00
C1240  C     0.09517   0.88457   0.51456   0.00000  Uiso   1.00
C1241  C     0.24003   0.78582   0.98457   0.00000  Uiso   1.00
C1242  C     0.21318   0.97839   0.73489   0.00000  Uiso   1.00
C1243  C     0.12108   0.68770   0.76278   0.00000  Uiso   1.00
C1244  C     0.20783   0.68613   0.75177   0.00000  Uiso   1.00
H1245  H     0.06693   0.90906   0.52808   0.00000  Uiso   1.00
H1246  H     0.06679   0.73523   0.81106   0.00000  Uiso   1.00
H1247  H     0.08561   0.74901   0.70461   0.00000  Uiso   1.00
H1248  H     0.22419   0.89163   0.82106   0.00000  Uiso   1.00
H1249  H     0.26850   0.76150   0.97094   0.00000  Uiso   1.00
H1250  H     0.02597   0.87734   0.98130   0.00000  Uiso   1.00
H1251  H     0.30883   0.79313   0.51821   0.00000  Uiso   1.00
H1252  H     0.13394   0.90874   0.55289   0.00000  Uiso   1.00
H1253  H     0.20117   0.76093   0.94698   0.00000  Uiso   1.00
H1254  H     0.14169   0.90498   0.63984   0.00000  Uiso   1.00
H1255  H     0.22932   0.80207   0.87948   0.00000  Uiso   1.00
H1256  H     0.29367   0.96952   0.71986   0.00000  Uiso   1.00
N1257  N     0.04759   0.83334   0.75001   0.00000  Uiso   1.00
N1258  N     0.28574   0.83332   0.74999   0.00000  Uiso   1.00
N1259  N     0.00559   0.82853   0.60799   0.00000  Uiso   1.00
N1260  N     0.32771   0.84029   0.89288   0.00000  Uiso   1.00
N1261  N     0.27620   0.71687   0.77515   0.00000  Uiso   1.00
N1262  N     0.06093   0.94898   0.71827   0.00000  Uiso   1.00
N1263  N     0.29971   0.75206   0.66915   0.00000  Uiso   1.00
N1264  N     0.03528   0.91460   0.82988   0.00000  Uiso   1.00
O1265  O     0.12846   0.89442   0.75000   0.00000  Uiso   1.00
O1266  O     0.19282   0.75953   0.85912   0.00000  Uiso   1.00
O1267  O     0.27257   0.93235   0.67991   0.00000  Uiso   1.00
O1268  O     0.03392   0.69241   0.78779   0.00000  Uiso   1.00
O1269  O     0.08859   0.77779   0.64853   0.00000  Uiso   1.00
O1270  O     0.27641   0.93253   0.80474   0.00000  Uiso   1.00
O1271  O     0.20488   0.77225   0.74999   0.00000  Uiso   1.00
O1272  O     0.20490   0.89441   0.75000   0.00000  Uiso   1.00
O1273  O     0.12843   0.77226   0.75000   0.00000  Uiso   1.00
O1274  O     0.10661   0.83334   0.81612   0.00000  Uiso   1.00
O1275  O     0.22672   0.83333   0.68387   0.00000  Uiso   1.00
O1276  O     0.18305   0.83333   0.81612   0.00000  Uiso   1.00
O1277  O     0.15028   0.83334   0.68388   0.00000  Uiso   1.00
O1278  O     0.09930   0.86444   0.62477   0.00000  Uiso   1.00
Zn1279 Zn    0.11562   0.83334   0.75000   0.00000  Uiso   1.00
Zn1280 Zn    0.21771   0.83333   0.75000   0.00000  Uiso   1.00
C1281  C     0.50202   0.91299   0.74434   0.00000  Uiso   1.00
C1282  C     0.46007   0.98000   0.74520   0.00000  Uiso   1.00
C1283  C     0.49697   0.70857   0.76008   0.00000  Uiso   1.00
C1284  C     0.50403   0.95757   0.73752   0.00000  Uiso   1.00
C1285  C     0.65441   0.80539   0.72218   0.00000  Uiso   1.00
C1286  C     0.34616   0.86202   0.77688   0.00000  Uiso   1.00
C1287  C     0.36925   0.80543   0.72185   0.00000  Uiso   1.00
C1288  C     0.63157   0.86295   0.77625   0.00000  Uiso   1.00
C1289  C     0.46904   0.83066   0.83798   0.00000  Uiso   1.00
C1290  C     0.53093   0.83642   0.66212   0.00000  Uiso   1.00
C1291  C     0.44895   0.82691   0.88916   0.00000  Uiso   1.00
C1292  C     0.49829   0.75346   0.75494   0.00000  Uiso   1.00
C1293  C     0.55111   0.84120   0.61112   0.00000  Uiso   1.00
C1294  C     0.39349   0.86022   0.96135   0.00000  Uiso   1.00
C1295  C     0.60766   0.80975   0.53835   0.00000  Uiso   1.00
C1296  C     0.40161   0.84292   0.91761   0.00000  Uiso   1.00
C1297  C     0.59885   0.82610   0.58257   0.00000  Uiso   1.00
C1298  C     0.48123   0.81469   0.91028   0.00000  Uiso   1.00
C1299  C     0.51893   0.85384   0.59007   0.00000  Uiso   1.00
C1300  C     0.47136   0.82959   0.95653   0.00000  Uiso   1.00
C1301  C     0.52957   0.83997   0.54329   0.00000  Uiso   1.00
C1302  C     0.43040   0.85753   0.97827   0.00000  Uiso   1.00
C1303  C     0.46563   0.88287   0.53074   0.00000  Uiso   1.00
C1304  C     0.57096   0.81252   0.52123   0.00000  Uiso   1.00
C1305  C     0.50243   0.82148   0.98059   0.00000  Uiso   1.00
C1306  C     0.49891   0.84838   0.51893   0.00000  Uiso   1.00
C1307  C     0.47292   0.87738   0.61978   0.00000  Uiso   1.00
C1308  C     0.52743   0.79120   0.88129   0.00000  Uiso   1.00
C1309  C     0.63925   0.82709   0.59715   0.00000  Uiso   1.00
C1310  C     0.36093   0.84182   0.90341   0.00000  Uiso   1.00
C1311  C     0.59693   0.95897   0.71121   0.00000  Uiso   1.00
C1312  C     0.40438   0.70744   0.78893   0.00000  Uiso   1.00
C1313  C     0.57928   0.70346   0.76451   0.00000  Uiso   1.00
C1314  C     0.53615   0.78722   0.96857   0.00000  Uiso   1.00
C1315  C     0.42336   0.96260   0.73045   0.00000  Uiso   1.00
C1316  C     0.64235   0.77588   0.69282   0.00000  Uiso   1.00
C1317  C     0.35879   0.89108   0.80628   0.00000  Uiso   1.00
C1318  C     0.40664   0.77510   0.69066   0.00000  Uiso   1.00
C1319  C     0.59603   0.89700   0.80293   0.00000  Uiso   1.00
C1320  C     0.42850   0.88457   0.51456   0.00000  Uiso   1.00
C1321  C     0.57337   0.78582   0.98457   0.00000  Uiso   1.00
C1322  C     0.54652   0.97839   0.73489   0.00000  Uiso   1.00
C1323  C     0.45442   0.68770   0.76278   0.00000  Uiso   1.00
C1324  C     0.54117   0.68613   0.75177   0.00000  Uiso   1.00
H1325  H     0.40026   0.90906   0.52808   0.00000  Uiso   1.00
H1326  H     0.40012   0.73523   0.81106   0.00000  Uiso   1.00
H1327  H     0.41895   0.74901   0.70461   0.00000  Uiso   1.00
H1328  H     0.55752   0.89163   0.82106   0.00000  Uiso   1.00
H1329  H     0.60183   0.76150   0.97094   0.00000  Uiso   1.00
H1330  H     0.35930   0.87734   0.98130   0.00000  Uiso   1.00
H1331  H     0.64216   0.79313   0.51821   0.00000  Uiso   1.00
H1332  H     0.46728   0.90874   0.55289   0.00000  Uiso   1.00
H1333  H     0.53450   0.76093   0.94698   0.00000  Uiso   1.00
H1334  H     0.47502   0.90498   0.63984   0.00000  Uiso   1.00
H1335  H     0.56266   0.80207   0.87948   0.00000  Uiso   1.00
H1336  H     0.62700   0.96952   0.71986   0.00000  Uiso   1.00
N1337  N     0.38093   0.83334   0.75001   0.00000  Uiso   1.00
N1338  N     0.61907   0.83332   0.74999   0.00000  Uiso   1.00
N1339  N     0.33892   0.82853   0.60799   0.00000  Uiso   1.00
N1340  N     0.66104   0.84029   0.89288   0.00000  Uiso   1.00
N1341  N     0.60954   0.71687   0.77515   0.00000  Uiso   1.00
N1342  N     0.39426   0.94898   0.71827   0.00000  Uiso   1.00
N1343  N     0.63304   0.75206   0.66915   0.00000  Uiso   1.00
N1344  N     0.36861   0.91460   0.82988   0.00000  Uiso   1.00
O1345  O     0.46179   0.89442   0.75000   0.00000  Uiso   1.00
O1346  O     0.52615   0.75953   0.85912   0.00000  Uiso   1.00
O1347  O     0.60591   0.93235   0.67991   0.00000  Uiso   1.00
O1348  O     0.36725   0.69241   0.78779   0.00000  Uiso   1.00
O1349  O     0.42192   0.77779   0.64853   0.00000  Uiso   1.00
O1350  O     0.60974   0.93253   0.80474   0.00000  Uiso   1.00
O1351  O     0.53821   0.77225   0.74999   0.00000  Uiso   1.00
O1352  O     0.53823   0.89441   0.75000   0.00000  Uiso   1.00
O1353  O     0.46177   0.77226   0.75000   0.00000  Uiso   1.00
O1354  O     0.43994   0.83334   0.81612   0.00000  Uiso   1.00
O1355  O     0.56006   0.83333   0.68387   0.00000  Uiso   1.00
O1356  O     0.51639   0.83333   0.81612   0.00000  Uiso   1.00
O1357  O     0.48361   0.83334   0.68388   0.00000  Uiso   1.00
O1358  O     0.43263   0.86444   0.62477   0.00000  Uiso   1.00
Zn1359 Zn    0.44896   0.83334   0.75000   0.00000  Uiso   1.00
Zn1360 Zn    0.55104   0.83333   0.75000   0.00000  Uiso   1.00
C1361  C     0.83535   0.91299   0.74434   0.00000  Uiso   1.00
C1362  C     0.79341   0.98000   0.74520   0.00000  Uiso   1.00
C1363  C     0.83031   0.70857   0.76008   0.00000  Uiso   1.00
C1364  C     0.83736   0.95757   0.73752   0.00000  Uiso   1.00
C1365  C     0.98774   0.80539   0.72218   0.00000  Uiso   1.00
C1366  C     0.67950   0.86202   0.77688   0.00000  Uiso   1.00
C1367  C     0.70259   0.80543   0.72185   0.00000  Uiso   1.00
C1368  C     0.96491   0.86295   0.77625   0.00000  Uiso   1.00
C1369  C     0.80237   0.83066   0.83798   0.00000  Uiso   1.00
C1370  C     0.86426   0.83642   0.66212   0.00000  Uiso   1.00
C1371  C     0.78228   0.82691   0.88916   0.00000  Uiso   1.00
C1372  C     0.83162   0.75346   0.75494   0.00000  Uiso   1.00
C1373  C     0.88444   0.84120   0.61112   0.00000  Uiso   1.00
C1374  C     0.72682   0.86022   0.96135   0.00000  Uiso   1.00
C1375  C     0.94100   0.80975   0.53835   0.00000  Uiso   1.00
C1376  C     0.73494   0.84292   0.91761   0.00000  Uiso   1.00
C1377  C     0.93218   0.82610   0.58257   0.00000  Uiso   1.00
C1378  C     0.81457   0.81469   0.91028   0.00000  Uiso   1.00
C1379  C     0.85226   0.85384   0.59007   0.00000  Uiso   1.00
C1380  C     0.80469   0.82959   0.95653   0.00000  Uiso   1.00
C1381  C     0.86290   0.83997   0.54329   0.00000  Uiso   1.00
C1382  C     0.76373   0.85753   0.97827   0.00000  Uiso   1.00
C1383  C     0.79896   0.88287   0.53074   0.00000  Uiso   1.00
C1384  C     0.90429   0.81252   0.52123   0.00000  Uiso   1.00
C1385  C     0.83577   0.82148   0.98059   0.00000  Uiso   1.00
C1386  C     0.83225   0.84838   0.51893   0.00000  Uiso   1.00
C1387  C     0.80625   0.87738   0.61978   0.00000  Uiso   1.00
C1388  C     0.86076   0.79120   0.88129   0.00000  Uiso   1.00
C1389  C     0.97259   0.82709   0.59715   0.00000  Uiso   1.00
C1390  C     0.69426   0.84182   0.90341   0.00000  Uiso   1.00
C1391  C     0.93026   0.95897   0.71121   0.00000  Uiso   1.00
C1392  C     0.73771   0.70744   0.78893   0.00000  Uiso   1.00
C1393  C     0.91261   0.70346   0.76451   0.00000  Uiso   1.00
C1394  C     0.86948   0.78722   0.96857   0.00000  Uiso   1.00
C1395  C     0.75669   0.96260   0.73045   0.00000  Uiso   1.00
C1396  C     0.97568   0.77588   0.69282   0.00000  Uiso   1.00
C1397  C     0.69212   0.89108   0.80628   0.00000  Uiso   1.00
C1398  C     0.73998   0.77510   0.69066   0.00000  Uiso   1.00
C1399  C     0.92937   0.89700   0.80293   0.00000  Uiso   1.00
C1400  C     0.76184   0.88457   0.51456   0.00000  Uiso   1.00
C1401  C     0.90670   0.78582   0.98457   0.00000  Uiso   1.00
C1402  C     0.87985   0.97839   0.73489   0.00000  Uiso   1.00
C1403  C     0.78775   0.68770   0.76278   0.00000  Uiso   1.00
C1404  C     0.87450   0.68613   0.75177   0.00000  Uiso   1.00
H1405  H     0.73359   0.90906   0.52808   0.00000  Uiso   1.00
H1406  H     0.73346   0.73523   0.81106   0.00000  Uiso   1.00
H1407  H     0.75228   0.74901   0.70461   0.00000  Uiso   1.00
H1408  H     0.89085   0.89163   0.82106   0.00000  Uiso   1.00
H1409  H     0.93517   0.76150   0.97094   0.00000  Uiso   1.00
H1410  H     0.69264   0.87734   0.98130   0.00000  Uiso   1.00
H1411  H     0.97549   0.79313   0.51821   0.00000  Uiso   1.00
H1412  H     0.80061   0.90874   0.55289   0.00000  Uiso   1.00
H1413  H     0.86783   0.76093   0.94698   0.00000  Uiso   1.00
H1414  H     0.80835   0.90498   0.63984   0.00000  Uiso   1.00
H1415  H     0.89599   0.80207   0.87948   0.00000  Uiso   1.00
H1416  H     0.96033   0.96952   0.71986   0.00000  Uiso   1.00
N1417  N     0.71426   0.83334   0.75001   0.00000  Uiso   1.00
N1418  N     0.95241   0.83332   0.74999   0.00000  Uiso   1.00
N1419  N     0.67226   0.82853   0.60799   0.00000  Uiso   1.00
N1420  N     0.99438   0.84029   0.89288   0.00000  Uiso   1.00
N1421  N     0.94287   0.71687   0.77515   0.00000  Uiso   1.00
N1422  N     0.72760   0.94898   0.71827   0.00000  Uiso   1.00
N1423  N     0.96637   0.75206   0.66915   0.00000  Uiso   1.00
N1424  N     0.70194   0.91460   0.82988   0.00000  Uiso   1.00
O1425  O     0.79512   0.89442   0.75000   0.00000  Uiso   1.00
O1426  O     0.85948   0.75953   0.85912   0.00000  Uiso   1.00
O1427  O     0.93924   0.93235   0.67991   0.00000  Uiso   1.00
O1428  O     0.70059   0.69241   0.78779   0.00000  Uiso   1.00
O1429  O     0.75525   0.77779   0.64853   0.00000  Uiso   1.00
O1430  O     0.94307   0.93253   0.80474   0.00000  Uiso   1.00
O1431  O     0.87154   0.77225   0.74999   0.00000  Uiso   1.00
O1432  O     0.87157   0.89441   0.75000   0.00000  Uiso   1.00
O1433  O     0.79510   0.77226   0.75000   0.00000  Uiso   1.00
O1434  O     0.77328   0.83334   0.81612   0.00000  Uiso   1.00
O1435  O     0.89339   0.83333   0.68387   0.00000  Uiso   1.00
O1436  O     0.84972   0.83333   0.81612   0.00000  Uiso   1.00
O1437  O     0.81695   0.83334   0.68388   0.00000  Uiso   1.00
O1438  O     0.76597   0.86444   0.62477   0.00000  Uiso   1.00
Zn1439 Zn    0.78229   0.83334   0.75000   0.00000  Uiso   1.00
Zn1440 Zn    0.88438   0.83333   0.75000   0.00000  Uiso   1.00
loop_
_geom_bond_atom_site_label_1
_geom_bond_atom_site_label_2
_geom_bond_distance
_geom_bond_site_symmetry_2
_ccdc_geom_bond_type
C1     O65     1.291   .     A
C1     O72     1.296   .     A
C1     C4      1.450   .     S
C2     C35     1.452   .     S
C2     C4      1.409   .     A
C2     C283    1.391   .     S
C3     C43     1.410   .     A
C3     C12     1.452   .     S
C3     C44     1.412   .     A
C4     C42     1.408   .     A
C5     N58     1.363   .     A
C5     C36     1.443   .     S
C5     C87     1.424   .     S
C6     N57     1.360   .     A
C6     C37     1.443   .     S
C6     C168    1.428   1_455 S
C7     C38     1.475   .     S
C7     N57     1.378   .     A
C7     C165    1.424   1_455 S
C8     N58     1.384   .     A
C8     C39     1.486   .     S
C8     C86     1.428   .     S
C9     O76     1.300   .     A
C9     C11     1.483   .     S
C9     O74     1.300   .     A
C10    O75     1.300   .     A
C10    O77     1.300   .     A
C10    C13     1.482   .     S
C11    C18     1.420   .     A
C11    C16     1.409   .     A
C12    O73     1.296   .     A
C12    O71     1.291   .     A
C13    C19     1.420   .     A
C13    C17     1.409   .     A
C14    C16     1.389   .     A
C14    C22     1.395   .     A
C14    H50     1.086   .     S
C15    H51     1.086   .     S
C15    C24     1.394   .     A
C15    C17     1.387   .     A
C16    C30     1.442   .     S
C17    C29     1.442   .     S
C18    C28     1.485   .     S
C18    C20     1.424   .     A
C19    C21     1.426   .     A
C19    C27     1.488   .     S
C20    C25     1.429   .     A
C20    C22     1.419   .     A
C21    C26     1.428   .     A
C21    C24     1.419   .     A
C22    C760    1.390   .     S
C23    C40     1.384   .     A
C23    C26     1.409   .     A
C23    H52     1.078   .     S
C24    C761    1.388   1_554 S
C25    C34     1.411   .     A
C25    C746    1.424   .     S
C26    C745    1.424   1_554 S
C27    O78     1.221   .     D
C27    H54     1.085   .     S
C28    H55     1.086   .     S
C28    O66     1.221   .     D
C29    N139    1.157   .     S
C30    N220    1.157   1_455 S
C31    C42     1.495   .     S
C31    O67     1.222   .     D
C31    H56     1.084   .     S
C32    C43     1.499   .     S
C32    O68     1.220   .     D
C32    H46     1.085   .     S
C33    C44     1.451   .     S
C33    N61     1.157   .     T
C34    C41     1.382   .     A
C34    H53     1.077   .     S
C35    N62     1.158   .     T
C36    N63     1.158   .     T
C37    N64     1.158   .     T
C38    O69     1.220   .     D
C38    H47     1.080   .     S
C39    O70     1.221   .     D
C39    H48     1.074   .     S
C40    H45     1.084   .     S
C40    C742    1.390   1_554 S
C41    H49     1.084   .     S
C41    C744    1.388   .     S
C42    C284    1.385   .     S
C43    C482    1.391   1_545 S
C44    C522    1.385   1_545 S
N57    Zn79    2.016   .     S
N58    Zn80    2.016   .     S
N59    C189    1.157   1_455 S
N60    C110    1.157   .     S
O65    Zn79    1.999   .     S
O71    Zn80    1.999   .     S
O72    Zn80    1.989   .     S
O73    Zn79    1.989   .     S
O74    Zn79    1.981   .     S
O75    Zn80    1.981   .     S
O76    Zn80    1.913   .     S
O77    Zn79    1.913   .     S
C81    O145    1.291   .     A
C81    O152    1.296   .     A
C81    C84     1.450   .     S
C82    C115    1.452   .     S
C82    C84     1.409   .     A
C82    C363    1.391   .     S
C83    C123    1.410   .     A
C83    C92     1.452   .     S
C83    C124    1.412   .     A
C84    C122    1.408   .     A
C85    N138    1.363   .     A
C85    C116    1.443   .     S
C85    C167    1.424   .     S
C86    N137    1.360   .     A
C86    C117    1.443   .     S
C87    C118    1.475   .     S
C87    N137    1.378   .     A
C88    N138    1.384   .     A
C88    C119    1.486   .     S
C88    C166    1.428   .     S
C89    O156    1.300   .     A
C89    C91     1.483   .     S
C89    O154    1.300   .     A
C90    O155    1.300   .     A
C90    O157    1.300   .     A
C90    C93     1.482   .     S
C91    C98     1.420   .     A
C91    C96     1.409   .     A
C92    O153    1.296   .     A
C92    O151    1.291   .     A
C93    C99     1.420   .     A
C93    C97     1.409   .     A
C94    C96     1.389   .     A
C94    C102    1.395   .     A
C94    H130    1.086   .     S
C95    H131    1.086   .     S
C95    C104    1.394   .     A
C95    C97     1.387   .     A
C96    C110    1.442   .     S
C97    C109    1.442   .     S
C98    C108    1.485   .     S
C98    C100    1.424   .     A
C99    C101    1.426   .     A
C99    C107    1.488   .     S
C100   C105    1.429   .     A
C100   C102    1.419   .     A
C101   C106    1.428   .     A
C101   C104    1.419   .     A
C102   C840    1.390   .     S
C103   C120    1.384   .     A
C103   C106    1.409   .     A
C103   H132    1.078   .     S
C104   C841    1.388   1_554 S
C105   C114    1.411   .     A
C105   C826    1.424   .     S
C106   C825    1.424   1_554 S
C107   O158    1.221   .     D
C107   H134    1.085   .     S
C108   H135    1.086   .     S
C108   O146    1.221   .     D
C109   N219    1.157   .     S
C111   C122    1.495   .     S
C111   O147    1.222   .     D
C111   H136    1.084   .     S
C112   C123    1.499   .     S
C112   O148    1.220   .     D
C112   H126    1.085   .     S
C113   C124    1.451   .     S
C113   N141    1.157   .     T
C114   C121    1.382   .     A
C114   H133    1.077   .     S
C115   N142    1.158   .     T
C116   N143    1.158   .     T
C117   N144    1.158   .     T
C118   O149    1.220   .     D
C118   H127    1.080   .     S
C119   O150    1.221   .     D
C119   H128    1.074   .     S
C120   H125    1.084   .     S
C120   C822    1.390   1_554 S
C121   H129    1.084   .     S
C121   C824    1.388   .     S
C122   C364    1.385   .     S
C123   C562    1.391   1_545 S
C124   C602    1.385   1_545 S
N137   Zn159   2.016   .     S
N138   Zn160   2.016   .     S
N140   C190    1.157   .     S
O145   Zn159   1.999   .     S
O151   Zn160   1.999   .     S
O152   Zn160   1.989   .     S
O153   Zn159   1.989   .     S
O154   Zn159   1.981   .     S
O155   Zn160   1.981   .     S
O156   Zn160   1.913   .     S
O157   Zn159   1.913   .     S
C161   O225    1.291   .     A
C161   O232    1.296   .     A
C161   C164    1.450   .     S
C162   C195    1.452   .     S
C162   C164    1.409   .     A
C162   C443    1.391   .     S
C163   C203    1.410   .     A
C163   C172    1.452   .     S
C163   C204    1.412   .     A
C164   C202    1.408   .     A
C165   N218    1.363   .     A
C165   C196    1.443   .     S
C165   C7      1.424   1_655 S
C166   N217    1.360   .     A
C166   C197    1.443   .     S
C167   C198    1.475   .     S
C167   N217    1.378   .     A
C168   N218    1.384   .     A
C168   C199    1.486   .     S
C168   C6      1.428   1_655 S
C169   O236    1.300   .     A
C169   C171    1.483   .     S
C169   O234    1.300   .     A
C170   O235    1.300   .     A
C170   O237    1.300   .     A
C170   C173    1.482   .     S
C171   C178    1.420   .     A
C171   C176    1.409   .     A
C172   O233    1.296   .     A
C172   O231    1.291   .     A
C173   C179    1.420   .     A
C173   C177    1.409   .     A
C174   C176    1.389   .     A
C174   C182    1.395   .     A
C174   H210    1.086   .     S
C175   H211    1.086   .     S
C175   C184    1.394   .     A
C175   C177    1.387   .     A
C176   C190    1.442   .     S
C177   C189    1.442   .     S
C178   C188    1.485   .     S
C178   C180    1.424   .     A
C179   C181    1.426   .     A
C179   C187    1.488   .     S
C180   C185    1.429   .     A
C180   C182    1.419   .     A
C181   C186    1.428   .     A
C181   C184    1.419   .     A
C182   C920    1.390   .     S
C183   C200    1.384   .     A
C183   C186    1.409   .     A
C183   H212    1.078   .     S
C184   C921    1.388   1_554 S
C185   C194    1.411   .     A
C185   C906    1.424   .     S
C186   C905    1.424   1_554 S
C187   O238    1.221   .     D
C187   H214    1.085   .     S
C188   H215    1.086   .     S
C188   O226    1.221   .     D
C189   N59     1.157   1_655 S
C191   C202    1.495   .     S
C191   O227    1.222   .     D
C191   H216    1.084   .     S
C192   C203    1.499   .     S
C192   O228    1.220   .     D
C192   H206    1.085   .     S
C193   C204    1.451   .     S
C193   N221    1.157   .     T
C194   C201    1.382   .     A
C194   H213    1.077   .     S
C195   N222    1.158   .     T
C196   N223    1.158   .     T
C197   N224    1.158   .     T
C198   O229    1.220   .     D
C198   H207    1.080   .     S
C199   O230    1.221   .     D
C199   H208    1.074   .     S
C200   H205    1.084   .     S
C200   C902    1.390   1_554 S
C201   H209    1.084   .     S
C201   C904    1.388   .     S
C202   C444    1.385   .     S
C203   C642    1.391   1_545 S
C204   C682    1.385   1_545 S
N217   Zn239   2.016   .     S
N218   Zn240   2.016   .     S
N220   C30     1.157   1_655 S
O225   Zn239   1.999   .     S
O231   Zn240   1.999   .     S
O232   Zn240   1.989   .     S
O233   Zn239   1.989   .     S
O234   Zn239   1.981   .     S
O235   Zn240   1.981   .     S
O236   Zn240   1.913   .     S
O237   Zn239   1.913   .     S
C241   O305    1.291   .     A
C241   O312    1.296   .     A
C241   C244    1.450   .     S
C242   C275    1.452   .     S
C242   C244    1.409   .     A
C242   C523    1.391   .     S
C243   C283    1.410   .     A
C243   C252    1.452   .     S
C243   C284    1.412   .     A
C244   C282    1.408   .     A
C245   N298    1.363   .     A
C245   C276    1.443   .     S
C245   C327    1.424   .     S
C246   N297    1.360   .     A
C246   C277    1.443   .     S
C246   C408    1.428   1_455 S
C247   C278    1.475   .     S
C247   N297    1.378   .     A
C247   C405    1.424   1_455 S
C248   N298    1.384   .     A
C248   C279    1.486   .     S
C248   C326    1.428   .     S
C249   O316    1.300   .     A
C249   C251    1.483   .     S
C249   O314    1.300   .     A
C250   O315    1.300   .     A
C250   O317    1.300   .     A
C250   C253    1.482   .     S
C251   C258    1.420   .     A
C251   C256    1.409   .     A
C252   O313    1.296   .     A
C252   O311    1.291   .     A
C253   C259    1.420   .     A
C253   C257    1.409   .     A
C254   C256    1.389   .     A
C254   C262    1.395   .     A
C254   H290    1.086   .     S
C255   H291    1.086   .     S
C255   C264    1.394   .     A
C255   C257    1.387   .     A
C256   C270    1.442   .     S
C257   C269    1.442   .     S
C258   C268    1.485   .     S
C258   C260    1.424   .     A
C259   C261    1.426   .     A
C259   C267    1.488   .     S
C260   C265    1.429   .     A
C260   C262    1.419   .     A
C261   C266    1.428   .     A
C261   C264    1.419   .     A
C262   C1000   1.390   .     S
C263   C280    1.384   .     A
C263   C266    1.409   .     A
C263   H292    1.078   .     S
C264   C1001   1.388   1_554 S
C265   C274    1.411   .     A
C265   C986    1.424   .     S
C266   C985    1.424   1_554 S
C267   O318    1.221   .     D
C267   H294    1.085   .     S
C268   H295    1.086   .     S
C268   O306    1.221   .     D
C269   N379    1.157   .     S
C270   N460    1.157   1_455 S
C271   C282    1.495   .     S
C271   O307    1.222   .     D
C271   H296    1.084   .     S
C272   C283    1.499   .     S
C272   O308    1.220   .     D
C272   H286    1.085   .     S
C273   C284    1.451   .     S
C273   N301    1.157   .     T
C274   C281    1.382   .     A
C274   H293    1.077   .     S
C275   N302    1.158   .     T
C276   N303    1.158   .     T
C277   N304    1.158   .     T
C278   O309    1.220   .     D
C278   H287    1.080   .     S
C279   O310    1.221   .     D
C279   H288    1.074   .     S
C280   H285    1.084   .     S
C280   C982    1.390   1_554 S
C281   H289    1.084   .     S
C281   C984    1.388   .     S
C282   C524    1.385   .     S
N297   Zn319   2.016   .     S
N298   Zn320   2.016   .     S
N299   C429    1.157   1_455 S
N300   C350    1.157   .     S
O305   Zn319   1.999   .     S
O311   Zn320   1.999   .     S
O312   Zn320   1.989   .     S
O313   Zn319   1.989   .     S
O314   Zn319   1.981   .     S
O315   Zn320   1.981   .     S
O316   Zn320   1.913   .     S
O317   Zn319   1.913   .     S
C321   O385    1.291   .     A
C321   O392    1.296   .     A
C321   C324    1.450   .     S
C322   C355    1.452   .     S
C322   C324    1.409   .     A
C322   C603    1.391   .     S
C323   C363    1.410   .     A
C323   C332    1.452   .     S
C323   C364    1.412   .     A
C324   C362    1.408   .     A
C325   N378    1.363   .     A
C325   C356    1.443   .     S
C325   C407    1.424   .     S
C326   N377    1.360   .     A
C326   C357    1.443   .     S
C327   C358    1.475   .     S
C327   N377    1.378   .     A
C328   N378    1.384   .     A
C328   C359    1.486   .     S
C328   C406    1.428   .     S
C329   O396    1.300   .     A
C329   C331    1.483   .     S
C329   O394    1.300   .     A
C330   O395    1.300   .     A
C330   O397    1.300   .     A
C330   C333    1.482   .     S
C331   C338    1.420   .     A
C331   C336    1.409   .     A
C332   O393    1.296   .     A
C332   O391    1.291   .     A
C333   C339    1.420   .     A
C333   C337    1.409   .     A
C334   C336    1.389   .     A
C334   C342    1.395   .     A
C334   H370    1.086   .     S
C335   H371    1.086   .     S
C335   C344    1.394   .     A
C335   C337    1.387   .     A
C336   C350    1.442   .     S
C337   C349    1.442   .     S
C338   C348    1.485   .     S
C338   C340    1.424   .     A
C339   C341    1.426   .     A
C339   C347    1.488   .     S
C340   C345    1.429   .     A
C340   C342    1.419   .     A
C341   C346    1.428   .     A
C341   C344    1.419   .     A
C342   C1080   1.390   .     S
C343   C360    1.384   .     A
C343   C346    1.409   .     A
C343   H372    1.078   .     S
C344   C1081   1.388   1_554 S
C345   C354    1.411   .     A
C345   C1066   1.424   .     S
C346   C1065   1.424   1_554 S
C347   O398    1.221   .     D
C347   H374    1.085   .     S
C348   H375    1.086   .     S
C348   O386    1.221   .     D
C349   N459    1.157   .     S
C351   C362    1.495   .     S
C351   O387    1.222   .     D
C351   H376    1.084   .     S
C352   C363    1.499   .     S
C352   O388    1.220   .     D
C352   H366    1.085   .     S
C353   C364    1.451   .     S
C353   N381    1.157   .     T
C354   C361    1.382   .     A
C354   H373    1.077   .     S
C355   N382    1.158   .     T
C356   N383    1.158   .     T
C357   N384    1.158   .     T
C358   O389    1.220   .     D
C358   H367    1.080   .     S
C359   O390    1.221   .     D
C359   H368    1.074   .     S
C360   H365    1.084   .     S
C360   C1062   1.390   1_554 S
C361   H369    1.084   .     S
C361   C1064   1.388   .     S
C362   C604    1.385   .     S
N377   Zn399   2.016   .     S
N378   Zn400   2.016   .     S
N380   C430    1.157   .     S
O385   Zn399   1.999   .     S
O391   Zn400   1.999   .     S
O392   Zn400   1.989   .     S
O393   Zn399   1.989   .     S
O394   Zn399   1.981   .     S
O395   Zn400   1.981   .     S
O396   Zn400   1.913   .     S
O397   Zn399   1.913   .     S
C401   O465    1.291   .     A
C401   O472    1.296   .     A
C401   C404    1.450   .     S
C402   C435    1.452   .     S
C402   C404    1.409   .     A
C402   C683    1.391   .     S
C403   C443    1.410   .     A
C403   C412    1.452   .     S
C403   C444    1.412   .     A
C404   C442    1.408   .     A
C405   N458    1.363   .     A
C405   C436    1.443   .     S
C405   C247    1.424   1_655 S
C406   N457    1.360   .     A
C406   C437    1.443   .     S
C407   C438    1.475   .     S
C407   N457    1.378   .     A
C408   N458    1.384   .     A
C408   C439    1.486   .     S
C408   C246    1.428   1_655 S
C409   O476    1.300   .     A
C409   C411    1.483   .     S
C409   O474    1.300   .     A
C410   O475    1.300   .     A
C410   O477    1.300   .     A
C410   C413    1.482   .     S
C411   C418    1.420   .     A
C411   C416    1.409   .     A
C412   O473    1.296   .     A
C412   O471    1.291   .     A
C413   C419    1.420   .     A
C413   C417    1.409   .     A
C414   C416    1.389   .     A
C414   C422    1.395   .     A
C414   H450    1.086   .     S
C415   H451    1.086   .     S
C415   C424    1.394   .     A
C415   C417    1.387   .     A
C416   C430    1.442   .     S
C417   C429    1.442   .     S
C418   C428    1.485   .     S
C418   C420    1.424   .     A
C419   C421    1.426   .     A
C419   C427    1.488   .     S
C420   C425    1.429   .     A
C420   C422    1.419   .     A
C421   C426    1.428   .     A
C421   C424    1.419   .     A
C422   C1160   1.390   .     S
C423   C440    1.384   .     A
C423   C426    1.409   .     A
C423   H452    1.078   .     S
C424   C1161   1.388   1_554 S
C425   C434    1.411   .     A
C425   C1146   1.424   .     S
C426   C1145   1.424   1_554 S
C427   O478    1.221   .     D
C427   H454    1.085   .     S
C428   H455    1.086   .     S
C428   O466    1.221   .     D
C429   N299    1.157   1_655 S
C431   C442    1.495   .     S
C431   O467    1.222   .     D
C431   H456    1.084   .     S
C432   C443    1.499   .     S
C432   O468    1.220   .     D
C432   H446    1.085   .     S
C433   C444    1.451   .     S
C433   N461    1.157   .     T
C434   C441    1.382   .     A
C434   H453    1.077   .     S
C435   N462    1.158   .     T
C436   N463    1.158   .     T
C437   N464    1.158   .     T
C438   O469    1.220   .     D
C438   H447    1.080   .     S
C439   O470    1.221   .     D
C439   H448    1.074   .     S
C440   H445    1.084   .     S
C440   C1142   1.390   1_554 S
C441   H449    1.084   .     S
C441   C1144   1.388   .     S
C442   C684    1.385   .     S
N457   Zn479   2.016   .     S
N458   Zn480   2.016   .     S
N460   C270    1.157   1_655 S
O465   Zn479   1.999   .     S
O471   Zn480   1.999   .     S
O472   Zn480   1.989   .     S
O473   Zn479   1.989   .     S
O474   Zn479   1.981   .     S
O475   Zn480   1.981   .     S
O476   Zn480   1.913   .     S
O477   Zn479   1.913   .     S
C481   O545    1.291   .     A
C481   O552    1.296   .     A
C481   C484    1.450   .     S
C482   C515    1.452   .     S
C482   C484    1.409   .     A
C482   C43     1.391   1_565 S
C483   C523    1.410   .     A
C483   C492    1.452   .     S
C483   C524    1.412   .     A
C484   C522    1.408   .     A
C485   N538    1.363   .     A
C485   C516    1.443   .     S
C485   C567    1.424   .     S
C486   N537    1.360   .     A
C486   C517    1.443   .     S
C486   C648    1.428   1_455 S
C487   C518    1.475   .     S
C487   N537    1.378   .     A
C487   C645    1.424   1_455 S
C488   N538    1.384   .     A
C488   C519    1.486   .     S
C488   C566    1.428   .     S
C489   O556    1.300   .     A
C489   C491    1.483   .     S
C489   O554    1.300   .     A
C490   O555    1.300   .     A
C490   O557    1.300   .     A
C490   C493    1.482   .     S
C491   C498    1.420   .     A
C491   C496    1.409   .     A
C492   O553    1.296   .     A
C492   O551    1.291   .     A
C493   C499    1.420   .     A
C493   C497    1.409   .     A
C494   C496    1.389   .     A
C494   C502    1.395   .     A
C494   H530    1.086   .     S
C495   H531    1.086   .     S
C495   C504    1.394   .     A
C495   C497    1.387   .     A
C496   C510    1.442   .     S
C497   C509    1.442   .     S
C498   C508    1.485   .     S
C498   C500    1.424   .     A
C499   C501    1.426   .     A
C499   C507    1.488   .     S
C500   C505    1.429   .     A
C500   C502    1.419   .     A
C501   C506    1.428   .     A
C501   C504    1.419   .     A
C502   C1240   1.390   .     S
C503   C520    1.384   .     A
C503   C506    1.409   .     A
C503   H532    1.078   .     S
C504   C1241   1.388   1_554 S
C505   C514    1.411   .     A
C505   C1226   1.424   .     S
C506   C1225   1.424   1_554 S
C507   O558    1.221   .     D
C507   H534    1.085   .     S
C508   H535    1.086   .     S
C508   O546    1.221   .     D
C509   N619    1.157   .     S
C510   N700    1.157   1_455 S
C511   C522    1.495   .     S
C511   O547    1.222   .     D
C511   H536    1.084   .     S
C512   C523    1.499   .     S
C512   O548    1.220   .     D
C512   H526    1.085   .     S
C513   C524    1.451   .     S
C513   N541    1.157   .     T
C514   C521    1.382   .     A
C514   H533    1.077   .     S
C515   N542    1.158   .     T
C516   N543    1.158   .     T
C517   N544    1.158   .     T
C518   O549    1.220   .     D
C518   H527    1.080   .     S
C519   O550    1.221   .     D
C519   H528    1.074   .     S
C520   H525    1.084   .     S
C520   C1222   1.390   1_554 S
C521   H529    1.084   .     S
C521   C1224   1.388   .     S
C522   C44     1.385   1_565 S
N537   Zn559   2.016   .     S
N538   Zn560   2.016   .     S
N539   C669    1.157   1_455 S
N540   C590    1.157   .     S
O545   Zn559   1.999   .     S
O551   Zn560   1.999   .     S
O552   Zn560   1.989   .     S
O553   Zn559   1.989   .     S
O554   Zn559   1.981   .     S
O555   Zn560   1.981   .     S
O556   Zn560   1.913   .     S
O557   Zn559   1.913   .     S
C561   O625    1.291   .     A
C561   O632    1.296   .     A
C561   C564    1.450   .     S
C562   C595    1.452   .     S
C562   C564    1.409   .     A
C562   C123    1.391   1_565 S
C563   C603    1.410   .     A
C563   C572    1.452   .     S
C563   C604    1.412   .     A
C564   C602    1.408   .     A
C565   N618    1.363   .     A
C565   C596    1.443   .     S
C565   C647    1.424   .     S
C566   N617    1.360   .     A
C566   C597    1.443   .     S
C567   C598    1.475   .     S
C567   N617    1.378   .     A
C568   N618    1.384   .     A
C568   C599    1.486   .     S
C568   C646    1.428   .     S
C569   O636    1.300   .     A
C569   C571    1.483   .     S
C569   O634    1.300   .     A
C570   O635    1.300   .     A
C570   O637    1.300   .     A
C570   C573    1.482   .     S
C571   C578    1.420   .     A
C571   C576    1.409   .     A
C572   O633    1.296   .     A
C572   O631    1.291   .     A
C573   C579    1.420   .     A
C573   C577    1.409   .     A
C574   C576    1.389   .     A
C574   C582    1.395   .     A
C574   H610    1.086   .     S
C575   H611    1.086   .     S
C575   C584    1.394   .     A
C575   C577    1.387   .     A
C576   C590    1.442   .     S
C577   C589    1.442   .     S
C578   C588    1.485   .     S
C578   C580    1.424   .     A
C579   C581    1.426   .     A
C579   C587    1.488   .     S
C580   C585    1.429   .     A
C580   C582    1.419   .     A
C581   C586    1.428   .     A
C581   C584    1.419   .     A
C582   C1320   1.390   .     S
C583   C600    1.384   .     A
C583   C586    1.409   .     A
C583   H612    1.078   .     S
C584   C1321   1.388   1_554 S
C585   C594    1.411   .     A
C585   C1306   1.424   .     S
C586   C1305   1.424   1_554 S
C587   O638    1.221   .     D
C587   H614    1.085   .     S
C588   H615    1.086   .     S
C588   O626    1.221   .     D
C589   N699    1.157   .     S
C591   C602    1.495   .     S
C591   O627    1.222   .     D
C591   H616    1.084   .     S
C592   C603    1.499   .     S
C592   O628    1.220   .     D
C592   H606    1.085   .     S
C593   C604    1.451   .     S
C593   N621    1.157   .     T
C594   C601    1.382   .     A
C594   H613    1.077   .     S
C595   N622    1.158   .     T
C596   N623    1.158   .     T
C597   N624    1.158   .     T
C598   O629    1.220   .     D
C598   H607    1.080   .     S
C599   O630    1.221   .     D
C599   H608    1.074   .     S
C600   H605    1.084   .     S
C600   C1302   1.390   1_554 S
C601   H609    1.084   .     S
C601   C1304   1.388   .     S
C602   C124    1.385   1_565 S
N617   Zn639   2.016   .     S
N618   Zn640   2.016   .     S
N620   C670    1.157   .     S
O625   Zn639   1.999   .     S
O631   Zn640   1.999   .     S
O632   Zn640   1.989   .     S
O633   Zn639   1.989   .     S
O634   Zn639   1.981   .     S
O635   Zn640   1.981   .     S
O636   Zn640   1.913   .     S
O637   Zn639   1.913   .     S
C641   O705    1.291   .     A
C641   O712    1.296   .     A
C641   C644    1.450   .     S
C642   C675    1.452   .     S
C642   C644    1.409   .     A
C642   C203    1.391   1_565 S
C643   C683    1.410   .     A
C643   C652    1.452   .     S
C643   C684    1.412   .     A
C644   C682    1.408   .     A
C645   N698    1.363   .     A
C645   C676    1.443   .     S
C645   C487    1.424   1_655 S
C646   N697    1.360   .     A
C646   C677    1.443   .     S
C647   C678    1.475   .     S
C647   N697    1.378   .     A
C648   N698    1.384   .     A
C648   C679    1.486   .     S
C648   C486    1.428   1_655 S
C649   O716    1.300   .     A
C649   C651    1.483   .     S
C649   O714    1.300   .     A
C650   O715    1.300   .     A
C650   O717    1.300   .     A
C650   C653    1.482   .     S
C651   C658    1.420   .     A
C651   C656    1.409   .     A
C652   O713    1.296   .     A
C652   O711    1.291   .     A
C653   C659    1.420   .     A
C653   C657    1.409   .     A
C654   C656    1.389   .     A
C654   C662    1.395   .     A
C654   H690    1.086   .     S
C655   H691    1.086   .     S
C655   C664    1.394   .     A
C655   C657    1.387   .     A
C656   C670    1.442   .     S
C657   C669    1.442   .     S
C658   C668    1.485   .     S
C658   C660    1.424   .     A
C659   C661    1.426   .     A
C659   C667    1.488   .     S
C660   C665    1.429   .     A
C660   C662    1.419   .     A
C661   C666    1.428   .     A
C661   C664    1.419   .     A
C662   C1400   1.390   .     S
C663   C680    1.384   .     A
C663   C666    1.409   .     A
C663   H692    1.078   .     S
C664   C1401   1.388   1_554 S
C665   C674    1.411   .     A
C665   C1386   1.424   .     S
C666   C1385   1.424   1_554 S
C667   O718    1.221   .     D
C667   H694    1.085   .     S
C668   H695    1.086   .     S
C668   O706    1.221   .     D
C669   N539    1.157   1_655 S
C671   C682    1.495   .     S
C671   O707    1.222   .     D
C671   H696    1.084   .     S
C672   C683    1.499   .     S
C672   O708    1.220   .     D
C672   H686    1.085   .     S
C673   C684    1.451   .     S
C673   N701    1.157   .     T
C674   C681    1.382   .     A
C674   H693    1.077   .     S
C675   N702    1.158   .     T
C676   N703    1.158   .     T
C677   N704    1.158   .     T
C678   O709    1.220   .     D
C678   H687    1.080   .     S
C679   O710    1.221   .     D
C679   H688    1.074   .     S
C680   H685    1.084   .     S
C680   C1382   1.390   1_554 S
C681   H689    1.084   .     S
C681   C1384   1.388   .     S
C682   C204    1.385   1_565 S
N697   Zn719   2.016   .     S
N698   Zn720   2.016   .     S
N700   C510    1.157   1_655 S
O705   Zn719   1.999   .     S
O711   Zn720   1.999   .     S
O712   Zn720   1.989   .     S
O713   Zn719   1.989   .     S
O714   Zn719   1.981   .     S
O715   Zn720   1.981   .     S
O716   Zn720   1.913   .     S
O717   Zn719   1.913   .     S
C721   O785    1.291   .     A
C721   O792    1.296   .     A
C721   C724    1.450   .     S
C722   C755    1.452   .     S
C722   C724    1.409   .     A
C722   C1003   1.391   .     S
C723   C763    1.410   .     A
C723   C732    1.452   .     S
C723   C764    1.412   .     A
C724   C762    1.408   .     A
C725   N778    1.363   .     A
C725   C756    1.443   .     S
C725   C807    1.424   .     S
C726   N777    1.360   .     A
C726   C757    1.443   .     S
C726   C888    1.428   1_455 S
C727   C758    1.475   .     S
C727   N777    1.378   .     A
C727   C885    1.424   1_455 S
C728   N778    1.384   .     A
C728   C759    1.486   .     S
C728   C806    1.428   .     S
C729   O796    1.300   .     A
C729   C731    1.483   .     S
C729   O794    1.300   .     A
C730   O795    1.300   .     A
C730   O797    1.300   .     A
C730   C733    1.482   .     S
C731   C738    1.420   .     A
C731   C736    1.409   .     A
C732   O793    1.296   .     A
C732   O791    1.291   .     A
C733   C739    1.420   .     A
C733   C737    1.409   .     A
C734   C736    1.389   .     A
C734   C742    1.395   .     A
C734   H770    1.086   .     S
C735   H771    1.086   .     S
C735   C744    1.394   .     A
C735   C737    1.387   .     A
C736   C750    1.442   .     S
C737   C749    1.442   .     S
C738   C748    1.485   .     S
C738   C740    1.424   .     A
C739   C741    1.426   .     A
C739   C747    1.488   .     S
C740   C745    1.429   .     A
C740   C742    1.419   .     A
C741   C746    1.428   .     A
C741   C744    1.419   .     A
C742   C40     1.390   1_556 S
C743   C760    1.384   .     A
C743   C746    1.409   .     A
C743   H772    1.078   .     S
C745   C754    1.411   .     A
C745   C26     1.424   1_556 S
C747   O798    1.221   .     D
C747   H774    1.085   .     S
C748   H775    1.086   .     S
C748   O786    1.221   .     D
C749   N859    1.157   .     S
C750   N940    1.157   1_455 S
C751   C762    1.495   .     S
C751   O787    1.222   .     D
C751   H776    1.084   .     S
C752   C763    1.499   .     S
C752   O788    1.220   .     D
C752   H766    1.085   .     S
C753   C764    1.451   .     S
C753   N781    1.157   .     T
C754   C761    1.382   .     A
C754   H773    1.077   .     S
C755   N782    1.158   .     T
C756   N783    1.158   .     T
C757   N784    1.158   .     T
C758   O789    1.220   .     D
C758   H767    1.080   .     S
C759   O790    1.221   .     D
C759   H768    1.074   .     S
C760   H765    1.084   .     S
C761   H769    1.084   .     S
C761   C24     1.388   1_556 S
C762   C1004   1.385   .     S
C763   C1202   1.391   1_545 S
C764   C1242   1.385   1_545 S
N777   Zn799   2.016   .     S
N778   Zn800   2.016   .     S
N779   C909    1.157   1_455 S
N780   C830    1.157   .     S
O785   Zn799   1.999   .     S
O791   Zn800   1.999   .     S
O792   Zn800   1.989   .     S
O793   Zn799   1.989   .     S
O794   Zn799   1.981   .     S
O795   Zn800   1.981   .     S
O796   Zn800   1.913   .     S
O797   Zn799   1.913   .     S
C801   O865    1.291   .     A
C801   O872    1.296   .     A
C801   C804    1.450   .     S
C802   C835    1.452   .     S
C802   C804    1.409   .     A
C802   C1083   1.391   .     S
C803   C843    1.410   .     A
C803   C812    1.452   .     S
C803   C844    1.412   .     A
C804   C842    1.408   .     A
C805   N858    1.363   .     A
C805   C836    1.443   .     S
C805   C887    1.424   .     S
C806   N857    1.360   .     A
C806   C837    1.443   .     S
C807   C838    1.475   .     S
C807   N857    1.378   .     A
C808   N858    1.384   .     A
C808   C839    1.486   .     S
C808   C886    1.428   .     S
C809   O876    1.300   .     A
C809   C811    1.483   .     S
C809   O874    1.300   .     A
C810   O875    1.300   .     A
C810   O877    1.300   .     A
C810   C813    1.482   .     S
C811   C818    1.420   .     A
C811   C816    1.409   .     A
C812   O873    1.296   .     A
C812   O871    1.291   .     A
C813   C819    1.420   .     A
C813   C817    1.409   .     A
C814   C816    1.389   .     A
C814   C822    1.395   .     A
C814   H850    1.086   .     S
C815   H851    1.086   .     S
C815   C824    1.394   .     A
C815   C817    1.387   .     A
C816   C830    1.442   .     S
C817   C829    1.442   .     S
C818   C828    1.485   .     S
C818   C820    1.424   .     A
C819   C821    1.426   .     A
C819   C827    1.488   .     S
C820   C825    1.429   .     A
C820   C822    1.419   .     A
C821   C826    1.428   .     A
C821   C824    1.419   .     A
C822   C120    1.390   1_556 S
C823   C840    1.384   .     A
C823   C826    1.409   .     A
C823   H852    1.078   .     S
C825   C834    1.411   .     A
C825   C106    1.424   1_556 S
C827   O878    1.221   .     D
C827   H854    1.085   .     S
C828   H855    1.086   .     S
C828   O866    1.221   .     D
C829   N939    1.157   .     S
C831   C842    1.495   .     S
C831   O867    1.222   .     D
C831   H856    1.084   .     S
C832   C843    1.499   .     S
C832   O868    1.220   .     D
C832   H846    1.085   .     S
C833   C844    1.451   .     S
C833   N861    1.157   .     T
C834   C841    1.382   .     A
C834   H853    1.077   .     S
C835   N862    1.158   .     T
C836   N863    1.158   .     T
C837   N864    1.158   .     T
C838   O869    1.220   .     D
C838   H847    1.080   .     S
C839   O870    1.221   .     D
C839   H848    1.074   .     S
C840   H845    1.084   .     S
C841   H849    1.084   .     S
C841   C104    1.388   1_556 S
C842   C1084   1.385   .     S
C843   C1282   1.391   1_545 S
C844   C1322   1.385   1_545 S
N857   Zn879   2.016   .     S
N858   Zn880   2.016   .     S
N860   C910    1.157   .     S
O865   Zn879   1.999   .     S
O871   Zn880   1.999   .     S
O872   Zn880   1.989   .     S
O873   Zn879   1.989   .     S
O874   Zn879   1.981   .     S
O875   Zn880   1.981   .     S
O876   Zn880   1.913   .     S
O877   Zn879   1.913   .     S
C881   O945    1.291   .     A
C881   O952    1.296   .     A
C881   C884    1.450   .     S
C882   C915    1.452   .     S
C882   C884    1.409   .     A
C882   C1163   1.391   .     S
C883   C923    1.410   .     A
C883   C892    1.452   .     S
C883   C924    1.412   .     A
C884   C922    1.408   .     A
C885   N938    1.363   .     A
C885   C916    1.443   .     S
C885   C727    1.424   1_655 S
C886   N937    1.360   .     A
C886   C917    1.443   .     S
C887   C918    1.475   .     S
C887   N937    1.378   .     A
C888   N938    1.384   .     A
C888   C919    1.486   .     S
C888   C726    1.428   1_655 S
C889   O956    1.300   .     A
C889   C891    1.483   .     S
C889   O954    1.300   .     A
C890   O955    1.300   .     A
C890   O957    1.300   .     A
C890   C893    1.482   .     S
C891   C898    1.420   .     A
C891   C896    1.409   .     A
C892   O953    1.296   .     A
C892   O951    1.291   .     A
C893   C899    1.420   .     A
C893   C897    1.409   .     A
C894   C896    1.389   .     A
C894   C902    1.395   .     A
C894   H930    1.086   .     S
C895   H931    1.086   .     S
C895   C904    1.394   .     A
C895   C897    1.387   .     A
C896   C910    1.442   .     S
C897   C909    1.442   .     S
C898   C908    1.485   .     S
C898   C900    1.424   .     A
C899   C901    1.426   .     A
C899   C907    1.488   .     S
C900   C905    1.429   .     A
C900   C902    1.419   .     A
C901   C906    1.428   .     A
C901   C904    1.419   .     A
C902   C200    1.390   1_556 S
C903   C920    1.384   .     A
C903   C906    1.409   .     A
C903   H932    1.078   .     S
C905   C914    1.411   .     A
C905   C186    1.424   1_556 S
C907   O958    1.221   .     D
C907   H934    1.085   .     S
C908   H935    1.086   .     S
C908   O946    1.221   .     D
C909   N779    1.157   1_655 S
C911   C922    1.495   .     S
C911   O947    1.222   .     D
C911   H936    1.084   .     S
C912   C923    1.499   .     S
C912   O948    1.220   .     D
C912   H926    1.085   .     S
C913   C924    1.451   .     S
C913   N941    1.157   .     T
C914   C921    1.382   .     A
C914   H933    1.077   .     S
C915   N942    1.158   .     T
C916   N943    1.158   .     T
C917   N944    1.158   .     T
C918   O949    1.220   .     D
C918   H927    1.080   .     S
C919   O950    1.221   .     D
C919   H928    1.074   .     S
C920   H925    1.084   .     S
C921   H929    1.084   .     S
C921   C184    1.388   1_556 S
C922   C1164   1.385   .     S
C923   C1362   1.391   1_545 S
C924   C1402   1.385   1_545 S
N937   Zn959   2.016   .     S
N938   Zn960   2.016   .     S
N940   C750    1.157   1_655 S
O945   Zn959   1.999   .     S
O951   Zn960   1.999   .     S
O952   Zn960   1.989   .     S
O953   Zn959   1.989   .     S
O954   Zn959   1.981   .     S
O955   Zn960   1.981   .     S
O956   Zn960   1.913   .     S
O957   Zn959   1.913   .     S
C961   O1025   1.291   .     A
C961   O1032   1.296   .     A
C961   C964    1.450   .     S
C962   C995    1.452   .     S
C962   C964    1.409   .     A
C962   C1243   1.391   .     S
C963   C1003   1.410   .     A
C963   C972    1.452   .     S
C963   C1004   1.412   .     A
C964   C1002   1.408   .     A
C965   N1018   1.363   .     A
C965   C996    1.443   .     S
C965   C1047   1.424   .     S
C966   N1017   1.360   .     A
C966   C997    1.443   .     S
C966   C1128   1.428   1_455 S
C967   C998    1.475   .     S
C967   N1017   1.378   .     A
C967   C1125   1.424   1_455 S
C968   N1018   1.384   .     A
C968   C999    1.486   .     S
C968   C1046   1.428   .     S
C969   O1036   1.300   .     A
C969   C971    1.483   .     S
C969   O1034   1.300   .     A
C970   O1035   1.300   .     A
C970   O1037   1.300   .     A
C970   C973    1.482   .     S
C971   C978    1.420   .     A
C971   C976    1.409   .     A
C972   O1033   1.296   .     A
C972   O1031   1.291   .     A
C973   C979    1.420   .     A
C973   C977    1.409   .     A
C974   C976    1.389   .     A
C974   C982    1.395   .     A
C974   H1010   1.086   .     S
C975   H1011   1.086   .     S
C975   C984    1.394   .     A
C975   C977    1.387   .     A
C976   C990    1.442   .     S
C977   C989    1.442   .     S
C978   C988    1.485   .     S
C978   C980    1.424   .     A
C979   C981    1.426   .     A
C979   C987    1.488   .     S
C980   C985    1.429   .     A
C980   C982    1.419   .     A
C981   C986    1.428   .     A
C981   C984    1.419   .     A
C982   C280    1.390   1_556 S
C983   C1000   1.384   .     A
C983   C986    1.409   .     A
C983   H1012   1.078   .     S
C985   C994    1.411   .     A
C985   C266    1.424   1_556 S
C987   O1038   1.221   .     D
C987   H1014   1.085   .     S
C988   H1015   1.086   .     S
C988   O1026   1.221   .     D
C989   N1099   1.157   .     S
C990   N1180   1.157   1_455 S
C991   C1002   1.495   .     S
C991   O1027   1.222   .     D
C991   H1016   1.084   .     S
C992   C1003   1.499   .     S
C992   O1028   1.220   .     D
C992   H1006   1.085   .     S
C993   C1004   1.451   .     S
C993   N1021   1.157   .     T
C994   C1001   1.382   .     A
C994   H1013   1.077   .     S
C995   N1022   1.158   .     T
C996   N1023   1.158   .     T
C997   N1024   1.158   .     T
C998   O1029   1.220   .     D
C998   H1007   1.080   .     S
C999   O1030   1.221   .     D
C999   H1008   1.074   .     S
C1000  H1005   1.084   .     S
C1001  H1009   1.084   .     S
C1001  C264    1.388   1_556 S
C1002  C1244   1.385   .     S
N1017  Zn1039  2.016   .     S
N1018  Zn1040  2.016   .     S
N1019  C1149   1.157   1_455 S
N1020  C1070   1.157   .     S
O1025  Zn1039  1.999   .     S
O1031  Zn1040  1.999   .     S
O1032  Zn1040  1.989   .     S
O1033  Zn1039  1.989   .     S
O1034  Zn1039  1.981   .     S
O1035  Zn1040  1.981   .     S
O1036  Zn1040  1.913   .     S
O1037  Zn1039  1.913   .     S
C1041  O1105   1.291   .     A
C1041  O1112   1.296   .     A
C1041  C1044   1.450   .     S
C1042  C1075   1.452   .     S
C1042  C1044   1.409   .     A
C1042  C1323   1.391   .     S
C1043  C1083   1.410   .     A
C1043  C1052   1.452   .     S
C1043  C1084   1.412   .     A
C1044  C1082   1.408   .     A
C1045  N1098   1.363   .     A
C1045  C1076   1.443   .     S
C1045  C1127   1.424   .     S
C1046  N1097   1.360   .     A
C1046  C1077   1.443   .     S
C1047  C1078   1.475   .     S
C1047  N1097   1.378   .     A
C1048  N1098   1.384   .     A
C1048  C1079   1.486   .     S
C1048  C1126   1.428   .     S
C1049  O1116   1.300   .     A
C1049  C1051   1.483   .     S
C1049  O1114   1.300   .     A
C1050  O1115   1.300   .     A
C1050  O1117   1.300   .     A
C1050  C1053   1.482   .     S
C1051  C1058   1.420   .     A
C1051  C1056   1.409   .     A
C1052  O1113   1.296   .     A
C1052  O1111   1.291   .     A
C1053  C1059   1.420   .     A
C1053  C1057   1.409   .     A
C1054  C1056   1.389   .     A
C1054  C1062   1.395   .     A
C1054  H1090   1.086   .     S
C1055  H1091   1.086   .     S
C1055  C1064   1.394   .     A
C1055  C1057   1.387   .     A
C1056  C1070   1.442   .     S
C1057  C1069   1.442   .     S
C1058  C1068   1.485   .     S
C1058  C1060   1.424   .     A
C1059  C1061   1.426   .     A
C1059  C1067   1.488   .     S
C1060  C1065   1.429   .     A
C1060  C1062   1.419   .     A
C1061  C1066   1.428   .     A
C1061  C1064   1.419   .     A
C1062  C360    1.390   1_556 S
C1063  C1080   1.384   .     A
C1063  C1066   1.409   .     A
C1063  H1092   1.078   .     S
C1065  C1074   1.411   .     A
C1065  C346    1.424   1_556 S
C1067  O1118   1.221   .     D
C1067  H1094   1.085   .     S
C1068  H1095   1.086   .     S
C1068  O1106   1.221   .     D
C1069  N1179   1.157   .     S
C1071  C1082   1.495   .     S
C1071  O1107   1.222   .     D
C1071  H1096   1.084   .     S
C1072  C1083   1.499   .     S
C1072  O1108   1.220   .     D
C1072  H1086   1.085   .     S
C1073  C1084   1.451   .     S
C1073  N1101   1.157   .     T
C1074  C1081   1.382   .     A
C1074  H1093   1.077   .     S
C1075  N1102   1.158   .     T
C1076  N1103   1.158   .     T
C1077  N1104   1.158   .     T
C1078  O1109   1.220   .     D
C1078  H1087   1.080   .     S
C1079  O1110   1.221   .     D
C1079  H1088   1.074   .     S
C1080  H1085   1.084   .     S
C1081  H1089   1.084   .     S
C1081  C344    1.388   1_556 S
C1082  C1324   1.385   .     S
N1097  Zn1119  2.016   .     S
N1098  Zn1120  2.016   .     S
N1100  C1150   1.157   .     S
O1105  Zn1119  1.999   .     S
O1111  Zn1120  1.999   .     S
O1112  Zn1120  1.989   .     S
O1113  Zn1119  1.989   .     S
O1114  Zn1119  1.981   .     S
O1115  Zn1120  1.981   .     S
O1116  Zn1120  1.913   .     S
O1117  Zn1119  1.913   .     S
C1121  O1185   1.291   .     A
C1121  O1192   1.296   .     A
C1121  C1124   1.450   .     S
C1122  C1155   1.452   .     S
C1122  C1124   1.409   .     A
C1122  C1403   1.391   .     S
C1123  C1163   1.410   .     A
C1123  C1132   1.452   .     S
C1123  C1164   1.412   .     A
C1124  C1162   1.408   .     A
C1125  N1178   1.363   .     A
C1125  C1156   1.443   .     S
C1125  C967    1.424   1_655 S
C1126  N1177   1.360   .     A
C1126  C1157   1.443   .     S
C1127  C1158   1.475   .     S
C1127  N1177   1.378   .     A
C1128  N1178   1.384   .     A
C1128  C1159   1.486   .     S
C1128  C966    1.428   1_655 S
C1129  O1196   1.300   .     A
C1129  C1131   1.483   .     S
C1129  O1194   1.300   .     A
C1130  O1195   1.300   .     A
C1130  O1197   1.300   .     A
C1130  C1133   1.482   .     S
C1131  C1138   1.420   .     A
C1131  C1136   1.409   .     A
C1132  O1193   1.296   .     A
C1132  O1191   1.291   .     A
C1133  C1139   1.420   .     A
C1133  C1137   1.409   .     A
C1134  C1136   1.389   .     A
C1134  C1142   1.395   .     A
C1134  H1170   1.086   .     S
C1135  H1171   1.086   .     S
C1135  C1144   1.394   .     A
C1135  C1137   1.387   .     A
C1136  C1150   1.442   .     S
C1137  C1149   1.442   .     S
C1138  C1148   1.485   .     S
C1138  C1140   1.424   .     A
C1139  C1141   1.426   .     A
C1139  C1147   1.488   .     S
C1140  C1145   1.429   .     A
C1140  C1142   1.419   .     A
C1141  C1146   1.428   .     A
C1141  C1144   1.419   .     A
C1142  C440    1.390   1_556 S
C1143  C1160   1.384   .     A
C1143  C1146   1.409   .     A
C1143  H1172   1.078   .     S
C1145  C1154   1.411   .     A
C1145  C426    1.424   1_556 S
C1147  O1198   1.221   .     D
C1147  H1174   1.085   .     S
C1148  H1175   1.086   .     S
C1148  O1186   1.221   .     D
C1149  N1019   1.157   1_655 S
C1151  C1162   1.495   .     S
C1151  O1187   1.222   .     D
C1151  H1176   1.084   .     S
C1152  C1163   1.499   .     S
C1152  O1188   1.220   .     D
C1152  H1166   1.085   .     S
C1153  C1164   1.451   .     S
C1153  N1181   1.157   .     T
C1154  C1161   1.382   .     A
C1154  H1173   1.077   .     S
C1155  N1182   1.158   .     T
C1156  N1183   1.158   .     T
C1157  N1184   1.158   .     T
C1158  O1189   1.220   .     D
C1158  H1167   1.080   .     S
C1159  O1190   1.221   .     D
C1159  H1168   1.074   .     S
C1160  H1165   1.084   .     S
C1161  H1169   1.084   .     S
C1161  C424    1.388   1_556 S
C1162  C1404   1.385   .     S
N1177  Zn1199  2.016   .     S
N1178  Zn1200  2.016   .     S
N1180  C990    1.157   1_655 S
O1185  Zn1199  1.999   .     S
O1191  Zn1200  1.999   .     S
O1192  Zn1200  1.989   .     S
O1193  Zn1199  1.989   .     S
O1194  Zn1199  1.981   .     S
O1195  Zn1200  1.981   .     S
O1196  Zn1200  1.913   .     S
O1197  Zn1199  1.913   .     S
C1201  O1265   1.291   .     A
C1201  O1272   1.296   .     A
C1201  C1204   1.450   .     S
C1202  C1235   1.452   .     S
C1202  C1204   1.409   .     A
C1202  C763    1.391   1_565 S
C1203  C1243   1.410   .     A
C1203  C1212   1.452   .     S
C1203  C1244   1.412   .     A
C1204  C1242   1.408   .     A
C1205  N1258   1.363   .     A
C1205  C1236   1.443   .     S
C1205  C1287   1.424   .     S
C1206  N1257   1.360   .     A
C1206  C1237   1.443   .     S
C1206  C1368   1.428   1_455 S
C1207  C1238   1.475   .     S
C1207  N1257   1.378   .     A
C1207  C1365   1.424   1_455 S
C1208  N1258   1.384   .     A
C1208  C1239   1.486   .     S
C1208  C1286   1.428   .     S
C1209  O1276   1.300   .     A
C1209  C1211   1.483   .     S
C1209  O1274   1.300   .     A
C1210  O1275   1.300   .     A
C1210  O1277   1.300   .     A
C1210  C1213   1.482   .     S
C1211  C1218   1.420   .     A
C1211  C1216   1.409   .     A
C1212  O1273   1.296   .     A
C1212  O1271   1.291   .     A
C1213  C1219   1.420   .     A
C1213  C1217   1.409   .     A
C1214  C1216   1.389   .     A
C1214  C1222   1.395   .     A
C1214  H1250   1.086   .     S
C1215  H1251   1.086   .     S
C1215  C1224   1.394   .     A
C1215  C1217   1.387   .     A
C1216  C1230   1.442   .     S
C1217  C1229   1.442   .     S
C1218  C1228   1.485   .     S
C1218  C1220   1.424   .     A
C1219  C1221   1.426   .     A
C1219  C1227   1.488   .     S
C1220  C1225   1.429   .     A
C1220  C1222   1.419   .     A
C1221  C1226   1.428   .     A
C1221  C1224   1.419   .     A
C1222  C520    1.390   1_556 S
C1223  C1240   1.384   .     A
C1223  C1226   1.409   .     A
C1223  H1252   1.078   .     S
C1225  C1234   1.411   .     A
C1225  C506    1.424   1_556 S
C1227  O1278   1.221   .     D
C1227  H1254   1.085   .     S
C1228  H1255   1.086   .     S
C1228  O1266   1.221   .     D
C1229  N1339   1.157   .     S
C1230  N1420   1.157   1_455 S
C1231  C1242   1.495   .     S
C1231  O1267   1.222   .     D
C1231  H1256   1.084   .     S
C1232  C1243   1.499   .     S
C1232  O1268   1.220   .     D
C1232  H1246   1.085   .     S
C1233  C1244   1.451   .     S
C1233  N1261   1.157   .     T
C1234  C1241   1.382   .     A
C1234  H1253   1.077   .     S
C1235  N1262   1.158   .     T
C1236  N1263   1.158   .     T
C1237  N1264   1.158   .     T
C1238  O1269   1.220   .     D
C1238  H1247   1.080   .     S
C1239  O1270   1.221   .     D
C1239  H1248   1.074   .     S
C1240  H1245   1.084   .     S
C1241  H1249   1.084   .     S
C1241  C504    1.388   1_556 S
C1242  C764    1.385   1_565 S
N1257  Zn1279  2.016   .     S
N1258  Zn1280  2.016   .     S
N1259  C1389   1.157   1_455 S
N1260  C1310   1.157   .     S
O1265  Zn1279  1.999   .     S
O1271  Zn1280  1.999   .     S
O1272  Zn1280  1.989   .     S
O1273  Zn1279  1.989   .     S
O1274  Zn1279  1.981   .     S
O1275  Zn1280  1.981   .     S
O1276  Zn1280  1.913   .     S
O1277  Zn1279  1.913   .     S
C1281  O1345   1.291   .     A
C1281  O1352   1.296   .     A
C1281  C1284   1.450   .     S
C1282  C1315   1.452   .     S
C1282  C1284   1.409   .     A
C1282  C843    1.391   1_565 S
C1283  C1323   1.410   .     A
C1283  C1292   1.452   .     S
C1283  C1324   1.412   .     A
C1284  C1322   1.408   .     A
C1285  N1338   1.363   .     A
C1285  C1316   1.443   .     S
C1285  C1367   1.424   .     S
C1286  N1337   1.360   .     A
C1286  C1317   1.443   .     S
C1287  C1318   1.475   .     S
C1287  N1337   1.378   .     A
C1288  N1338   1.384   .     A
C1288  C1319   1.486   .     S
C1288  C1366   1.428   .     S
C1289  O1356   1.300   .     A
C1289  C1291   1.483   .     S
C1289  O1354   1.300   .     A
C1290  O1355   1.300   .     A
C1290  O1357   1.300   .     A
C1290  C1293   1.482   .     S
C1291  C1298   1.420   .     A
C1291  C1296   1.409   .     A
C1292  O1353   1.296   .     A
C1292  O1351   1.291   .     A
C1293  C1299   1.420   .     A
C1293  C1297   1.409   .     A
C1294  C1296   1.389   .     A
C1294  C1302   1.395   .     A
C1294  H1330   1.086   .     S
C1295  H1331   1.086   .     S
C1295  C1304   1.394   .     A
C1295  C1297   1.387   .     A
C1296  C1310   1.442   .     S
C1297  C1309   1.442   .     S
C1298  C1308   1.485   .     S
C1298  C1300   1.424   .     A
C1299  C1301   1.426   .     A
C1299  C1307   1.488   .     S
C1300  C1305   1.429   .     A
C1300  C1302   1.419   .     A
C1301  C1306   1.428   .     A
C1301  C1304   1.419   .     A
C1302  C600    1.390   1_556 S
C1303  C1320   1.384   .     A
C1303  C1306   1.409   .     A
C1303  H1332   1.078   .     S
C1305  C1314   1.411   .     A
C1305  C586    1.424   1_556 S
C1307  O1358   1.221   .     D
C1307  H1334   1.085   .     S
C1308  H1335   1.086   .     S
C1308  O1346   1.221   .     D
C1309  N1419   1.157   .     S
C1311  C1322   1.495   .     S
C1311  O1347   1.222   .     D
C1311  H1336   1.084   .     S
C1312  C1323   1.499   .     S
C1312  O1348   1.220   .     D
C1312  H1326   1.085   .     S
C1313  C1324   1.451   .     S
C1313  N1341   1.157   .     T
C1314  C1321   1.382   .     A
C1314  H1333   1.077   .     S
C1315  N1342   1.158   .     T
C1316  N1343   1.158   .     T
C1317  N1344   1.158   .     T
C1318  O1349   1.220   .     D
C1318  H1327   1.080   .     S
C1319  O1350   1.221   .     D
C1319  H1328   1.074   .     S
C1320  H1325   1.084   .     S
C1321  H1329   1.084   .     S
C1321  C584    1.388   1_556 S
C1322  C844    1.385   1_565 S
N1337  Zn1359  2.016   .     S
N1338  Zn1360  2.016   .     S
N1340  C1390   1.157   .     S
O1345  Zn1359  1.999   .     S
O1351  Zn1360  1.999   .     S
O1352  Zn1360  1.989   .     S
O1353  Zn1359  1.989   .     S
O1354  Zn1359  1.981   .     S
O1355  Zn1360  1.981   .     S
O1356  Zn1360  1.913   .     S
O1357  Zn1359  1.913   .     S
C1361  O1425   1.291   .     A
C1361  O1432   1.296   .     A
C1361  C1364   1.450   .     S
C1362  C1395   1.452   .     S
C1362  C1364   1.409   .     A
C1362  C923    1.391   1_565 S
C1363  C1403   1.410   .     A
C1363  C1372   1.452   .     S
C1363  C1404   1.412   .     A
C1364  C1402   1.408   .     A
C1365  N1418   1.363   .     A
C1365  C1396   1.443   .     S
C1365  C1207   1.424   1_655 S
C1366  N1417   1.360   .     A
C1366  C1397   1.443   .     S
C1367  C1398   1.475   .     S
C1367  N1417   1.378   .     A
C1368  N1418   1.384   .     A
C1368  C1399   1.486   .     S
C1368  C1206   1.428   1_655 S
C1369  O1436   1.300   .     A
C1369  C1371   1.483   .     S
C1369  O1434   1.300   .     A
C1370  O1435   1.300   .     A
C1370  O1437   1.300   .     A
C1370  C1373   1.482   .     S
C1371  C1378   1.420   .     A
C1371  C1376   1.409   .     A
C1372  O1433   1.296   .     A
C1372  O1431   1.291   .     A
C1373  C1379   1.420   .     A
C1373  C1377   1.409   .     A
C1374  C1376   1.389   .     A
C1374  C1382   1.395   .     A
C1374  H1410   1.086   .     S
C1375  H1411   1.086   .     S
C1375  C1384   1.394   .     A
C1375  C1377   1.387   .     A
C1376  C1390   1.442   .     S
C1377  C1389   1.442   .     S
C1378  C1388   1.485   .     S
C1378  C1380   1.424   .     A
C1379  C1381   1.426   .     A
C1379  C1387   1.488   .     S
C1380  C1385   1.429   .     A
C1380  C1382   1.419   .     A
C1381  C1386   1.428   .     A
C1381  C1384   1.419   .     A
C1382  C680    1.390   1_556 S
C1383  C1400   1.384   .     A
C1383  C1386   1.409   .     A
C1383  H1412   1.078   .     S
C1385  C1394   1.411   .     A
C1385  C666    1.424   1_556 S
C1387  O1438   1.221   .     D
C1387  H1414   1.085   .     S
C1388  H1415   1.086   .     S
C1388  O1426   1.221   .     D
C1389  N1259   1.157   1_655 S
C1391  C1402   1.495   .     S
C1391  O1427   1.222   .     D
C1391  H1416   1.084   .     S
C1392  C1403   1.499   .     S
C1392  O1428   1.220   .     D
C1392  H1406   1.085   .     S
C1393  C1404   1.451   .     S
C1393  N1421   1.157   .     T
C1394  C1401   1.382   .     A
C1394  H1413   1.077   .     S
C1395  N1422   1.158   .     T
C1396  N1423   1.158   .     T
C1397  N1424   1.158   .     T
C1398  O1429   1.220   .     D
C1398  H1407   1.080   .     S
C1399  O1430   1.221   .     D
C1399  H1408   1.074   .     S
C1400  H1405   1.084   .     S
C1401  H1409   1.084   .     S
C1401  C664    1.388   1_556 S
C1402  C924    1.385   1_565 S
N1417  Zn1439  2.016   .     S
N1418  Zn1440  2.016   .     S
N1420  C1230   1.157   1_655 S
O1425  Zn1439  1.999   .     S
O1431  Zn1440  1.999   .     S
O1432  Zn1440  1.989   .     S
O1433  Zn1439  1.989   .     S
O1434  Zn1439  1.981   .     S
O1435  Zn1440  1.981   .     S
O1436  Zn1440  1.913   .     S
O1437  Zn1439  1.913   .     S
