data_str_m3_o1_o10_pcu_sym.187
_audit_creation_date              2020-01-03
_audit_creation_method            'Materials Studio'
_symmetry_space_group_name_H-M    'P1'
_symmetry_Int_Tables_number       1
_symmetry_cell_setting            triclinic
loop_
_symmetry_equiv_pos_as_xyz
  x,y,z
_cell_length_a                    25.7221
_cell_length_b                    32.0143
_cell_length_c                    29.8608
_cell_angle_alpha                 92.1704
_cell_angle_beta                  99.6637
_cell_angle_gamma                 91.5800
loop_
_atom_site_label
_atom_site_type_symbol
_atom_site_fract_x
_atom_site_fract_y
_atom_site_fract_z
_atom_site_U_iso_or_equiv
_atom_site_adp_type
_atom_site_occupancy
C1     C     0.16605   0.08675   0.16598   0.00000  Uiso   1.00
C2     C     0.16616   0.24657   0.16731   0.00000  Uiso   1.00
C3     C     0.06706   0.16673   0.15456   0.00000  Uiso   1.00
C4     C     0.26628   0.16667   0.17876   0.00000  Uiso   1.00
C5     C     0.01170   0.16678   0.14824   0.00000  Uiso   1.00
C6     C     0.32163   0.16668   0.18503   0.00000  Uiso   1.00
C7     C     0.13164   0.01910   0.13243   0.00000  Uiso   1.00
C8     C     0.19625   0.31435   0.20292   0.00000  Uiso   1.00
C9     C     0.13153   0.30953   0.13314   0.00000  Uiso   1.00
C10    C     0.19772   0.02377   0.20128   0.00000  Uiso   1.00
C11    C     0.16425   0.29075   0.16823   0.00000  Uiso   1.00
C12    C     0.16598   0.04256   0.16563   0.00000  Uiso   1.00
C13    C     0.20156   0.19124   0.03080   0.00000  Uiso   1.00
C14    C     0.12997   0.14387   0.30236   0.00000  Uiso   1.00
C15    C     0.20467   0.18924   0.31710   0.00000  Uiso   1.00
C16    C     0.13216   0.14082   0.01659   0.00000  Uiso   1.00
H17    H     0.32377   0.16688   0.11353   0.00000  Uiso   1.00
H18    H     0.00962   0.16659   0.21969   0.00000  Uiso   1.00
H19    H     0.10416   0.03370   0.10699   0.00000  Uiso   1.00
H20    H     0.22097   0.30014   0.23045   0.00000  Uiso   1.00
H21    H     0.10559   0.29104   0.10694   0.00000  Uiso   1.00
H22    H     0.22352   0.04217   0.22766   0.00000  Uiso   1.00
H23    H     0.23006   0.20965   0.05486   0.00000  Uiso   1.00
H24    H     0.10222   0.12481   0.27833   0.00000  Uiso   1.00
N25    N     0.16665   0.16666   0.28573   0.00000  Uiso   1.00
N26    N     0.16668   0.16668   0.04760   0.00000  Uiso   1.00
O27    O     0.16666   0.10558   0.20487   0.00000  Uiso   1.00
O28    O     0.16667   0.22775   0.12846   0.00000  Uiso   1.00
O29    O     0.16666   0.10559   0.12843   0.00000  Uiso   1.00
O30    O     0.16667   0.22774   0.20490   0.00000  Uiso   1.00
O31    O     0.09058   0.16666   0.19595   0.00000  Uiso   1.00
O32    O     0.24275   0.16667   0.13739   0.00000  Uiso   1.00
O33    O     0.09058   0.16667   0.11950   0.00000  Uiso   1.00
O34    O     0.24275   0.16666   0.21383   0.00000  Uiso   1.00
Zn35   Zn    0.16667   0.16666   0.21771   0.00000  Uiso   1.00
Zn36   Zn    0.16667   0.16667   0.11563   0.00000  Uiso   1.00
S37    S     0.26560   0.20905   0.30462   0.00000  Uiso   1.00
O38    O     0.29375   0.23627   0.01058   0.00000  Uiso   1.00
O39    O     0.29955   0.17261   0.29804   0.00000  Uiso   1.00
O40    O     0.25858   0.23771   0.25848   0.00000  Uiso   1.00
H41    H     0.29504   0.24460   0.25384   0.00000  Uiso   1.00
S42    S     0.10116   0.09438   0.03146   0.00000  Uiso   1.00
O43    O     0.06552   0.07490   0.32375   0.00000  Uiso   1.00
O44    O     0.14397   0.06437   0.04608   0.00000  Uiso   1.00
O45    O     0.06467   0.10143   0.07248   0.00000  Uiso   1.00
H46    H     0.03648   0.07924   0.06663   0.00000  Uiso   1.00
C47    C     0.49938   0.08675   0.16598   0.00000  Uiso   1.00
C48    C     0.49949   0.24657   0.16731   0.00000  Uiso   1.00
C49    C     0.40039   0.16673   0.15456   0.00000  Uiso   1.00
C50    C     0.59961   0.16667   0.17876   0.00000  Uiso   1.00
C51    C     0.34503   0.16678   0.14824   0.00000  Uiso   1.00
C52    C     0.65497   0.16668   0.18503   0.00000  Uiso   1.00
C53    C     0.46498   0.01910   0.13243   0.00000  Uiso   1.00
C54    C     0.52958   0.31435   0.20292   0.00000  Uiso   1.00
C55    C     0.46486   0.30953   0.13314   0.00000  Uiso   1.00
C56    C     0.53106   0.02377   0.20128   0.00000  Uiso   1.00
C57    C     0.49758   0.29075   0.16823   0.00000  Uiso   1.00
C58    C     0.49931   0.04256   0.16563   0.00000  Uiso   1.00
C59    C     0.53490   0.19124   0.03080   0.00000  Uiso   1.00
C60    C     0.46330   0.14387   0.30236   0.00000  Uiso   1.00
C61    C     0.53800   0.18924   0.31710   0.00000  Uiso   1.00
C62    C     0.46549   0.14082   0.01659   0.00000  Uiso   1.00
H63    H     0.65710   0.16688   0.11353   0.00000  Uiso   1.00
H64    H     0.34295   0.16659   0.21969   0.00000  Uiso   1.00
H65    H     0.43749   0.03370   0.10699   0.00000  Uiso   1.00
H66    H     0.55431   0.30014   0.23045   0.00000  Uiso   1.00
H67    H     0.43893   0.29104   0.10694   0.00000  Uiso   1.00
H68    H     0.55685   0.04217   0.22766   0.00000  Uiso   1.00
H69    H     0.56339   0.20965   0.05486   0.00000  Uiso   1.00
H70    H     0.43556   0.12481   0.27833   0.00000  Uiso   1.00
N71    N     0.49999   0.16666   0.28573   0.00000  Uiso   1.00
N72    N     0.50001   0.16668   0.04760   0.00000  Uiso   1.00
O73    O     0.50000   0.10558   0.20487   0.00000  Uiso   1.00
O74    O     0.50000   0.22775   0.12846   0.00000  Uiso   1.00
O75    O     0.50000   0.10559   0.12843   0.00000  Uiso   1.00
O76    O     0.50000   0.22774   0.20490   0.00000  Uiso   1.00
O77    O     0.42392   0.16666   0.19595   0.00000  Uiso   1.00
O78    O     0.57608   0.16667   0.13739   0.00000  Uiso   1.00
O79    O     0.42392   0.16667   0.11950   0.00000  Uiso   1.00
O80    O     0.57608   0.16666   0.21383   0.00000  Uiso   1.00
Zn81   Zn    0.50000   0.16666   0.21771   0.00000  Uiso   1.00
Zn82   Zn    0.50000   0.16667   0.11563   0.00000  Uiso   1.00
S83    S     0.59893   0.20905   0.30462   0.00000  Uiso   1.00
O84    O     0.62709   0.23627   0.01058   0.00000  Uiso   1.00
O85    O     0.63289   0.17261   0.29804   0.00000  Uiso   1.00
O86    O     0.59191   0.23771   0.25848   0.00000  Uiso   1.00
H87    H     0.62837   0.24460   0.25384   0.00000  Uiso   1.00
S88    S     0.43449   0.09438   0.03146   0.00000  Uiso   1.00
O89    O     0.39886   0.07490   0.32375   0.00000  Uiso   1.00
O90    O     0.47730   0.06437   0.04608   0.00000  Uiso   1.00
O91    O     0.39801   0.10143   0.07248   0.00000  Uiso   1.00
H92    H     0.36981   0.07924   0.06663   0.00000  Uiso   1.00
C93    C     0.83271   0.08675   0.16598   0.00000  Uiso   1.00
C94    C     0.83282   0.24657   0.16731   0.00000  Uiso   1.00
C95    C     0.73372   0.16673   0.15456   0.00000  Uiso   1.00
C96    C     0.93294   0.16667   0.17876   0.00000  Uiso   1.00
C97    C     0.67837   0.16678   0.14824   0.00000  Uiso   1.00
C98    C     0.98830   0.16668   0.18503   0.00000  Uiso   1.00
C99    C     0.79831   0.01910   0.13243   0.00000  Uiso   1.00
C100   C     0.86292   0.31435   0.20292   0.00000  Uiso   1.00
C101   C     0.79820   0.30953   0.13314   0.00000  Uiso   1.00
C102   C     0.86439   0.02377   0.20128   0.00000  Uiso   1.00
C103   C     0.83092   0.29075   0.16823   0.00000  Uiso   1.00
C104   C     0.83265   0.04256   0.16563   0.00000  Uiso   1.00
C105   C     0.86823   0.19124   0.03080   0.00000  Uiso   1.00
C106   C     0.79663   0.14387   0.30236   0.00000  Uiso   1.00
C107   C     0.87133   0.18924   0.31710   0.00000  Uiso   1.00
C108   C     0.79883   0.14082   0.01659   0.00000  Uiso   1.00
H109   H     0.99043   0.16688   0.11353   0.00000  Uiso   1.00
H110   H     0.67629   0.16659   0.21969   0.00000  Uiso   1.00
H111   H     0.77083   0.03370   0.10699   0.00000  Uiso   1.00
H112   H     0.88764   0.30014   0.23045   0.00000  Uiso   1.00
H113   H     0.77226   0.29104   0.10694   0.00000  Uiso   1.00
H114   H     0.89019   0.04217   0.22766   0.00000  Uiso   1.00
H115   H     0.89673   0.20965   0.05486   0.00000  Uiso   1.00
H116   H     0.76889   0.12481   0.27833   0.00000  Uiso   1.00
N117   N     0.83332   0.16666   0.28573   0.00000  Uiso   1.00
N118   N     0.83335   0.16668   0.04760   0.00000  Uiso   1.00
O119   O     0.83333   0.10558   0.20487   0.00000  Uiso   1.00
O120   O     0.83334   0.22775   0.12846   0.00000  Uiso   1.00
O121   O     0.83333   0.10559   0.12843   0.00000  Uiso   1.00
O122   O     0.83334   0.22774   0.20490   0.00000  Uiso   1.00
O123   O     0.75725   0.16666   0.19595   0.00000  Uiso   1.00
O124   O     0.90942   0.16667   0.13739   0.00000  Uiso   1.00
O125   O     0.75725   0.16667   0.11950   0.00000  Uiso   1.00
O126   O     0.90942   0.16666   0.21383   0.00000  Uiso   1.00
Zn127  Zn    0.83333   0.16666   0.21771   0.00000  Uiso   1.00
Zn128  Zn    0.83333   0.16667   0.11563   0.00000  Uiso   1.00
S129   S     0.93227   0.20905   0.30462   0.00000  Uiso   1.00
O130   O     0.96042   0.23627   0.01058   0.00000  Uiso   1.00
O131   O     0.96622   0.17261   0.29804   0.00000  Uiso   1.00
O132   O     0.92525   0.23771   0.25848   0.00000  Uiso   1.00
H133   H     0.96170   0.24460   0.25384   0.00000  Uiso   1.00
S134   S     0.76783   0.09438   0.03146   0.00000  Uiso   1.00
O135   O     0.73219   0.07490   0.32375   0.00000  Uiso   1.00
O136   O     0.81063   0.06437   0.04608   0.00000  Uiso   1.00
O137   O     0.73134   0.10143   0.07248   0.00000  Uiso   1.00
H138   H     0.70314   0.07924   0.06663   0.00000  Uiso   1.00
C139   C     0.16605   0.42009   0.16598   0.00000  Uiso   1.00
C140   C     0.16616   0.57991   0.16731   0.00000  Uiso   1.00
C141   C     0.06706   0.50006   0.15456   0.00000  Uiso   1.00
C142   C     0.26628   0.50000   0.17876   0.00000  Uiso   1.00
C143   C     0.01170   0.50012   0.14824   0.00000  Uiso   1.00
C144   C     0.32163   0.50002   0.18503   0.00000  Uiso   1.00
C145   C     0.13164   0.35243   0.13243   0.00000  Uiso   1.00
C146   C     0.19625   0.64768   0.20292   0.00000  Uiso   1.00
C147   C     0.13153   0.64286   0.13314   0.00000  Uiso   1.00
C148   C     0.19772   0.35710   0.20128   0.00000  Uiso   1.00
C149   C     0.16425   0.62408   0.16823   0.00000  Uiso   1.00
C150   C     0.16598   0.37589   0.16563   0.00000  Uiso   1.00
C151   C     0.20156   0.52457   0.03080   0.00000  Uiso   1.00
C152   C     0.12997   0.47721   0.30236   0.00000  Uiso   1.00
C153   C     0.20467   0.52258   0.31710   0.00000  Uiso   1.00
C154   C     0.13216   0.47415   0.01659   0.00000  Uiso   1.00
H155   H     0.32377   0.50021   0.11353   0.00000  Uiso   1.00
H156   H     0.00962   0.49993   0.21969   0.00000  Uiso   1.00
H157   H     0.10416   0.36703   0.10699   0.00000  Uiso   1.00
H158   H     0.22097   0.63347   0.23045   0.00000  Uiso   1.00
H159   H     0.10559   0.62437   0.10694   0.00000  Uiso   1.00
H160   H     0.22352   0.37551   0.22766   0.00000  Uiso   1.00
H161   H     0.23006   0.54298   0.05486   0.00000  Uiso   1.00
H162   H     0.10222   0.45814   0.27833   0.00000  Uiso   1.00
N163   N     0.16665   0.49999   0.28573   0.00000  Uiso   1.00
N164   N     0.16668   0.50001   0.04760   0.00000  Uiso   1.00
O165   O     0.16666   0.43892   0.20487   0.00000  Uiso   1.00
O166   O     0.16667   0.56108   0.12846   0.00000  Uiso   1.00
O167   O     0.16666   0.43893   0.12843   0.00000  Uiso   1.00
O168   O     0.16667   0.56107   0.20490   0.00000  Uiso   1.00
O169   O     0.09058   0.50000   0.19595   0.00000  Uiso   1.00
O170   O     0.24275   0.50000   0.13739   0.00000  Uiso   1.00
O171   O     0.09058   0.50000   0.11950   0.00000  Uiso   1.00
O172   O     0.24275   0.50000   0.21383   0.00000  Uiso   1.00
Zn173  Zn    0.16667   0.49999   0.21771   0.00000  Uiso   1.00
Zn174  Zn    0.16667   0.50001   0.11563   0.00000  Uiso   1.00
S175   S     0.26560   0.54239   0.30462   0.00000  Uiso   1.00
O176   O     0.29375   0.56960   0.01058   0.00000  Uiso   1.00
O177   O     0.29955   0.50594   0.29804   0.00000  Uiso   1.00
O178   O     0.25858   0.57104   0.25848   0.00000  Uiso   1.00
H179   H     0.29504   0.57794   0.25384   0.00000  Uiso   1.00
S180   S     0.10116   0.42771   0.03146   0.00000  Uiso   1.00
O181   O     0.06552   0.40823   0.32375   0.00000  Uiso   1.00
O182   O     0.14397   0.39770   0.04608   0.00000  Uiso   1.00
O183   O     0.06467   0.43476   0.07248   0.00000  Uiso   1.00
H184   H     0.03648   0.41257   0.06663   0.00000  Uiso   1.00
C185   C     0.49938   0.42009   0.16598   0.00000  Uiso   1.00
C186   C     0.49949   0.57991   0.16731   0.00000  Uiso   1.00
C187   C     0.40039   0.50006   0.15456   0.00000  Uiso   1.00
C188   C     0.59961   0.50000   0.17876   0.00000  Uiso   1.00
C189   C     0.34503   0.50012   0.14824   0.00000  Uiso   1.00
C190   C     0.65497   0.50002   0.18503   0.00000  Uiso   1.00
C191   C     0.46498   0.35243   0.13243   0.00000  Uiso   1.00
C192   C     0.52958   0.64768   0.20292   0.00000  Uiso   1.00
C193   C     0.46486   0.64286   0.13314   0.00000  Uiso   1.00
C194   C     0.53106   0.35710   0.20128   0.00000  Uiso   1.00
C195   C     0.49758   0.62408   0.16823   0.00000  Uiso   1.00
C196   C     0.49931   0.37589   0.16563   0.00000  Uiso   1.00
C197   C     0.53490   0.52457   0.03080   0.00000  Uiso   1.00
C198   C     0.46330   0.47721   0.30236   0.00000  Uiso   1.00
C199   C     0.53800   0.52258   0.31710   0.00000  Uiso   1.00
C200   C     0.46549   0.47415   0.01659   0.00000  Uiso   1.00
H201   H     0.65710   0.50021   0.11353   0.00000  Uiso   1.00
H202   H     0.34295   0.49993   0.21969   0.00000  Uiso   1.00
H203   H     0.43749   0.36703   0.10699   0.00000  Uiso   1.00
H204   H     0.55431   0.63347   0.23045   0.00000  Uiso   1.00
H205   H     0.43893   0.62437   0.10694   0.00000  Uiso   1.00
H206   H     0.55685   0.37551   0.22766   0.00000  Uiso   1.00
H207   H     0.56339   0.54298   0.05486   0.00000  Uiso   1.00
H208   H     0.43556   0.45814   0.27833   0.00000  Uiso   1.00
N209   N     0.49999   0.49999   0.28573   0.00000  Uiso   1.00
N210   N     0.50001   0.50001   0.04760   0.00000  Uiso   1.00
O211   O     0.50000   0.43892   0.20487   0.00000  Uiso   1.00
O212   O     0.50000   0.56108   0.12846   0.00000  Uiso   1.00
O213   O     0.50000   0.43893   0.12843   0.00000  Uiso   1.00
O214   O     0.50000   0.56107   0.20490   0.00000  Uiso   1.00
O215   O     0.42392   0.50000   0.19595   0.00000  Uiso   1.00
O216   O     0.57608   0.50000   0.13739   0.00000  Uiso   1.00
O217   O     0.42392   0.50000   0.11950   0.00000  Uiso   1.00
O218   O     0.57608   0.50000   0.21383   0.00000  Uiso   1.00
Zn219  Zn    0.50000   0.49999   0.21771   0.00000  Uiso   1.00
Zn220  Zn    0.50000   0.50001   0.11563   0.00000  Uiso   1.00
S221   S     0.59893   0.54239   0.30462   0.00000  Uiso   1.00
O222   O     0.62709   0.56960   0.01058   0.00000  Uiso   1.00
O223   O     0.63289   0.50594   0.29804   0.00000  Uiso   1.00
O224   O     0.59191   0.57104   0.25848   0.00000  Uiso   1.00
H225   H     0.62837   0.57794   0.25384   0.00000  Uiso   1.00
S226   S     0.43449   0.42771   0.03146   0.00000  Uiso   1.00
O227   O     0.39886   0.40823   0.32375   0.00000  Uiso   1.00
O228   O     0.47730   0.39770   0.04608   0.00000  Uiso   1.00
O229   O     0.39801   0.43476   0.07248   0.00000  Uiso   1.00
H230   H     0.36981   0.41257   0.06663   0.00000  Uiso   1.00
C231   C     0.83271   0.42009   0.16598   0.00000  Uiso   1.00
C232   C     0.83282   0.57991   0.16731   0.00000  Uiso   1.00
C233   C     0.73372   0.50006   0.15456   0.00000  Uiso   1.00
C234   C     0.93294   0.50000   0.17876   0.00000  Uiso   1.00
C235   C     0.67837   0.50012   0.14824   0.00000  Uiso   1.00
C236   C     0.98830   0.50002   0.18503   0.00000  Uiso   1.00
C237   C     0.79831   0.35243   0.13243   0.00000  Uiso   1.00
C238   C     0.86292   0.64768   0.20292   0.00000  Uiso   1.00
C239   C     0.79820   0.64286   0.13314   0.00000  Uiso   1.00
C240   C     0.86439   0.35710   0.20128   0.00000  Uiso   1.00
C241   C     0.83092   0.62408   0.16823   0.00000  Uiso   1.00
C242   C     0.83265   0.37589   0.16563   0.00000  Uiso   1.00
C243   C     0.86823   0.52457   0.03080   0.00000  Uiso   1.00
C244   C     0.79663   0.47721   0.30236   0.00000  Uiso   1.00
C245   C     0.87133   0.52258   0.31710   0.00000  Uiso   1.00
C246   C     0.79883   0.47415   0.01659   0.00000  Uiso   1.00
H247   H     0.99043   0.50021   0.11353   0.00000  Uiso   1.00
H248   H     0.67629   0.49993   0.21969   0.00000  Uiso   1.00
H249   H     0.77083   0.36703   0.10699   0.00000  Uiso   1.00
H250   H     0.88764   0.63347   0.23045   0.00000  Uiso   1.00
H251   H     0.77226   0.62437   0.10694   0.00000  Uiso   1.00
H252   H     0.89019   0.37551   0.22766   0.00000  Uiso   1.00
H253   H     0.89673   0.54298   0.05486   0.00000  Uiso   1.00
H254   H     0.76889   0.45814   0.27833   0.00000  Uiso   1.00
N255   N     0.83332   0.49999   0.28573   0.00000  Uiso   1.00
N256   N     0.83335   0.50001   0.04760   0.00000  Uiso   1.00
O257   O     0.83333   0.43892   0.20487   0.00000  Uiso   1.00
O258   O     0.83334   0.56108   0.12846   0.00000  Uiso   1.00
O259   O     0.83333   0.43893   0.12843   0.00000  Uiso   1.00
O260   O     0.83334   0.56107   0.20490   0.00000  Uiso   1.00
O261   O     0.75725   0.50000   0.19595   0.00000  Uiso   1.00
O262   O     0.90942   0.50000   0.13739   0.00000  Uiso   1.00
O263   O     0.75725   0.50000   0.11950   0.00000  Uiso   1.00
O264   O     0.90942   0.50000   0.21383   0.00000  Uiso   1.00
Zn265  Zn    0.83333   0.49999   0.21771   0.00000  Uiso   1.00
Zn266  Zn    0.83333   0.50001   0.11563   0.00000  Uiso   1.00
S267   S     0.93227   0.54239   0.30462   0.00000  Uiso   1.00
O268   O     0.96042   0.56960   0.01058   0.00000  Uiso   1.00
O269   O     0.96622   0.50594   0.29804   0.00000  Uiso   1.00
O270   O     0.92525   0.57104   0.25848   0.00000  Uiso   1.00
H271   H     0.96170   0.57794   0.25384   0.00000  Uiso   1.00
S272   S     0.76783   0.42771   0.03146   0.00000  Uiso   1.00
O273   O     0.73219   0.40823   0.32375   0.00000  Uiso   1.00
O274   O     0.81063   0.39770   0.04608   0.00000  Uiso   1.00
O275   O     0.73134   0.43476   0.07248   0.00000  Uiso   1.00
H276   H     0.70314   0.41257   0.06663   0.00000  Uiso   1.00
C277   C     0.16605   0.75342   0.16598   0.00000  Uiso   1.00
C278   C     0.16616   0.91324   0.16731   0.00000  Uiso   1.00
C279   C     0.06706   0.83339   0.15456   0.00000  Uiso   1.00
C280   C     0.26628   0.83334   0.17876   0.00000  Uiso   1.00
C281   C     0.01170   0.83345   0.14824   0.00000  Uiso   1.00
C282   C     0.32163   0.83335   0.18503   0.00000  Uiso   1.00
C283   C     0.13164   0.68577   0.13243   0.00000  Uiso   1.00
C284   C     0.19625   0.98101   0.20292   0.00000  Uiso   1.00
C285   C     0.13153   0.97619   0.13314   0.00000  Uiso   1.00
C286   C     0.19772   0.69043   0.20128   0.00000  Uiso   1.00
C287   C     0.16425   0.95741   0.16823   0.00000  Uiso   1.00
C288   C     0.16598   0.70922   0.16563   0.00000  Uiso   1.00
C289   C     0.20156   0.85790   0.03080   0.00000  Uiso   1.00
C290   C     0.12997   0.81054   0.30236   0.00000  Uiso   1.00
C291   C     0.20467   0.85591   0.31710   0.00000  Uiso   1.00
C292   C     0.13216   0.80749   0.01659   0.00000  Uiso   1.00
H293   H     0.32377   0.83355   0.11353   0.00000  Uiso   1.00
H294   H     0.00962   0.83326   0.21969   0.00000  Uiso   1.00
H295   H     0.10416   0.70037   0.10699   0.00000  Uiso   1.00
H296   H     0.22097   0.96680   0.23045   0.00000  Uiso   1.00
H297   H     0.10559   0.95770   0.10694   0.00000  Uiso   1.00
H298   H     0.22352   0.70884   0.22766   0.00000  Uiso   1.00
H299   H     0.23006   0.87631   0.05486   0.00000  Uiso   1.00
H300   H     0.10222   0.79147   0.27833   0.00000  Uiso   1.00
N301   N     0.16665   0.83332   0.28573   0.00000  Uiso   1.00
N302   N     0.16668   0.83334   0.04760   0.00000  Uiso   1.00
O303   O     0.16666   0.77225   0.20487   0.00000  Uiso   1.00
O304   O     0.16667   0.89442   0.12846   0.00000  Uiso   1.00
O305   O     0.16666   0.77226   0.12843   0.00000  Uiso   1.00
O306   O     0.16667   0.89441   0.20490   0.00000  Uiso   1.00
O307   O     0.09058   0.83333   0.19595   0.00000  Uiso   1.00
O308   O     0.24275   0.83334   0.13739   0.00000  Uiso   1.00
O309   O     0.09058   0.83334   0.11950   0.00000  Uiso   1.00
O310   O     0.24275   0.83333   0.21383   0.00000  Uiso   1.00
Zn311  Zn    0.16667   0.83333   0.21771   0.00000  Uiso   1.00
Zn312  Zn    0.16667   0.83334   0.11563   0.00000  Uiso   1.00
S313   S     0.26560   0.87572   0.30462   0.00000  Uiso   1.00
O314   O     0.29375   0.90293   0.01058   0.00000  Uiso   1.00
O315   O     0.29955   0.83927   0.29804   0.00000  Uiso   1.00
O316   O     0.25858   0.90437   0.25848   0.00000  Uiso   1.00
H317   H     0.29504   0.91127   0.25384   0.00000  Uiso   1.00
S318   S     0.10116   0.76104   0.03146   0.00000  Uiso   1.00
O319   O     0.06552   0.74157   0.32375   0.00000  Uiso   1.00
O320   O     0.14397   0.73104   0.04608   0.00000  Uiso   1.00
O321   O     0.06467   0.76809   0.07248   0.00000  Uiso   1.00
H322   H     0.03648   0.74591   0.06663   0.00000  Uiso   1.00
C323   C     0.49938   0.75342   0.16598   0.00000  Uiso   1.00
C324   C     0.49949   0.91324   0.16731   0.00000  Uiso   1.00
C325   C     0.40039   0.83339   0.15456   0.00000  Uiso   1.00
C326   C     0.59961   0.83334   0.17876   0.00000  Uiso   1.00
C327   C     0.34503   0.83345   0.14824   0.00000  Uiso   1.00
C328   C     0.65497   0.83335   0.18503   0.00000  Uiso   1.00
C329   C     0.46498   0.68577   0.13243   0.00000  Uiso   1.00
C330   C     0.52958   0.98101   0.20292   0.00000  Uiso   1.00
C331   C     0.46486   0.97619   0.13314   0.00000  Uiso   1.00
C332   C     0.53106   0.69043   0.20128   0.00000  Uiso   1.00
C333   C     0.49758   0.95741   0.16823   0.00000  Uiso   1.00
C334   C     0.49931   0.70922   0.16563   0.00000  Uiso   1.00
C335   C     0.53490   0.85790   0.03080   0.00000  Uiso   1.00
C336   C     0.46330   0.81054   0.30236   0.00000  Uiso   1.00
C337   C     0.53800   0.85591   0.31710   0.00000  Uiso   1.00
C338   C     0.46549   0.80749   0.01659   0.00000  Uiso   1.00
H339   H     0.65710   0.83355   0.11353   0.00000  Uiso   1.00
H340   H     0.34295   0.83326   0.21969   0.00000  Uiso   1.00
H341   H     0.43749   0.70037   0.10699   0.00000  Uiso   1.00
H342   H     0.55431   0.96680   0.23045   0.00000  Uiso   1.00
H343   H     0.43893   0.95770   0.10694   0.00000  Uiso   1.00
H344   H     0.55685   0.70884   0.22766   0.00000  Uiso   1.00
H345   H     0.56339   0.87631   0.05486   0.00000  Uiso   1.00
H346   H     0.43556   0.79147   0.27833   0.00000  Uiso   1.00
N347   N     0.49999   0.83332   0.28573   0.00000  Uiso   1.00
N348   N     0.50001   0.83334   0.04760   0.00000  Uiso   1.00
O349   O     0.50000   0.77225   0.20487   0.00000  Uiso   1.00
O350   O     0.50000   0.89442   0.12846   0.00000  Uiso   1.00
O351   O     0.50000   0.77226   0.12843   0.00000  Uiso   1.00
O352   O     0.50000   0.89441   0.20490   0.00000  Uiso   1.00
O353   O     0.42392   0.83333   0.19595   0.00000  Uiso   1.00
O354   O     0.57608   0.83334   0.13739   0.00000  Uiso   1.00
O355   O     0.42392   0.83334   0.11950   0.00000  Uiso   1.00
O356   O     0.57608   0.83333   0.21383   0.00000  Uiso   1.00
Zn357  Zn    0.50000   0.83333   0.21771   0.00000  Uiso   1.00
Zn358  Zn    0.50000   0.83334   0.11563   0.00000  Uiso   1.00
S359   S     0.59893   0.87572   0.30462   0.00000  Uiso   1.00
O360   O     0.62709   0.90293   0.01058   0.00000  Uiso   1.00
O361   O     0.63289   0.83927   0.29804   0.00000  Uiso   1.00
O362   O     0.59191   0.90437   0.25848   0.00000  Uiso   1.00
H363   H     0.62837   0.91127   0.25384   0.00000  Uiso   1.00
S364   S     0.43449   0.76104   0.03146   0.00000  Uiso   1.00
O365   O     0.39886   0.74157   0.32375   0.00000  Uiso   1.00
O366   O     0.47730   0.73104   0.04608   0.00000  Uiso   1.00
O367   O     0.39801   0.76809   0.07248   0.00000  Uiso   1.00
H368   H     0.36981   0.74591   0.06663   0.00000  Uiso   1.00
C369   C     0.83271   0.75342   0.16598   0.00000  Uiso   1.00
C370   C     0.83282   0.91324   0.16731   0.00000  Uiso   1.00
C371   C     0.73372   0.83339   0.15456   0.00000  Uiso   1.00
C372   C     0.93294   0.83334   0.17876   0.00000  Uiso   1.00
C373   C     0.67837   0.83345   0.14824   0.00000  Uiso   1.00
C374   C     0.98830   0.83335   0.18503   0.00000  Uiso   1.00
C375   C     0.79831   0.68577   0.13243   0.00000  Uiso   1.00
C376   C     0.86292   0.98101   0.20292   0.00000  Uiso   1.00
C377   C     0.79820   0.97619   0.13314   0.00000  Uiso   1.00
C378   C     0.86439   0.69043   0.20128   0.00000  Uiso   1.00
C379   C     0.83092   0.95741   0.16823   0.00000  Uiso   1.00
C380   C     0.83265   0.70922   0.16563   0.00000  Uiso   1.00
C381   C     0.86823   0.85790   0.03080   0.00000  Uiso   1.00
C382   C     0.79663   0.81054   0.30236   0.00000  Uiso   1.00
C383   C     0.87133   0.85591   0.31710   0.00000  Uiso   1.00
C384   C     0.79883   0.80749   0.01659   0.00000  Uiso   1.00
H385   H     0.99043   0.83355   0.11353   0.00000  Uiso   1.00
H386   H     0.67629   0.83326   0.21969   0.00000  Uiso   1.00
H387   H     0.77083   0.70037   0.10699   0.00000  Uiso   1.00
H388   H     0.88764   0.96680   0.23045   0.00000  Uiso   1.00
H389   H     0.77226   0.95770   0.10694   0.00000  Uiso   1.00
H390   H     0.89019   0.70884   0.22766   0.00000  Uiso   1.00
H391   H     0.89673   0.87631   0.05486   0.00000  Uiso   1.00
H392   H     0.76889   0.79147   0.27833   0.00000  Uiso   1.00
N393   N     0.83332   0.83332   0.28573   0.00000  Uiso   1.00
N394   N     0.83335   0.83334   0.04760   0.00000  Uiso   1.00
O395   O     0.83333   0.77225   0.20487   0.00000  Uiso   1.00
O396   O     0.83334   0.89442   0.12846   0.00000  Uiso   1.00
O397   O     0.83333   0.77226   0.12843   0.00000  Uiso   1.00
O398   O     0.83334   0.89441   0.20490   0.00000  Uiso   1.00
O399   O     0.75725   0.83333   0.19595   0.00000  Uiso   1.00
O400   O     0.90942   0.83334   0.13739   0.00000  Uiso   1.00
O401   O     0.75725   0.83334   0.11950   0.00000  Uiso   1.00
O402   O     0.90942   0.83333   0.21383   0.00000  Uiso   1.00
Zn403  Zn    0.83333   0.83333   0.21771   0.00000  Uiso   1.00
Zn404  Zn    0.83333   0.83334   0.11563   0.00000  Uiso   1.00
S405   S     0.93227   0.87572   0.30462   0.00000  Uiso   1.00
O406   O     0.96042   0.90293   0.01058   0.00000  Uiso   1.00
O407   O     0.96622   0.83927   0.29804   0.00000  Uiso   1.00
O408   O     0.92525   0.90437   0.25848   0.00000  Uiso   1.00
H409   H     0.96170   0.91127   0.25384   0.00000  Uiso   1.00
S410   S     0.76783   0.76104   0.03146   0.00000  Uiso   1.00
O411   O     0.73219   0.74157   0.32375   0.00000  Uiso   1.00
O412   O     0.81063   0.73104   0.04608   0.00000  Uiso   1.00
O413   O     0.73134   0.76809   0.07248   0.00000  Uiso   1.00
H414   H     0.70314   0.74591   0.06663   0.00000  Uiso   1.00
C415   C     0.16605   0.08675   0.49932   0.00000  Uiso   1.00
C416   C     0.16616   0.24657   0.50065   0.00000  Uiso   1.00
C417   C     0.06706   0.16673   0.48789   0.00000  Uiso   1.00
C418   C     0.26628   0.16667   0.51210   0.00000  Uiso   1.00
C419   C     0.01170   0.16678   0.48158   0.00000  Uiso   1.00
C420   C     0.32163   0.16668   0.51836   0.00000  Uiso   1.00
C421   C     0.13164   0.01910   0.46576   0.00000  Uiso   1.00
C422   C     0.19625   0.31435   0.53625   0.00000  Uiso   1.00
C423   C     0.13153   0.30953   0.46647   0.00000  Uiso   1.00
C424   C     0.19772   0.02377   0.53461   0.00000  Uiso   1.00
C425   C     0.16425   0.29075   0.50156   0.00000  Uiso   1.00
C426   C     0.16598   0.04256   0.49897   0.00000  Uiso   1.00
C427   C     0.20156   0.19124   0.36413   0.00000  Uiso   1.00
C428   C     0.12997   0.14387   0.63569   0.00000  Uiso   1.00
C429   C     0.20467   0.18924   0.65044   0.00000  Uiso   1.00
C430   C     0.13216   0.14082   0.34992   0.00000  Uiso   1.00
H431   H     0.32377   0.16688   0.44687   0.00000  Uiso   1.00
H432   H     0.00962   0.16659   0.55302   0.00000  Uiso   1.00
H433   H     0.10416   0.03370   0.44032   0.00000  Uiso   1.00
H434   H     0.22097   0.30014   0.56378   0.00000  Uiso   1.00
H435   H     0.10559   0.29104   0.44027   0.00000  Uiso   1.00
H436   H     0.22352   0.04217   0.56100   0.00000  Uiso   1.00
H437   H     0.23006   0.20965   0.38819   0.00000  Uiso   1.00
H438   H     0.10222   0.12481   0.61166   0.00000  Uiso   1.00
N439   N     0.16665   0.16666   0.61907   0.00000  Uiso   1.00
N440   N     0.16668   0.16668   0.38093   0.00000  Uiso   1.00
O441   O     0.16666   0.10558   0.53821   0.00000  Uiso   1.00
O442   O     0.16667   0.22775   0.46179   0.00000  Uiso   1.00
O443   O     0.16666   0.10559   0.46176   0.00000  Uiso   1.00
O444   O     0.16667   0.22774   0.53824   0.00000  Uiso   1.00
O445   O     0.09058   0.16666   0.52928   0.00000  Uiso   1.00
O446   O     0.24275   0.16667   0.47072   0.00000  Uiso   1.00
O447   O     0.09058   0.16667   0.45284   0.00000  Uiso   1.00
O448   O     0.24275   0.16666   0.54716   0.00000  Uiso   1.00
Zn449  Zn    0.16667   0.16666   0.55104   0.00000  Uiso   1.00
Zn450  Zn    0.16667   0.16667   0.44896   0.00000  Uiso   1.00
S451   S     0.26560   0.20905   0.63795   0.00000  Uiso   1.00
O452   O     0.29375   0.23627   0.34391   0.00000  Uiso   1.00
O453   O     0.29955   0.17261   0.63138   0.00000  Uiso   1.00
O454   O     0.25858   0.23771   0.59182   0.00000  Uiso   1.00
H455   H     0.29504   0.24460   0.58717   0.00000  Uiso   1.00
S456   S     0.10116   0.09438   0.36480   0.00000  Uiso   1.00
O457   O     0.06552   0.07490   0.65708   0.00000  Uiso   1.00
O458   O     0.14397   0.06437   0.37941   0.00000  Uiso   1.00
O459   O     0.06467   0.10143   0.40581   0.00000  Uiso   1.00
H460   H     0.03648   0.07924   0.39997   0.00000  Uiso   1.00
C461   C     0.49938   0.08675   0.49932   0.00000  Uiso   1.00
C462   C     0.49949   0.24657   0.50065   0.00000  Uiso   1.00
C463   C     0.40039   0.16673   0.48789   0.00000  Uiso   1.00
C464   C     0.59961   0.16667   0.51210   0.00000  Uiso   1.00
C465   C     0.34503   0.16678   0.48158   0.00000  Uiso   1.00
C466   C     0.65497   0.16668   0.51836   0.00000  Uiso   1.00
C467   C     0.46498   0.01910   0.46576   0.00000  Uiso   1.00
C468   C     0.52958   0.31435   0.53625   0.00000  Uiso   1.00
C469   C     0.46486   0.30953   0.46647   0.00000  Uiso   1.00
C470   C     0.53106   0.02377   0.53461   0.00000  Uiso   1.00
C471   C     0.49758   0.29075   0.50156   0.00000  Uiso   1.00
C472   C     0.49931   0.04256   0.49897   0.00000  Uiso   1.00
C473   C     0.53490   0.19124   0.36413   0.00000  Uiso   1.00
C474   C     0.46330   0.14387   0.63569   0.00000  Uiso   1.00
C475   C     0.53800   0.18924   0.65044   0.00000  Uiso   1.00
C476   C     0.46549   0.14082   0.34992   0.00000  Uiso   1.00
H477   H     0.65710   0.16688   0.44687   0.00000  Uiso   1.00
H478   H     0.34295   0.16659   0.55302   0.00000  Uiso   1.00
H479   H     0.43749   0.03370   0.44032   0.00000  Uiso   1.00
H480   H     0.55431   0.30014   0.56378   0.00000  Uiso   1.00
H481   H     0.43893   0.29104   0.44027   0.00000  Uiso   1.00
H482   H     0.55685   0.04217   0.56100   0.00000  Uiso   1.00
H483   H     0.56339   0.20965   0.38819   0.00000  Uiso   1.00
H484   H     0.43556   0.12481   0.61166   0.00000  Uiso   1.00
N485   N     0.49999   0.16666   0.61907   0.00000  Uiso   1.00
N486   N     0.50001   0.16668   0.38093   0.00000  Uiso   1.00
O487   O     0.50000   0.10558   0.53821   0.00000  Uiso   1.00
O488   O     0.50000   0.22775   0.46179   0.00000  Uiso   1.00
O489   O     0.50000   0.10559   0.46176   0.00000  Uiso   1.00
O490   O     0.50000   0.22774   0.53824   0.00000  Uiso   1.00
O491   O     0.42392   0.16666   0.52928   0.00000  Uiso   1.00
O492   O     0.57608   0.16667   0.47072   0.00000  Uiso   1.00
O493   O     0.42392   0.16667   0.45284   0.00000  Uiso   1.00
O494   O     0.57608   0.16666   0.54716   0.00000  Uiso   1.00
Zn495  Zn    0.50000   0.16666   0.55104   0.00000  Uiso   1.00
Zn496  Zn    0.50000   0.16667   0.44896   0.00000  Uiso   1.00
S497   S     0.59893   0.20905   0.63795   0.00000  Uiso   1.00
O498   O     0.62709   0.23627   0.34391   0.00000  Uiso   1.00
O499   O     0.63289   0.17261   0.63138   0.00000  Uiso   1.00
O500   O     0.59191   0.23771   0.59182   0.00000  Uiso   1.00
H501   H     0.62837   0.24460   0.58717   0.00000  Uiso   1.00
S502   S     0.43449   0.09438   0.36480   0.00000  Uiso   1.00
O503   O     0.39886   0.07490   0.65708   0.00000  Uiso   1.00
O504   O     0.47730   0.06437   0.37941   0.00000  Uiso   1.00
O505   O     0.39801   0.10143   0.40581   0.00000  Uiso   1.00
H506   H     0.36981   0.07924   0.39997   0.00000  Uiso   1.00
C507   C     0.83271   0.08675   0.49932   0.00000  Uiso   1.00
C508   C     0.83282   0.24657   0.50065   0.00000  Uiso   1.00
C509   C     0.73372   0.16673   0.48789   0.00000  Uiso   1.00
C510   C     0.93294   0.16667   0.51210   0.00000  Uiso   1.00
C511   C     0.67837   0.16678   0.48158   0.00000  Uiso   1.00
C512   C     0.98830   0.16668   0.51836   0.00000  Uiso   1.00
C513   C     0.79831   0.01910   0.46576   0.00000  Uiso   1.00
C514   C     0.86292   0.31435   0.53625   0.00000  Uiso   1.00
C515   C     0.79820   0.30953   0.46647   0.00000  Uiso   1.00
C516   C     0.86439   0.02377   0.53461   0.00000  Uiso   1.00
C517   C     0.83092   0.29075   0.50156   0.00000  Uiso   1.00
C518   C     0.83265   0.04256   0.49897   0.00000  Uiso   1.00
C519   C     0.86823   0.19124   0.36413   0.00000  Uiso   1.00
C520   C     0.79663   0.14387   0.63569   0.00000  Uiso   1.00
C521   C     0.87133   0.18924   0.65044   0.00000  Uiso   1.00
C522   C     0.79883   0.14082   0.34992   0.00000  Uiso   1.00
H523   H     0.99043   0.16688   0.44687   0.00000  Uiso   1.00
H524   H     0.67629   0.16659   0.55302   0.00000  Uiso   1.00
H525   H     0.77083   0.03370   0.44032   0.00000  Uiso   1.00
H526   H     0.88764   0.30014   0.56378   0.00000  Uiso   1.00
H527   H     0.77226   0.29104   0.44027   0.00000  Uiso   1.00
H528   H     0.89019   0.04217   0.56100   0.00000  Uiso   1.00
H529   H     0.89673   0.20965   0.38819   0.00000  Uiso   1.00
H530   H     0.76889   0.12481   0.61166   0.00000  Uiso   1.00
N531   N     0.83332   0.16666   0.61907   0.00000  Uiso   1.00
N532   N     0.83335   0.16668   0.38093   0.00000  Uiso   1.00
O533   O     0.83333   0.10558   0.53821   0.00000  Uiso   1.00
O534   O     0.83334   0.22775   0.46179   0.00000  Uiso   1.00
O535   O     0.83333   0.10559   0.46176   0.00000  Uiso   1.00
O536   O     0.83334   0.22774   0.53824   0.00000  Uiso   1.00
O537   O     0.75725   0.16666   0.52928   0.00000  Uiso   1.00
O538   O     0.90942   0.16667   0.47072   0.00000  Uiso   1.00
O539   O     0.75725   0.16667   0.45284   0.00000  Uiso   1.00
O540   O     0.90942   0.16666   0.54716   0.00000  Uiso   1.00
Zn541  Zn    0.83333   0.16666   0.55104   0.00000  Uiso   1.00
Zn542  Zn    0.83333   0.16667   0.44896   0.00000  Uiso   1.00
S543   S     0.93227   0.20905   0.63795   0.00000  Uiso   1.00
O544   O     0.96042   0.23627   0.34391   0.00000  Uiso   1.00
O545   O     0.96622   0.17261   0.63138   0.00000  Uiso   1.00
O546   O     0.92525   0.23771   0.59182   0.00000  Uiso   1.00
H547   H     0.96170   0.24460   0.58717   0.00000  Uiso   1.00
S548   S     0.76783   0.09438   0.36480   0.00000  Uiso   1.00
O549   O     0.73219   0.07490   0.65708   0.00000  Uiso   1.00
O550   O     0.81063   0.06437   0.37941   0.00000  Uiso   1.00
O551   O     0.73134   0.10143   0.40581   0.00000  Uiso   1.00
H552   H     0.70314   0.07924   0.39997   0.00000  Uiso   1.00
C553   C     0.16605   0.42009   0.49932   0.00000  Uiso   1.00
C554   C     0.16616   0.57991   0.50065   0.00000  Uiso   1.00
C555   C     0.06706   0.50006   0.48789   0.00000  Uiso   1.00
C556   C     0.26628   0.50000   0.51210   0.00000  Uiso   1.00
C557   C     0.01170   0.50012   0.48158   0.00000  Uiso   1.00
C558   C     0.32163   0.50002   0.51836   0.00000  Uiso   1.00
C559   C     0.13164   0.35243   0.46576   0.00000  Uiso   1.00
C560   C     0.19625   0.64768   0.53625   0.00000  Uiso   1.00
C561   C     0.13153   0.64286   0.46647   0.00000  Uiso   1.00
C562   C     0.19772   0.35710   0.53461   0.00000  Uiso   1.00
C563   C     0.16425   0.62408   0.50156   0.00000  Uiso   1.00
C564   C     0.16598   0.37589   0.49897   0.00000  Uiso   1.00
C565   C     0.20156   0.52457   0.36413   0.00000  Uiso   1.00
C566   C     0.12997   0.47721   0.63569   0.00000  Uiso   1.00
C567   C     0.20467   0.52258   0.65044   0.00000  Uiso   1.00
C568   C     0.13216   0.47415   0.34992   0.00000  Uiso   1.00
H569   H     0.32377   0.50021   0.44687   0.00000  Uiso   1.00
H570   H     0.00962   0.49993   0.55302   0.00000  Uiso   1.00
H571   H     0.10416   0.36703   0.44032   0.00000  Uiso   1.00
H572   H     0.22097   0.63347   0.56378   0.00000  Uiso   1.00
H573   H     0.10559   0.62437   0.44027   0.00000  Uiso   1.00
H574   H     0.22352   0.37551   0.56100   0.00000  Uiso   1.00
H575   H     0.23006   0.54298   0.38819   0.00000  Uiso   1.00
H576   H     0.10222   0.45814   0.61166   0.00000  Uiso   1.00
N577   N     0.16665   0.49999   0.61907   0.00000  Uiso   1.00
N578   N     0.16668   0.50001   0.38093   0.00000  Uiso   1.00
O579   O     0.16666   0.43892   0.53821   0.00000  Uiso   1.00
O580   O     0.16667   0.56108   0.46179   0.00000  Uiso   1.00
O581   O     0.16666   0.43893   0.46176   0.00000  Uiso   1.00
O582   O     0.16667   0.56107   0.53824   0.00000  Uiso   1.00
O583   O     0.09058   0.50000   0.52928   0.00000  Uiso   1.00
O584   O     0.24275   0.50000   0.47072   0.00000  Uiso   1.00
O585   O     0.09058   0.50000   0.45284   0.00000  Uiso   1.00
O586   O     0.24275   0.50000   0.54716   0.00000  Uiso   1.00
Zn587  Zn    0.16667   0.49999   0.55104   0.00000  Uiso   1.00
Zn588  Zn    0.16667   0.50001   0.44896   0.00000  Uiso   1.00
S589   S     0.26560   0.54239   0.63795   0.00000  Uiso   1.00
O590   O     0.29375   0.56960   0.34391   0.00000  Uiso   1.00
O591   O     0.29955   0.50594   0.63138   0.00000  Uiso   1.00
O592   O     0.25858   0.57104   0.59182   0.00000  Uiso   1.00
H593   H     0.29504   0.57794   0.58717   0.00000  Uiso   1.00
S594   S     0.10116   0.42771   0.36480   0.00000  Uiso   1.00
O595   O     0.06552   0.40823   0.65708   0.00000  Uiso   1.00
O596   O     0.14397   0.39770   0.37941   0.00000  Uiso   1.00
O597   O     0.06467   0.43476   0.40581   0.00000  Uiso   1.00
H598   H     0.03648   0.41257   0.39997   0.00000  Uiso   1.00
C599   C     0.49938   0.42009   0.49932   0.00000  Uiso   1.00
C600   C     0.49949   0.57991   0.50065   0.00000  Uiso   1.00
C601   C     0.40039   0.50006   0.48789   0.00000  Uiso   1.00
C602   C     0.59961   0.50000   0.51210   0.00000  Uiso   1.00
C603   C     0.34503   0.50012   0.48158   0.00000  Uiso   1.00
C604   C     0.65497   0.50002   0.51836   0.00000  Uiso   1.00
C605   C     0.46498   0.35243   0.46576   0.00000  Uiso   1.00
C606   C     0.52958   0.64768   0.53625   0.00000  Uiso   1.00
C607   C     0.46486   0.64286   0.46647   0.00000  Uiso   1.00
C608   C     0.53106   0.35710   0.53461   0.00000  Uiso   1.00
C609   C     0.49758   0.62408   0.50156   0.00000  Uiso   1.00
C610   C     0.49931   0.37589   0.49897   0.00000  Uiso   1.00
C611   C     0.53490   0.52457   0.36413   0.00000  Uiso   1.00
C612   C     0.46330   0.47721   0.63569   0.00000  Uiso   1.00
C613   C     0.53800   0.52258   0.65044   0.00000  Uiso   1.00
C614   C     0.46549   0.47415   0.34992   0.00000  Uiso   1.00
H615   H     0.65710   0.50021   0.44687   0.00000  Uiso   1.00
H616   H     0.34295   0.49993   0.55302   0.00000  Uiso   1.00
H617   H     0.43749   0.36703   0.44032   0.00000  Uiso   1.00
H618   H     0.55431   0.63347   0.56378   0.00000  Uiso   1.00
H619   H     0.43893   0.62437   0.44027   0.00000  Uiso   1.00
H620   H     0.55685   0.37551   0.56100   0.00000  Uiso   1.00
H621   H     0.56339   0.54298   0.38819   0.00000  Uiso   1.00
H622   H     0.43556   0.45814   0.61166   0.00000  Uiso   1.00
N623   N     0.49999   0.49999   0.61907   0.00000  Uiso   1.00
N624   N     0.50001   0.50001   0.38093   0.00000  Uiso   1.00
O625   O     0.50000   0.43892   0.53821   0.00000  Uiso   1.00
O626   O     0.50000   0.56108   0.46179   0.00000  Uiso   1.00
O627   O     0.50000   0.43893   0.46176   0.00000  Uiso   1.00
O628   O     0.50000   0.56107   0.53824   0.00000  Uiso   1.00
O629   O     0.42392   0.50000   0.52928   0.00000  Uiso   1.00
O630   O     0.57608   0.50000   0.47072   0.00000  Uiso   1.00
O631   O     0.42392   0.50000   0.45284   0.00000  Uiso   1.00
O632   O     0.57608   0.50000   0.54716   0.00000  Uiso   1.00
Zn633  Zn    0.50000   0.49999   0.55104   0.00000  Uiso   1.00
Zn634  Zn    0.50000   0.50001   0.44896   0.00000  Uiso   1.00
S635   S     0.59893   0.54239   0.63795   0.00000  Uiso   1.00
O636   O     0.62709   0.56960   0.34391   0.00000  Uiso   1.00
O637   O     0.63289   0.50594   0.63138   0.00000  Uiso   1.00
O638   O     0.59191   0.57104   0.59182   0.00000  Uiso   1.00
H639   H     0.62837   0.57794   0.58717   0.00000  Uiso   1.00
S640   S     0.43449   0.42771   0.36480   0.00000  Uiso   1.00
O641   O     0.39886   0.40823   0.65708   0.00000  Uiso   1.00
O642   O     0.47730   0.39770   0.37941   0.00000  Uiso   1.00
O643   O     0.39801   0.43476   0.40581   0.00000  Uiso   1.00
H644   H     0.36981   0.41257   0.39997   0.00000  Uiso   1.00
C645   C     0.83271   0.42009   0.49932   0.00000  Uiso   1.00
C646   C     0.83282   0.57991   0.50065   0.00000  Uiso   1.00
C647   C     0.73372   0.50006   0.48789   0.00000  Uiso   1.00
C648   C     0.93294   0.50000   0.51210   0.00000  Uiso   1.00
C649   C     0.67837   0.50012   0.48158   0.00000  Uiso   1.00
C650   C     0.98830   0.50002   0.51836   0.00000  Uiso   1.00
C651   C     0.79831   0.35243   0.46576   0.00000  Uiso   1.00
C652   C     0.86292   0.64768   0.53625   0.00000  Uiso   1.00
C653   C     0.79820   0.64286   0.46647   0.00000  Uiso   1.00
C654   C     0.86439   0.35710   0.53461   0.00000  Uiso   1.00
C655   C     0.83092   0.62408   0.50156   0.00000  Uiso   1.00
C656   C     0.83265   0.37589   0.49897   0.00000  Uiso   1.00
C657   C     0.86823   0.52457   0.36413   0.00000  Uiso   1.00
C658   C     0.79663   0.47721   0.63569   0.00000  Uiso   1.00
C659   C     0.87133   0.52258   0.65044   0.00000  Uiso   1.00
C660   C     0.79883   0.47415   0.34992   0.00000  Uiso   1.00
H661   H     0.99043   0.50021   0.44687   0.00000  Uiso   1.00
H662   H     0.67629   0.49993   0.55302   0.00000  Uiso   1.00
H663   H     0.77083   0.36703   0.44032   0.00000  Uiso   1.00
H664   H     0.88764   0.63347   0.56378   0.00000  Uiso   1.00
H665   H     0.77226   0.62437   0.44027   0.00000  Uiso   1.00
H666   H     0.89019   0.37551   0.56100   0.00000  Uiso   1.00
H667   H     0.89673   0.54298   0.38819   0.00000  Uiso   1.00
H668   H     0.76889   0.45814   0.61166   0.00000  Uiso   1.00
N669   N     0.83332   0.49999   0.61907   0.00000  Uiso   1.00
N670   N     0.83335   0.50001   0.38093   0.00000  Uiso   1.00
O671   O     0.83333   0.43892   0.53821   0.00000  Uiso   1.00
O672   O     0.83334   0.56108   0.46179   0.00000  Uiso   1.00
O673   O     0.83333   0.43893   0.46176   0.00000  Uiso   1.00
O674   O     0.83334   0.56107   0.53824   0.00000  Uiso   1.00
O675   O     0.75725   0.50000   0.52928   0.00000  Uiso   1.00
O676   O     0.90942   0.50000   0.47072   0.00000  Uiso   1.00
O677   O     0.75725   0.50000   0.45284   0.00000  Uiso   1.00
O678   O     0.90942   0.50000   0.54716   0.00000  Uiso   1.00
Zn679  Zn    0.83333   0.49999   0.55104   0.00000  Uiso   1.00
Zn680  Zn    0.83333   0.50001   0.44896   0.00000  Uiso   1.00
S681   S     0.93227   0.54239   0.63795   0.00000  Uiso   1.00
O682   O     0.96042   0.56960   0.34391   0.00000  Uiso   1.00
O683   O     0.96622   0.50594   0.63138   0.00000  Uiso   1.00
O684   O     0.92525   0.57104   0.59182   0.00000  Uiso   1.00
H685   H     0.96170   0.57794   0.58717   0.00000  Uiso   1.00
S686   S     0.76783   0.42771   0.36480   0.00000  Uiso   1.00
O687   O     0.73219   0.40823   0.65708   0.00000  Uiso   1.00
O688   O     0.81063   0.39770   0.37941   0.00000  Uiso   1.00
O689   O     0.73134   0.43476   0.40581   0.00000  Uiso   1.00
H690   H     0.70314   0.41257   0.39997   0.00000  Uiso   1.00
C691   C     0.16605   0.75342   0.49932   0.00000  Uiso   1.00
C692   C     0.16616   0.91324   0.50065   0.00000  Uiso   1.00
C693   C     0.06706   0.83339   0.48789   0.00000  Uiso   1.00
C694   C     0.26628   0.83334   0.51210   0.00000  Uiso   1.00
C695   C     0.01170   0.83345   0.48158   0.00000  Uiso   1.00
C696   C     0.32163   0.83335   0.51836   0.00000  Uiso   1.00
C697   C     0.13164   0.68577   0.46576   0.00000  Uiso   1.00
C698   C     0.19625   0.98101   0.53625   0.00000  Uiso   1.00
C699   C     0.13153   0.97619   0.46647   0.00000  Uiso   1.00
C700   C     0.19772   0.69043   0.53461   0.00000  Uiso   1.00
C701   C     0.16425   0.95741   0.50156   0.00000  Uiso   1.00
C702   C     0.16598   0.70922   0.49897   0.00000  Uiso   1.00
C703   C     0.20156   0.85790   0.36413   0.00000  Uiso   1.00
C704   C     0.12997   0.81054   0.63569   0.00000  Uiso   1.00
C705   C     0.20467   0.85591   0.65044   0.00000  Uiso   1.00
C706   C     0.13216   0.80749   0.34992   0.00000  Uiso   1.00
H707   H     0.32377   0.83355   0.44687   0.00000  Uiso   1.00
H708   H     0.00962   0.83326   0.55302   0.00000  Uiso   1.00
H709   H     0.10416   0.70037   0.44032   0.00000  Uiso   1.00
H710   H     0.22097   0.96680   0.56378   0.00000  Uiso   1.00
H711   H     0.10559   0.95770   0.44027   0.00000  Uiso   1.00
H712   H     0.22352   0.70884   0.56100   0.00000  Uiso   1.00
H713   H     0.23006   0.87631   0.38819   0.00000  Uiso   1.00
H714   H     0.10222   0.79147   0.61166   0.00000  Uiso   1.00
N715   N     0.16665   0.83332   0.61907   0.00000  Uiso   1.00
N716   N     0.16668   0.83334   0.38093   0.00000  Uiso   1.00
O717   O     0.16666   0.77225   0.53821   0.00000  Uiso   1.00
O718   O     0.16667   0.89442   0.46179   0.00000  Uiso   1.00
O719   O     0.16666   0.77226   0.46176   0.00000  Uiso   1.00
O720   O     0.16667   0.89441   0.53824   0.00000  Uiso   1.00
O721   O     0.09058   0.83333   0.52928   0.00000  Uiso   1.00
O722   O     0.24275   0.83334   0.47072   0.00000  Uiso   1.00
O723   O     0.09058   0.83334   0.45284   0.00000  Uiso   1.00
O724   O     0.24275   0.83333   0.54716   0.00000  Uiso   1.00
Zn725  Zn    0.16667   0.83333   0.55104   0.00000  Uiso   1.00
Zn726  Zn    0.16667   0.83334   0.44896   0.00000  Uiso   1.00
S727   S     0.26560   0.87572   0.63795   0.00000  Uiso   1.00
O728   O     0.29375   0.90293   0.34391   0.00000  Uiso   1.00
O729   O     0.29955   0.83927   0.63138   0.00000  Uiso   1.00
O730   O     0.25858   0.90437   0.59182   0.00000  Uiso   1.00
H731   H     0.29504   0.91127   0.58717   0.00000  Uiso   1.00
S732   S     0.10116   0.76104   0.36480   0.00000  Uiso   1.00
O733   O     0.06552   0.74157   0.65708   0.00000  Uiso   1.00
O734   O     0.14397   0.73104   0.37941   0.00000  Uiso   1.00
O735   O     0.06467   0.76809   0.40581   0.00000  Uiso   1.00
H736   H     0.03648   0.74591   0.39997   0.00000  Uiso   1.00
C737   C     0.49938   0.75342   0.49932   0.00000  Uiso   1.00
C738   C     0.49949   0.91324   0.50065   0.00000  Uiso   1.00
C739   C     0.40039   0.83339   0.48789   0.00000  Uiso   1.00
C740   C     0.59961   0.83334   0.51210   0.00000  Uiso   1.00
C741   C     0.34503   0.83345   0.48158   0.00000  Uiso   1.00
C742   C     0.65497   0.83335   0.51836   0.00000  Uiso   1.00
C743   C     0.46498   0.68577   0.46576   0.00000  Uiso   1.00
C744   C     0.52958   0.98101   0.53625   0.00000  Uiso   1.00
C745   C     0.46486   0.97619   0.46647   0.00000  Uiso   1.00
C746   C     0.53106   0.69043   0.53461   0.00000  Uiso   1.00
C747   C     0.49758   0.95741   0.50156   0.00000  Uiso   1.00
C748   C     0.49931   0.70922   0.49897   0.00000  Uiso   1.00
C749   C     0.53490   0.85790   0.36413   0.00000  Uiso   1.00
C750   C     0.46330   0.81054   0.63569   0.00000  Uiso   1.00
C751   C     0.53800   0.85591   0.65044   0.00000  Uiso   1.00
C752   C     0.46549   0.80749   0.34992   0.00000  Uiso   1.00
H753   H     0.65710   0.83355   0.44687   0.00000  Uiso   1.00
H754   H     0.34295   0.83326   0.55302   0.00000  Uiso   1.00
H755   H     0.43749   0.70037   0.44032   0.00000  Uiso   1.00
H756   H     0.55431   0.96680   0.56378   0.00000  Uiso   1.00
H757   H     0.43893   0.95770   0.44027   0.00000  Uiso   1.00
H758   H     0.55685   0.70884   0.56100   0.00000  Uiso   1.00
H759   H     0.56339   0.87631   0.38819   0.00000  Uiso   1.00
H760   H     0.43556   0.79147   0.61166   0.00000  Uiso   1.00
N761   N     0.49999   0.83332   0.61907   0.00000  Uiso   1.00
N762   N     0.50001   0.83334   0.38093   0.00000  Uiso   1.00
O763   O     0.50000   0.77225   0.53821   0.00000  Uiso   1.00
O764   O     0.50000   0.89442   0.46179   0.00000  Uiso   1.00
O765   O     0.50000   0.77226   0.46176   0.00000  Uiso   1.00
O766   O     0.50000   0.89441   0.53824   0.00000  Uiso   1.00
O767   O     0.42392   0.83333   0.52928   0.00000  Uiso   1.00
O768   O     0.57608   0.83334   0.47072   0.00000  Uiso   1.00
O769   O     0.42392   0.83334   0.45284   0.00000  Uiso   1.00
O770   O     0.57608   0.83333   0.54716   0.00000  Uiso   1.00
Zn771  Zn    0.50000   0.83333   0.55104   0.00000  Uiso   1.00
Zn772  Zn    0.50000   0.83334   0.44896   0.00000  Uiso   1.00
S773   S     0.59893   0.87572   0.63795   0.00000  Uiso   1.00
O774   O     0.62709   0.90293   0.34391   0.00000  Uiso   1.00
O775   O     0.63289   0.83927   0.63138   0.00000  Uiso   1.00
O776   O     0.59191   0.90437   0.59182   0.00000  Uiso   1.00
H777   H     0.62837   0.91127   0.58717   0.00000  Uiso   1.00
S778   S     0.43449   0.76104   0.36480   0.00000  Uiso   1.00
O779   O     0.39886   0.74157   0.65708   0.00000  Uiso   1.00
O780   O     0.47730   0.73104   0.37941   0.00000  Uiso   1.00
O781   O     0.39801   0.76809   0.40581   0.00000  Uiso   1.00
H782   H     0.36981   0.74591   0.39997   0.00000  Uiso   1.00
C783   C     0.83271   0.75342   0.49932   0.00000  Uiso   1.00
C784   C     0.83282   0.91324   0.50065   0.00000  Uiso   1.00
C785   C     0.73372   0.83339   0.48789   0.00000  Uiso   1.00
C786   C     0.93294   0.83334   0.51210   0.00000  Uiso   1.00
C787   C     0.67837   0.83345   0.48158   0.00000  Uiso   1.00
C788   C     0.98830   0.83335   0.51836   0.00000  Uiso   1.00
C789   C     0.79831   0.68577   0.46576   0.00000  Uiso   1.00
C790   C     0.86292   0.98101   0.53625   0.00000  Uiso   1.00
C791   C     0.79820   0.97619   0.46647   0.00000  Uiso   1.00
C792   C     0.86439   0.69043   0.53461   0.00000  Uiso   1.00
C793   C     0.83092   0.95741   0.50156   0.00000  Uiso   1.00
C794   C     0.83265   0.70922   0.49897   0.00000  Uiso   1.00
C795   C     0.86823   0.85790   0.36413   0.00000  Uiso   1.00
C796   C     0.79663   0.81054   0.63569   0.00000  Uiso   1.00
C797   C     0.87133   0.85591   0.65044   0.00000  Uiso   1.00
C798   C     0.79883   0.80749   0.34992   0.00000  Uiso   1.00
H799   H     0.99043   0.83355   0.44687   0.00000  Uiso   1.00
H800   H     0.67629   0.83326   0.55302   0.00000  Uiso   1.00
H801   H     0.77083   0.70037   0.44032   0.00000  Uiso   1.00
H802   H     0.88764   0.96680   0.56378   0.00000  Uiso   1.00
H803   H     0.77226   0.95770   0.44027   0.00000  Uiso   1.00
H804   H     0.89019   0.70884   0.56100   0.00000  Uiso   1.00
H805   H     0.89673   0.87631   0.38819   0.00000  Uiso   1.00
H806   H     0.76889   0.79147   0.61166   0.00000  Uiso   1.00
N807   N     0.83332   0.83332   0.61907   0.00000  Uiso   1.00
N808   N     0.83335   0.83334   0.38093   0.00000  Uiso   1.00
O809   O     0.83333   0.77225   0.53821   0.00000  Uiso   1.00
O810   O     0.83334   0.89442   0.46179   0.00000  Uiso   1.00
O811   O     0.83333   0.77226   0.46176   0.00000  Uiso   1.00
O812   O     0.83334   0.89441   0.53824   0.00000  Uiso   1.00
O813   O     0.75725   0.83333   0.52928   0.00000  Uiso   1.00
O814   O     0.90942   0.83334   0.47072   0.00000  Uiso   1.00
O815   O     0.75725   0.83334   0.45284   0.00000  Uiso   1.00
O816   O     0.90942   0.83333   0.54716   0.00000  Uiso   1.00
Zn817  Zn    0.83333   0.83333   0.55104   0.00000  Uiso   1.00
Zn818  Zn    0.83333   0.83334   0.44896   0.00000  Uiso   1.00
S819   S     0.93227   0.87572   0.63795   0.00000  Uiso   1.00
O820   O     0.96042   0.90293   0.34391   0.00000  Uiso   1.00
O821   O     0.96622   0.83927   0.63138   0.00000  Uiso   1.00
O822   O     0.92525   0.90437   0.59182   0.00000  Uiso   1.00
H823   H     0.96170   0.91127   0.58717   0.00000  Uiso   1.00
S824   S     0.76783   0.76104   0.36480   0.00000  Uiso   1.00
O825   O     0.73219   0.74157   0.65708   0.00000  Uiso   1.00
O826   O     0.81063   0.73104   0.37941   0.00000  Uiso   1.00
O827   O     0.73134   0.76809   0.40581   0.00000  Uiso   1.00
H828   H     0.70314   0.74591   0.39997   0.00000  Uiso   1.00
C829   C     0.16605   0.08675   0.83265   0.00000  Uiso   1.00
C830   C     0.16616   0.24657   0.83398   0.00000  Uiso   1.00
C831   C     0.06706   0.16673   0.82123   0.00000  Uiso   1.00
C832   C     0.26628   0.16667   0.84543   0.00000  Uiso   1.00
C833   C     0.01170   0.16678   0.81491   0.00000  Uiso   1.00
C834   C     0.32163   0.16668   0.85169   0.00000  Uiso   1.00
C835   C     0.13164   0.01910   0.79909   0.00000  Uiso   1.00
C836   C     0.19625   0.31435   0.86958   0.00000  Uiso   1.00
C837   C     0.13153   0.30953   0.79981   0.00000  Uiso   1.00
C838   C     0.19772   0.02377   0.86794   0.00000  Uiso   1.00
C839   C     0.16425   0.29075   0.83489   0.00000  Uiso   1.00
C840   C     0.16598   0.04256   0.83230   0.00000  Uiso   1.00
C841   C     0.20156   0.19124   0.69746   0.00000  Uiso   1.00
C842   C     0.12997   0.14387   0.96902   0.00000  Uiso   1.00
C843   C     0.20467   0.18924   0.98377   0.00000  Uiso   1.00
C844   C     0.13216   0.14082   0.68326   0.00000  Uiso   1.00
H845   H     0.32377   0.16688   0.78020   0.00000  Uiso   1.00
H846   H     0.00962   0.16659   0.88636   0.00000  Uiso   1.00
H847   H     0.10416   0.03370   0.77365   0.00000  Uiso   1.00
H848   H     0.22097   0.30014   0.89711   0.00000  Uiso   1.00
H849   H     0.10559   0.29104   0.77360   0.00000  Uiso   1.00
H850   H     0.22352   0.04217   0.89433   0.00000  Uiso   1.00
H851   H     0.23006   0.20965   0.72152   0.00000  Uiso   1.00
H852   H     0.10222   0.12481   0.94499   0.00000  Uiso   1.00
N853   N     0.16665   0.16666   0.95240   0.00000  Uiso   1.00
N854   N     0.16668   0.16668   0.71427   0.00000  Uiso   1.00
O855   O     0.16666   0.10558   0.87154   0.00000  Uiso   1.00
O856   O     0.16667   0.22775   0.79513   0.00000  Uiso   1.00
O857   O     0.16666   0.10559   0.79510   0.00000  Uiso   1.00
O858   O     0.16667   0.22774   0.87157   0.00000  Uiso   1.00
O859   O     0.09058   0.16666   0.86261   0.00000  Uiso   1.00
O860   O     0.24275   0.16667   0.80405   0.00000  Uiso   1.00
O861   O     0.09058   0.16667   0.78617   0.00000  Uiso   1.00
O862   O     0.24275   0.16666   0.88050   0.00000  Uiso   1.00
Zn863  Zn    0.16667   0.16666   0.88437   0.00000  Uiso   1.00
Zn864  Zn    0.16667   0.16667   0.78229   0.00000  Uiso   1.00
S865   S     0.26560   0.20905   0.97129   0.00000  Uiso   1.00
O866   O     0.29375   0.23627   0.67724   0.00000  Uiso   1.00
O867   O     0.29955   0.17261   0.96471   0.00000  Uiso   1.00
O868   O     0.25858   0.23771   0.92515   0.00000  Uiso   1.00
H869   H     0.29504   0.24460   0.92050   0.00000  Uiso   1.00
S870   S     0.10116   0.09438   0.69813   0.00000  Uiso   1.00
O871   O     0.06552   0.07490   0.99041   0.00000  Uiso   1.00
O872   O     0.14397   0.06437   0.71274   0.00000  Uiso   1.00
O873   O     0.06467   0.10143   0.73914   0.00000  Uiso   1.00
H874   H     0.03648   0.07924   0.73330   0.00000  Uiso   1.00
C875   C     0.49938   0.08675   0.83265   0.00000  Uiso   1.00
C876   C     0.49949   0.24657   0.83398   0.00000  Uiso   1.00
C877   C     0.40039   0.16673   0.82123   0.00000  Uiso   1.00
C878   C     0.59961   0.16667   0.84543   0.00000  Uiso   1.00
C879   C     0.34503   0.16678   0.81491   0.00000  Uiso   1.00
C880   C     0.65497   0.16668   0.85169   0.00000  Uiso   1.00
C881   C     0.46498   0.01910   0.79909   0.00000  Uiso   1.00
C882   C     0.52958   0.31435   0.86958   0.00000  Uiso   1.00
C883   C     0.46486   0.30953   0.79981   0.00000  Uiso   1.00
C884   C     0.53106   0.02377   0.86794   0.00000  Uiso   1.00
C885   C     0.49758   0.29075   0.83489   0.00000  Uiso   1.00
C886   C     0.49931   0.04256   0.83230   0.00000  Uiso   1.00
C887   C     0.53490   0.19124   0.69746   0.00000  Uiso   1.00
C888   C     0.46330   0.14387   0.96902   0.00000  Uiso   1.00
C889   C     0.53800   0.18924   0.98377   0.00000  Uiso   1.00
C890   C     0.46549   0.14082   0.68326   0.00000  Uiso   1.00
H891   H     0.65710   0.16688   0.78020   0.00000  Uiso   1.00
H892   H     0.34295   0.16659   0.88636   0.00000  Uiso   1.00
H893   H     0.43749   0.03370   0.77365   0.00000  Uiso   1.00
H894   H     0.55431   0.30014   0.89711   0.00000  Uiso   1.00
H895   H     0.43893   0.29104   0.77360   0.00000  Uiso   1.00
H896   H     0.55685   0.04217   0.89433   0.00000  Uiso   1.00
H897   H     0.56339   0.20965   0.72152   0.00000  Uiso   1.00
H898   H     0.43556   0.12481   0.94499   0.00000  Uiso   1.00
N899   N     0.49999   0.16666   0.95240   0.00000  Uiso   1.00
N900   N     0.50001   0.16668   0.71427   0.00000  Uiso   1.00
O901   O     0.50000   0.10558   0.87154   0.00000  Uiso   1.00
O902   O     0.50000   0.22775   0.79513   0.00000  Uiso   1.00
O903   O     0.50000   0.10559   0.79510   0.00000  Uiso   1.00
O904   O     0.50000   0.22774   0.87157   0.00000  Uiso   1.00
O905   O     0.42392   0.16666   0.86261   0.00000  Uiso   1.00
O906   O     0.57608   0.16667   0.80405   0.00000  Uiso   1.00
O907   O     0.42392   0.16667   0.78617   0.00000  Uiso   1.00
O908   O     0.57608   0.16666   0.88050   0.00000  Uiso   1.00
Zn909  Zn    0.50000   0.16666   0.88437   0.00000  Uiso   1.00
Zn910  Zn    0.50000   0.16667   0.78229   0.00000  Uiso   1.00
S911   S     0.59893   0.20905   0.97129   0.00000  Uiso   1.00
O912   O     0.62709   0.23627   0.67724   0.00000  Uiso   1.00
O913   O     0.63289   0.17261   0.96471   0.00000  Uiso   1.00
O914   O     0.59191   0.23771   0.92515   0.00000  Uiso   1.00
H915   H     0.62837   0.24460   0.92050   0.00000  Uiso   1.00
S916   S     0.43449   0.09438   0.69813   0.00000  Uiso   1.00
O917   O     0.39886   0.07490   0.99041   0.00000  Uiso   1.00
O918   O     0.47730   0.06437   0.71274   0.00000  Uiso   1.00
O919   O     0.39801   0.10143   0.73914   0.00000  Uiso   1.00
H920   H     0.36981   0.07924   0.73330   0.00000  Uiso   1.00
C921   C     0.83271   0.08675   0.83265   0.00000  Uiso   1.00
C922   C     0.83282   0.24657   0.83398   0.00000  Uiso   1.00
C923   C     0.73372   0.16673   0.82123   0.00000  Uiso   1.00
C924   C     0.93294   0.16667   0.84543   0.00000  Uiso   1.00
C925   C     0.67837   0.16678   0.81491   0.00000  Uiso   1.00
C926   C     0.98830   0.16668   0.85169   0.00000  Uiso   1.00
C927   C     0.79831   0.01910   0.79909   0.00000  Uiso   1.00
C928   C     0.86292   0.31435   0.86958   0.00000  Uiso   1.00
C929   C     0.79820   0.30953   0.79981   0.00000  Uiso   1.00
C930   C     0.86439   0.02377   0.86794   0.00000  Uiso   1.00
C931   C     0.83092   0.29075   0.83489   0.00000  Uiso   1.00
C932   C     0.83265   0.04256   0.83230   0.00000  Uiso   1.00
C933   C     0.86823   0.19124   0.69746   0.00000  Uiso   1.00
C934   C     0.79663   0.14387   0.96902   0.00000  Uiso   1.00
C935   C     0.87133   0.18924   0.98377   0.00000  Uiso   1.00
C936   C     0.79883   0.14082   0.68326   0.00000  Uiso   1.00
H937   H     0.99043   0.16688   0.78020   0.00000  Uiso   1.00
H938   H     0.67629   0.16659   0.88636   0.00000  Uiso   1.00
H939   H     0.77083   0.03370   0.77365   0.00000  Uiso   1.00
H940   H     0.88764   0.30014   0.89711   0.00000  Uiso   1.00
H941   H     0.77226   0.29104   0.77360   0.00000  Uiso   1.00
H942   H     0.89019   0.04217   0.89433   0.00000  Uiso   1.00
H943   H     0.89673   0.20965   0.72152   0.00000  Uiso   1.00
H944   H     0.76889   0.12481   0.94499   0.00000  Uiso   1.00
N945   N     0.83332   0.16666   0.95240   0.00000  Uiso   1.00
N946   N     0.83335   0.16668   0.71427   0.00000  Uiso   1.00
O947   O     0.83333   0.10558   0.87154   0.00000  Uiso   1.00
O948   O     0.83334   0.22775   0.79513   0.00000  Uiso   1.00
O949   O     0.83333   0.10559   0.79510   0.00000  Uiso   1.00
O950   O     0.83334   0.22774   0.87157   0.00000  Uiso   1.00
O951   O     0.75725   0.16666   0.86261   0.00000  Uiso   1.00
O952   O     0.90942   0.16667   0.80405   0.00000  Uiso   1.00
O953   O     0.75725   0.16667   0.78617   0.00000  Uiso   1.00
O954   O     0.90942   0.16666   0.88050   0.00000  Uiso   1.00
Zn955  Zn    0.83333   0.16666   0.88437   0.00000  Uiso   1.00
Zn956  Zn    0.83333   0.16667   0.78229   0.00000  Uiso   1.00
S957   S     0.93227   0.20905   0.97129   0.00000  Uiso   1.00
O958   O     0.96042   0.23627   0.67724   0.00000  Uiso   1.00
O959   O     0.96622   0.17261   0.96471   0.00000  Uiso   1.00
O960   O     0.92525   0.23771   0.92515   0.00000  Uiso   1.00
H961   H     0.96170   0.24460   0.92050   0.00000  Uiso   1.00
S962   S     0.76783   0.09438   0.69813   0.00000  Uiso   1.00
O963   O     0.73219   0.07490   0.99041   0.00000  Uiso   1.00
O964   O     0.81063   0.06437   0.71274   0.00000  Uiso   1.00
O965   O     0.73134   0.10143   0.73914   0.00000  Uiso   1.00
H966   H     0.70314   0.07924   0.73330   0.00000  Uiso   1.00
C967   C     0.16605   0.42009   0.83265   0.00000  Uiso   1.00
C968   C     0.16616   0.57991   0.83398   0.00000  Uiso   1.00
C969   C     0.06706   0.50006   0.82123   0.00000  Uiso   1.00
C970   C     0.26628   0.50000   0.84543   0.00000  Uiso   1.00
C971   C     0.01170   0.50012   0.81491   0.00000  Uiso   1.00
C972   C     0.32163   0.50002   0.85169   0.00000  Uiso   1.00
C973   C     0.13164   0.35243   0.79909   0.00000  Uiso   1.00
C974   C     0.19625   0.64768   0.86958   0.00000  Uiso   1.00
C975   C     0.13153   0.64286   0.79981   0.00000  Uiso   1.00
C976   C     0.19772   0.35710   0.86794   0.00000  Uiso   1.00
C977   C     0.16425   0.62408   0.83489   0.00000  Uiso   1.00
C978   C     0.16598   0.37589   0.83230   0.00000  Uiso   1.00
C979   C     0.20156   0.52457   0.69746   0.00000  Uiso   1.00
C980   C     0.12997   0.47721   0.96902   0.00000  Uiso   1.00
C981   C     0.20467   0.52258   0.98377   0.00000  Uiso   1.00
C982   C     0.13216   0.47415   0.68326   0.00000  Uiso   1.00
H983   H     0.32377   0.50021   0.78020   0.00000  Uiso   1.00
H984   H     0.00962   0.49993   0.88636   0.00000  Uiso   1.00
H985   H     0.10416   0.36703   0.77365   0.00000  Uiso   1.00
H986   H     0.22097   0.63347   0.89711   0.00000  Uiso   1.00
H987   H     0.10559   0.62437   0.77360   0.00000  Uiso   1.00
H988   H     0.22352   0.37551   0.89433   0.00000  Uiso   1.00
H989   H     0.23006   0.54298   0.72152   0.00000  Uiso   1.00
H990   H     0.10222   0.45814   0.94499   0.00000  Uiso   1.00
N991   N     0.16665   0.49999   0.95240   0.00000  Uiso   1.00
N992   N     0.16668   0.50001   0.71427   0.00000  Uiso   1.00
O993   O     0.16666   0.43892   0.87154   0.00000  Uiso   1.00
O994   O     0.16667   0.56108   0.79513   0.00000  Uiso   1.00
O995   O     0.16666   0.43893   0.79510   0.00000  Uiso   1.00
O996   O     0.16667   0.56107   0.87157   0.00000  Uiso   1.00
O997   O     0.09058   0.50000   0.86261   0.00000  Uiso   1.00
O998   O     0.24275   0.50000   0.80405   0.00000  Uiso   1.00
O999   O     0.09058   0.50000   0.78617   0.00000  Uiso   1.00
O1000  O     0.24275   0.50000   0.88050   0.00000  Uiso   1.00
Zn1001 Zn    0.16667   0.49999   0.88437   0.00000  Uiso   1.00
Zn1002 Zn    0.16667   0.50001   0.78229   0.00000  Uiso   1.00
S1003  S     0.26560   0.54239   0.97129   0.00000  Uiso   1.00
O1004  O     0.29375   0.56960   0.67724   0.00000  Uiso   1.00
O1005  O     0.29955   0.50594   0.96471   0.00000  Uiso   1.00
O1006  O     0.25858   0.57104   0.92515   0.00000  Uiso   1.00
H1007  H     0.29504   0.57794   0.92050   0.00000  Uiso   1.00
S1008  S     0.10116   0.42771   0.69813   0.00000  Uiso   1.00
O1009  O     0.06552   0.40823   0.99041   0.00000  Uiso   1.00
O1010  O     0.14397   0.39770   0.71274   0.00000  Uiso   1.00
O1011  O     0.06467   0.43476   0.73914   0.00000  Uiso   1.00
H1012  H     0.03648   0.41257   0.73330   0.00000  Uiso   1.00
C1013  C     0.49938   0.42009   0.83265   0.00000  Uiso   1.00
C1014  C     0.49949   0.57991   0.83398   0.00000  Uiso   1.00
C1015  C     0.40039   0.50006   0.82123   0.00000  Uiso   1.00
C1016  C     0.59961   0.50000   0.84543   0.00000  Uiso   1.00
C1017  C     0.34503   0.50012   0.81491   0.00000  Uiso   1.00
C1018  C     0.65497   0.50002   0.85169   0.00000  Uiso   1.00
C1019  C     0.46498   0.35243   0.79909   0.00000  Uiso   1.00
C1020  C     0.52958   0.64768   0.86958   0.00000  Uiso   1.00
C1021  C     0.46486   0.64286   0.79981   0.00000  Uiso   1.00
C1022  C     0.53106   0.35710   0.86794   0.00000  Uiso   1.00
C1023  C     0.49758   0.62408   0.83489   0.00000  Uiso   1.00
C1024  C     0.49931   0.37589   0.83230   0.00000  Uiso   1.00
C1025  C     0.53490   0.52457   0.69746   0.00000  Uiso   1.00
C1026  C     0.46330   0.47721   0.96902   0.00000  Uiso   1.00
C1027  C     0.53800   0.52258   0.98377   0.00000  Uiso   1.00
C1028  C     0.46549   0.47415   0.68326   0.00000  Uiso   1.00
H1029  H     0.65710   0.50021   0.78020   0.00000  Uiso   1.00
H1030  H     0.34295   0.49993   0.88636   0.00000  Uiso   1.00
H1031  H     0.43749   0.36703   0.77365   0.00000  Uiso   1.00
H1032  H     0.55431   0.63347   0.89711   0.00000  Uiso   1.00
H1033  H     0.43893   0.62437   0.77360   0.00000  Uiso   1.00
H1034  H     0.55685   0.37551   0.89433   0.00000  Uiso   1.00
H1035  H     0.56339   0.54298   0.72152   0.00000  Uiso   1.00
H1036  H     0.43556   0.45814   0.94499   0.00000  Uiso   1.00
N1037  N     0.49999   0.49999   0.95240   0.00000  Uiso   1.00
N1038  N     0.50001   0.50001   0.71427   0.00000  Uiso   1.00
O1039  O     0.50000   0.43892   0.87154   0.00000  Uiso   1.00
O1040  O     0.50000   0.56108   0.79513   0.00000  Uiso   1.00
O1041  O     0.50000   0.43893   0.79510   0.00000  Uiso   1.00
O1042  O     0.50000   0.56107   0.87157   0.00000  Uiso   1.00
O1043  O     0.42392   0.50000   0.86261   0.00000  Uiso   1.00
O1044  O     0.57608   0.50000   0.80405   0.00000  Uiso   1.00
O1045  O     0.42392   0.50000   0.78617   0.00000  Uiso   1.00
O1046  O     0.57608   0.50000   0.88050   0.00000  Uiso   1.00
Zn1047 Zn    0.50000   0.49999   0.88437   0.00000  Uiso   1.00
Zn1048 Zn    0.50000   0.50001   0.78229   0.00000  Uiso   1.00
S1049  S     0.59893   0.54239   0.97129   0.00000  Uiso   1.00
O1050  O     0.62709   0.56960   0.67724   0.00000  Uiso   1.00
O1051  O     0.63289   0.50594   0.96471   0.00000  Uiso   1.00
O1052  O     0.59191   0.57104   0.92515   0.00000  Uiso   1.00
H1053  H     0.62837   0.57794   0.92050   0.00000  Uiso   1.00
S1054  S     0.43449   0.42771   0.69813   0.00000  Uiso   1.00
O1055  O     0.39886   0.40823   0.99041   0.00000  Uiso   1.00
O1056  O     0.47730   0.39770   0.71274   0.00000  Uiso   1.00
O1057  O     0.39801   0.43476   0.73914   0.00000  Uiso   1.00
H1058  H     0.36981   0.41257   0.73330   0.00000  Uiso   1.00
C1059  C     0.83271   0.42009   0.83265   0.00000  Uiso   1.00
C1060  C     0.83282   0.57991   0.83398   0.00000  Uiso   1.00
C1061  C     0.73372   0.50006   0.82123   0.00000  Uiso   1.00
C1062  C     0.93294   0.50000   0.84543   0.00000  Uiso   1.00
C1063  C     0.67837   0.50012   0.81491   0.00000  Uiso   1.00
C1064  C     0.98830   0.50002   0.85169   0.00000  Uiso   1.00
C1065  C     0.79831   0.35243   0.79909   0.00000  Uiso   1.00
C1066  C     0.86292   0.64768   0.86958   0.00000  Uiso   1.00
C1067  C     0.79820   0.64286   0.79981   0.00000  Uiso   1.00
C1068  C     0.86439   0.35710   0.86794   0.00000  Uiso   1.00
C1069  C     0.83092   0.62408   0.83489   0.00000  Uiso   1.00
C1070  C     0.83265   0.37589   0.83230   0.00000  Uiso   1.00
C1071  C     0.86823   0.52457   0.69746   0.00000  Uiso   1.00
C1072  C     0.79663   0.47721   0.96902   0.00000  Uiso   1.00
C1073  C     0.87133   0.52258   0.98377   0.00000  Uiso   1.00
C1074  C     0.79883   0.47415   0.68326   0.00000  Uiso   1.00
H1075  H     0.99043   0.50021   0.78020   0.00000  Uiso   1.00
H1076  H     0.67629   0.49993   0.88636   0.00000  Uiso   1.00
H1077  H     0.77083   0.36703   0.77365   0.00000  Uiso   1.00
H1078  H     0.88764   0.63347   0.89711   0.00000  Uiso   1.00
H1079  H     0.77226   0.62437   0.77360   0.00000  Uiso   1.00
H1080  H     0.89019   0.37551   0.89433   0.00000  Uiso   1.00
H1081  H     0.89673   0.54298   0.72152   0.00000  Uiso   1.00
H1082  H     0.76889   0.45814   0.94499   0.00000  Uiso   1.00
N1083  N     0.83332   0.49999   0.95240   0.00000  Uiso   1.00
N1084  N     0.83335   0.50001   0.71427   0.00000  Uiso   1.00
O1085  O     0.83333   0.43892   0.87154   0.00000  Uiso   1.00
O1086  O     0.83334   0.56108   0.79513   0.00000  Uiso   1.00
O1087  O     0.83333   0.43893   0.79510   0.00000  Uiso   1.00
O1088  O     0.83334   0.56107   0.87157   0.00000  Uiso   1.00
O1089  O     0.75725   0.50000   0.86261   0.00000  Uiso   1.00
O1090  O     0.90942   0.50000   0.80405   0.00000  Uiso   1.00
O1091  O     0.75725   0.50000   0.78617   0.00000  Uiso   1.00
O1092  O     0.90942   0.50000   0.88050   0.00000  Uiso   1.00
Zn1093 Zn    0.83333   0.49999   0.88437   0.00000  Uiso   1.00
Zn1094 Zn    0.83333   0.50001   0.78229   0.00000  Uiso   1.00
S1095  S     0.93227   0.54239   0.97129   0.00000  Uiso   1.00
O1096  O     0.96042   0.56960   0.67724   0.00000  Uiso   1.00
O1097  O     0.96622   0.50594   0.96471   0.00000  Uiso   1.00
O1098  O     0.92525   0.57104   0.92515   0.00000  Uiso   1.00
H1099  H     0.96170   0.57794   0.92050   0.00000  Uiso   1.00
S1100  S     0.76783   0.42771   0.69813   0.00000  Uiso   1.00
O1101  O     0.73219   0.40823   0.99041   0.00000  Uiso   1.00
O1102  O     0.81063   0.39770   0.71274   0.00000  Uiso   1.00
O1103  O     0.73134   0.43476   0.73914   0.00000  Uiso   1.00
H1104  H     0.70314   0.41257   0.73330   0.00000  Uiso   1.00
C1105  C     0.16605   0.75342   0.83265   0.00000  Uiso   1.00
C1106  C     0.16616   0.91324   0.83398   0.00000  Uiso   1.00
C1107  C     0.06706   0.83339   0.82123   0.00000  Uiso   1.00
C1108  C     0.26628   0.83334   0.84543   0.00000  Uiso   1.00
C1109  C     0.01170   0.83345   0.81491   0.00000  Uiso   1.00
C1110  C     0.32163   0.83335   0.85169   0.00000  Uiso   1.00
C1111  C     0.13164   0.68577   0.79909   0.00000  Uiso   1.00
C1112  C     0.19625   0.98101   0.86958   0.00000  Uiso   1.00
C1113  C     0.13153   0.97619   0.79981   0.00000  Uiso   1.00
C1114  C     0.19772   0.69043   0.86794   0.00000  Uiso   1.00
C1115  C     0.16425   0.95741   0.83489   0.00000  Uiso   1.00
C1116  C     0.16598   0.70922   0.83230   0.00000  Uiso   1.00
C1117  C     0.20156   0.85790   0.69746   0.00000  Uiso   1.00
C1118  C     0.12997   0.81054   0.96902   0.00000  Uiso   1.00
C1119  C     0.20467   0.85591   0.98377   0.00000  Uiso   1.00
C1120  C     0.13216   0.80749   0.68326   0.00000  Uiso   1.00
H1121  H     0.32377   0.83355   0.78020   0.00000  Uiso   1.00
H1122  H     0.00962   0.83326   0.88636   0.00000  Uiso   1.00
H1123  H     0.10416   0.70037   0.77365   0.00000  Uiso   1.00
H1124  H     0.22097   0.96680   0.89711   0.00000  Uiso   1.00
H1125  H     0.10559   0.95770   0.77360   0.00000  Uiso   1.00
H1126  H     0.22352   0.70884   0.89433   0.00000  Uiso   1.00
H1127  H     0.23006   0.87631   0.72152   0.00000  Uiso   1.00
H1128  H     0.10222   0.79147   0.94499   0.00000  Uiso   1.00
N1129  N     0.16665   0.83332   0.95240   0.00000  Uiso   1.00
N1130  N     0.16668   0.83334   0.71427   0.00000  Uiso   1.00
O1131  O     0.16666   0.77225   0.87154   0.00000  Uiso   1.00
O1132  O     0.16667   0.89442   0.79513   0.00000  Uiso   1.00
O1133  O     0.16666   0.77226   0.79510   0.00000  Uiso   1.00
O1134  O     0.16667   0.89441   0.87157   0.00000  Uiso   1.00
O1135  O     0.09058   0.83333   0.86261   0.00000  Uiso   1.00
O1136  O     0.24275   0.83334   0.80405   0.00000  Uiso   1.00
O1137  O     0.09058   0.83334   0.78617   0.00000  Uiso   1.00
O1138  O     0.24275   0.83333   0.88050   0.00000  Uiso   1.00
Zn1139 Zn    0.16667   0.83333   0.88437   0.00000  Uiso   1.00
Zn1140 Zn    0.16667   0.83334   0.78229   0.00000  Uiso   1.00
S1141  S     0.26560   0.87572   0.97129   0.00000  Uiso   1.00
O1142  O     0.29375   0.90293   0.67724   0.00000  Uiso   1.00
O1143  O     0.29955   0.83927   0.96471   0.00000  Uiso   1.00
O1144  O     0.25858   0.90437   0.92515   0.00000  Uiso   1.00
H1145  H     0.29504   0.91127   0.92050   0.00000  Uiso   1.00
S1146  S     0.10116   0.76104   0.69813   0.00000  Uiso   1.00
O1147  O     0.06552   0.74157   0.99041   0.00000  Uiso   1.00
O1148  O     0.14397   0.73104   0.71274   0.00000  Uiso   1.00
O1149  O     0.06467   0.76809   0.73914   0.00000  Uiso   1.00
H1150  H     0.03648   0.74591   0.73330   0.00000  Uiso   1.00
C1151  C     0.49938   0.75342   0.83265   0.00000  Uiso   1.00
C1152  C     0.49949   0.91324   0.83398   0.00000  Uiso   1.00
C1153  C     0.40039   0.83339   0.82123   0.00000  Uiso   1.00
C1154  C     0.59961   0.83334   0.84543   0.00000  Uiso   1.00
C1155  C     0.34503   0.83345   0.81491   0.00000  Uiso   1.00
C1156  C     0.65497   0.83335   0.85169   0.00000  Uiso   1.00
C1157  C     0.46498   0.68577   0.79909   0.00000  Uiso   1.00
C1158  C     0.52958   0.98101   0.86958   0.00000  Uiso   1.00
C1159  C     0.46486   0.97619   0.79981   0.00000  Uiso   1.00
C1160  C     0.53106   0.69043   0.86794   0.00000  Uiso   1.00
C1161  C     0.49758   0.95741   0.83489   0.00000  Uiso   1.00
C1162  C     0.49931   0.70922   0.83230   0.00000  Uiso   1.00
C1163  C     0.53490   0.85790   0.69746   0.00000  Uiso   1.00
C1164  C     0.46330   0.81054   0.96902   0.00000  Uiso   1.00
C1165  C     0.53800   0.85591   0.98377   0.00000  Uiso   1.00
C1166  C     0.46549   0.80749   0.68326   0.00000  Uiso   1.00
H1167  H     0.65710   0.83355   0.78020   0.00000  Uiso   1.00
H1168  H     0.34295   0.83326   0.88636   0.00000  Uiso   1.00
H1169  H     0.43749   0.70037   0.77365   0.00000  Uiso   1.00
H1170  H     0.55431   0.96680   0.89711   0.00000  Uiso   1.00
H1171  H     0.43893   0.95770   0.77360   0.00000  Uiso   1.00
H1172  H     0.55685   0.70884   0.89433   0.00000  Uiso   1.00
H1173  H     0.56339   0.87631   0.72152   0.00000  Uiso   1.00
H1174  H     0.43556   0.79147   0.94499   0.00000  Uiso   1.00
N1175  N     0.49999   0.83332   0.95240   0.00000  Uiso   1.00
N1176  N     0.50001   0.83334   0.71427   0.00000  Uiso   1.00
O1177  O     0.50000   0.77225   0.87154   0.00000  Uiso   1.00
O1178  O     0.50000   0.89442   0.79513   0.00000  Uiso   1.00
O1179  O     0.50000   0.77226   0.79510   0.00000  Uiso   1.00
O1180  O     0.50000   0.89441   0.87157   0.00000  Uiso   1.00
O1181  O     0.42392   0.83333   0.86261   0.00000  Uiso   1.00
O1182  O     0.57608   0.83334   0.80405   0.00000  Uiso   1.00
O1183  O     0.42392   0.83334   0.78617   0.00000  Uiso   1.00
O1184  O     0.57608   0.83333   0.88050   0.00000  Uiso   1.00
Zn1185 Zn    0.50000   0.83333   0.88437   0.00000  Uiso   1.00
Zn1186 Zn    0.50000   0.83334   0.78229   0.00000  Uiso   1.00
S1187  S     0.59893   0.87572   0.97129   0.00000  Uiso   1.00
O1188  O     0.62709   0.90293   0.67724   0.00000  Uiso   1.00
O1189  O     0.63289   0.83927   0.96471   0.00000  Uiso   1.00
O1190  O     0.59191   0.90437   0.92515   0.00000  Uiso   1.00
H1191  H     0.62837   0.91127   0.92050   0.00000  Uiso   1.00
S1192  S     0.43449   0.76104   0.69813   0.00000  Uiso   1.00
O1193  O     0.39886   0.74157   0.99041   0.00000  Uiso   1.00
O1194  O     0.47730   0.73104   0.71274   0.00000  Uiso   1.00
O1195  O     0.39801   0.76809   0.73914   0.00000  Uiso   1.00
H1196  H     0.36981   0.74591   0.73330   0.00000  Uiso   1.00
C1197  C     0.83271   0.75342   0.83265   0.00000  Uiso   1.00
C1198  C     0.83282   0.91324   0.83398   0.00000  Uiso   1.00
C1199  C     0.73372   0.83339   0.82123   0.00000  Uiso   1.00
C1200  C     0.93294   0.83334   0.84543   0.00000  Uiso   1.00
C1201  C     0.67837   0.83345   0.81491   0.00000  Uiso   1.00
C1202  C     0.98830   0.83335   0.85169   0.00000  Uiso   1.00
C1203  C     0.79831   0.68577   0.79909   0.00000  Uiso   1.00
C1204  C     0.86292   0.98101   0.86958   0.00000  Uiso   1.00
C1205  C     0.79820   0.97619   0.79981   0.00000  Uiso   1.00
C1206  C     0.86439   0.69043   0.86794   0.00000  Uiso   1.00
C1207  C     0.83092   0.95741   0.83489   0.00000  Uiso   1.00
C1208  C     0.83265   0.70922   0.83230   0.00000  Uiso   1.00
C1209  C     0.86823   0.85790   0.69746   0.00000  Uiso   1.00
C1210  C     0.79663   0.81054   0.96902   0.00000  Uiso   1.00
C1211  C     0.87133   0.85591   0.98377   0.00000  Uiso   1.00
C1212  C     0.79883   0.80749   0.68326   0.00000  Uiso   1.00
H1213  H     0.99043   0.83355   0.78020   0.00000  Uiso   1.00
H1214  H     0.67629   0.83326   0.88636   0.00000  Uiso   1.00
H1215  H     0.77083   0.70037   0.77365   0.00000  Uiso   1.00
H1216  H     0.88764   0.96680   0.89711   0.00000  Uiso   1.00
H1217  H     0.77226   0.95770   0.77360   0.00000  Uiso   1.00
H1218  H     0.89019   0.70884   0.89433   0.00000  Uiso   1.00
H1219  H     0.89673   0.87631   0.72152   0.00000  Uiso   1.00
H1220  H     0.76889   0.79147   0.94499   0.00000  Uiso   1.00
N1221  N     0.83332   0.83332   0.95240   0.00000  Uiso   1.00
N1222  N     0.83335   0.83334   0.71427   0.00000  Uiso   1.00
O1223  O     0.83333   0.77225   0.87154   0.00000  Uiso   1.00
O1224  O     0.83334   0.89442   0.79513   0.00000  Uiso   1.00
O1225  O     0.83333   0.77226   0.79510   0.00000  Uiso   1.00
O1226  O     0.83334   0.89441   0.87157   0.00000  Uiso   1.00
O1227  O     0.75725   0.83333   0.86261   0.00000  Uiso   1.00
O1228  O     0.90942   0.83334   0.80405   0.00000  Uiso   1.00
O1229  O     0.75725   0.83334   0.78617   0.00000  Uiso   1.00
O1230  O     0.90942   0.83333   0.88050   0.00000  Uiso   1.00
Zn1231 Zn    0.83333   0.83333   0.88437   0.00000  Uiso   1.00
Zn1232 Zn    0.83333   0.83334   0.78229   0.00000  Uiso   1.00
S1233  S     0.93227   0.87572   0.97129   0.00000  Uiso   1.00
O1234  O     0.96042   0.90293   0.67724   0.00000  Uiso   1.00
O1235  O     0.96622   0.83927   0.96471   0.00000  Uiso   1.00
O1236  O     0.92525   0.90437   0.92515   0.00000  Uiso   1.00
H1237  H     0.96170   0.91127   0.92050   0.00000  Uiso   1.00
S1238  S     0.76783   0.76104   0.69813   0.00000  Uiso   1.00
O1239  O     0.73219   0.74157   0.99041   0.00000  Uiso   1.00
O1240  O     0.81063   0.73104   0.71274   0.00000  Uiso   1.00
O1241  O     0.73134   0.76809   0.73914   0.00000  Uiso   1.00
H1242  H     0.70314   0.74591   0.73330   0.00000  Uiso   1.00
loop_
_geom_bond_atom_site_label_1
_geom_bond_atom_site_label_2
_geom_bond_distance
_geom_bond_site_symmetry_2
_ccdc_geom_bond_type
C1     O29     1.295   .     A
C1     C12     1.415   .     S
C1     O27     1.286   .     A
C2     O30     1.292   .     A
C2     C11     1.416   .     S
C2     O28     1.289   .     A
C3     O31     1.282   .     A
C3     O33     1.294   .     A
C3     C5      1.405   .     S
C4     O34     1.294   .     A
C4     O32     1.281   .     A
C4     C6      1.405   .     S
C5     C98     1.338   1_455 S
C5     H109    1.088   1_455 S
C6     C51     1.338   .     S
C6     H64     1.087   .     S
C7     H19     1.077   .     S
C7     C12     1.393   .     A
C7     C285    1.375   1_545 S
C8     H20     1.075   .     S
C8     C11     1.393   .     A
C8     C148    1.371   .     S
C9     C11     1.395   .     A
C9     H21     1.084   .     S
C9     C145    1.375   .     S
C10    H22     1.084   .     S
C10    C12     1.395   .     A
C10    C284    1.371   1_545 S
C13    N26     1.348   .     A
C13    H23     1.081   .     S
C13    C843    1.419   1_554 S
C14    N25     1.347   .     A
C14    H24     1.081   .     S
C14    C430    1.419   .     S
C15    N25     1.400   .     A
C15    S37     1.777   .     S
C15    C427    1.419   .     S
C16    N26     1.399   .     A
C16    S42     1.774   .     S
C16    C842    1.419   1_554 S
H17    C51     1.088   .     S
H18    C98     1.087   1_455 S
N25    Zn35    2.031   .     S
N26    Zn36    2.031   .     S
O27    Zn35    1.978   .     S
O28    Zn36    1.978   .     S
O29    Zn36    2.007   .     S
O30    Zn35    2.007   .     S
O31    Zn35    1.956   .     S
O32    Zn36    1.956   .     S
O33    Zn36    1.980   .     S
O34    Zn35    1.980   .     S
S37    O39     1.503   .     D
S37    O40     1.671   .     S
S37    O452    1.504   .     S
O38    S865    1.504   1_554 S
O40    H41     0.991   .     S
S42    O44     1.501   .     D
S42    O45     1.676   .     S
S42    O871    1.505   1_554 S
O43    S456    1.505   .     S
O45    H46     0.990   .     S
C47    O75     1.295   .     A
C47    C58     1.415   .     S
C47    O73     1.286   .     A
C48    O76     1.292   .     A
C48    C57     1.416   .     S
C48    O74     1.289   .     A
C49    O77     1.282   .     A
C49    O79     1.294   .     A
C49    C51     1.405   .     S
C50    O80     1.294   .     A
C50    O78     1.281   .     A
C50    C52     1.405   .     S
C52    C97     1.338   .     S
C52    H110    1.087   .     S
C53    H65     1.077   .     S
C53    C58     1.393   .     A
C53    C331    1.375   1_545 S
C54    H66     1.075   .     S
C54    C57     1.393   .     A
C54    C194    1.371   .     S
C55    C57     1.395   .     A
C55    H67     1.084   .     S
C55    C191    1.375   .     S
C56    H68     1.084   .     S
C56    C58     1.395   .     A
C56    C330    1.371   1_545 S
C59    N72     1.348   .     A
C59    H69     1.081   .     S
C59    C889    1.419   1_554 S
C60    N71     1.347   .     A
C60    H70     1.081   .     S
C60    C476    1.419   .     S
C61    N71     1.400   .     A
C61    S83     1.777   .     S
C61    C473    1.419   .     S
C62    N72     1.399   .     A
C62    S88     1.774   .     S
C62    C888    1.419   1_554 S
H63    C97     1.088   .     S
N71    Zn81    2.031   .     S
N72    Zn82    2.031   .     S
O73    Zn81    1.978   .     S
O74    Zn82    1.978   .     S
O75    Zn82    2.007   .     S
O76    Zn81    2.007   .     S
O77    Zn81    1.956   .     S
O78    Zn82    1.956   .     S
O79    Zn82    1.980   .     S
O80    Zn81    1.980   .     S
S83    O85     1.503   .     D
S83    O86     1.671   .     S
S83    O498    1.504   .     S
O84    S911    1.504   1_554 S
O86    H87     0.991   .     S
S88    O90     1.501   .     D
S88    O91     1.676   .     S
S88    O917    1.505   1_554 S
O89    S502    1.505   .     S
O91    H92     0.990   .     S
C93    O121    1.295   .     A
C93    C104    1.415   .     S
C93    O119    1.286   .     A
C94    O122    1.292   .     A
C94    C103    1.416   .     S
C94    O120    1.289   .     A
C95    O123    1.282   .     A
C95    O125    1.294   .     A
C95    C97     1.405   .     S
C96    O126    1.294   .     A
C96    O124    1.281   .     A
C96    C98     1.405   .     S
C98    C5      1.338   1_655 S
C98    H18     1.087   1_655 S
C99    H111    1.077   .     S
C99    C104    1.393   .     A
C99    C377    1.375   1_545 S
C100   H112    1.075   .     S
C100   C103    1.393   .     A
C100   C240    1.371   .     S
C101   C103    1.395   .     A
C101   H113    1.084   .     S
C101   C237    1.375   .     S
C102   H114    1.084   .     S
C102   C104    1.395   .     A
C102   C376    1.371   1_545 S
C105   N118    1.348   .     A
C105   H115    1.081   .     S
C105   C935    1.419   1_554 S
C106   N117    1.347   .     A
C106   H116    1.081   .     S
C106   C522    1.419   .     S
C107   N117    1.400   .     A
C107   S129    1.777   .     S
C107   C519    1.419   .     S
C108   N118    1.399   .     A
C108   S134    1.774   .     S
C108   C934    1.419   1_554 S
H109   C5      1.088   1_655 S
N117   Zn127   2.031   .     S
N118   Zn128   2.031   .     S
O119   Zn127   1.978   .     S
O120   Zn128   1.978   .     S
O121   Zn128   2.007   .     S
O122   Zn127   2.007   .     S
O123   Zn127   1.956   .     S
O124   Zn128   1.956   .     S
O125   Zn128   1.980   .     S
O126   Zn127   1.980   .     S
S129   O131    1.503   .     D
S129   O132    1.671   .     S
S129   O544    1.504   .     S
O130   S957    1.504   1_554 S
O132   H133    0.991   .     S
S134   O136    1.501   .     D
S134   O137    1.676   .     S
S134   O963    1.505   1_554 S
O135   S548    1.505   .     S
O137   H138    0.990   .     S
C139   O167    1.295   .     A
C139   C150    1.415   .     S
C139   O165    1.286   .     A
C140   O168    1.292   .     A
C140   C149    1.416   .     S
C140   O166    1.289   .     A
C141   O169    1.282   .     A
C141   O171    1.294   .     A
C141   C143    1.405   .     S
C142   O172    1.294   .     A
C142   O170    1.281   .     A
C142   C144    1.405   .     S
C143   C236    1.338   1_455 S
C143   H247    1.088   1_455 S
C144   C189    1.338   .     S
C144   H202    1.087   .     S
C145   H157    1.077   .     S
C145   C150    1.393   .     A
C146   H158    1.075   .     S
C146   C149    1.393   .     A
C146   C286    1.371   .     S
C147   C149    1.395   .     A
C147   H159    1.084   .     S
C147   C283    1.375   .     S
C148   H160    1.084   .     S
C148   C150    1.395   .     A
C151   N164    1.348   .     A
C151   H161    1.081   .     S
C151   C981    1.419   1_554 S
C152   N163    1.347   .     A
C152   H162    1.081   .     S
C152   C568    1.419   .     S
C153   N163    1.400   .     A
C153   S175    1.777   .     S
C153   C565    1.419   .     S
C154   N164    1.399   .     A
C154   S180    1.774   .     S
C154   C980    1.419   1_554 S
H155   C189    1.088   .     S
H156   C236    1.087   1_455 S
N163   Zn173   2.031   .     S
N164   Zn174   2.031   .     S
O165   Zn173   1.978   .     S
O166   Zn174   1.978   .     S
O167   Zn174   2.007   .     S
O168   Zn173   2.007   .     S
O169   Zn173   1.956   .     S
O170   Zn174   1.956   .     S
O171   Zn174   1.980   .     S
O172   Zn173   1.980   .     S
S175   O177    1.503   .     D
S175   O178    1.671   .     S
S175   O590    1.504   .     S
O176   S1003   1.504   1_554 S
O178   H179    0.991   .     S
S180   O182    1.501   .     D
S180   O183    1.676   .     S
S180   O1009   1.505   1_554 S
O181   S594    1.505   .     S
O183   H184    0.990   .     S
C185   O213    1.295   .     A
C185   C196    1.415   .     S
C185   O211    1.286   .     A
C186   O214    1.292   .     A
C186   C195    1.416   .     S
C186   O212    1.289   .     A
C187   O215    1.282   .     A
C187   O217    1.294   .     A
C187   C189    1.405   .     S
C188   O218    1.294   .     A
C188   O216    1.281   .     A
C188   C190    1.405   .     S
C190   C235    1.338   .     S
C190   H248    1.087   .     S
C191   H203    1.077   .     S
C191   C196    1.393   .     A
C192   H204    1.075   .     S
C192   C195    1.393   .     A
C192   C332    1.371   .     S
C193   C195    1.395   .     A
C193   H205    1.084   .     S
C193   C329    1.375   .     S
C194   H206    1.084   .     S
C194   C196    1.395   .     A
C197   N210    1.348   .     A
C197   H207    1.081   .     S
C197   C1027   1.419   1_554 S
C198   N209    1.347   .     A
C198   H208    1.081   .     S
C198   C614    1.419   .     S
C199   N209    1.400   .     A
C199   S221    1.777   .     S
C199   C611    1.419   .     S
C200   N210    1.399   .     A
C200   S226    1.774   .     S
C200   C1026   1.419   1_554 S
H201   C235    1.088   .     S
N209   Zn219   2.031   .     S
N210   Zn220   2.031   .     S
O211   Zn219   1.978   .     S
O212   Zn220   1.978   .     S
O213   Zn220   2.007   .     S
O214   Zn219   2.007   .     S
O215   Zn219   1.956   .     S
O216   Zn220   1.956   .     S
O217   Zn220   1.980   .     S
O218   Zn219   1.980   .     S
S221   O223    1.503   .     D
S221   O224    1.671   .     S
S221   O636    1.504   .     S
O222   S1049   1.504   1_554 S
O224   H225    0.991   .     S
S226   O228    1.501   .     D
S226   O229    1.676   .     S
S226   O1055   1.505   1_554 S
O227   S640    1.505   .     S
O229   H230    0.990   .     S
C231   O259    1.295   .     A
C231   C242    1.415   .     S
C231   O257    1.286   .     A
C232   O260    1.292   .     A
C232   C241    1.416   .     S
C232   O258    1.289   .     A
C233   O261    1.282   .     A
C233   O263    1.294   .     A
C233   C235    1.405   .     S
C234   O264    1.294   .     A
C234   O262    1.281   .     A
C234   C236    1.405   .     S
C236   C143    1.338   1_655 S
C236   H156    1.087   1_655 S
C237   H249    1.077   .     S
C237   C242    1.393   .     A
C238   H250    1.075   .     S
C238   C241    1.393   .     A
C238   C378    1.371   .     S
C239   C241    1.395   .     A
C239   H251    1.084   .     S
C239   C375    1.375   .     S
C240   H252    1.084   .     S
C240   C242    1.395   .     A
C243   N256    1.348   .     A
C243   H253    1.081   .     S
C243   C1073   1.419   1_554 S
C244   N255    1.347   .     A
C244   H254    1.081   .     S
C244   C660    1.419   .     S
C245   N255    1.400   .     A
C245   S267    1.777   .     S
C245   C657    1.419   .     S
C246   N256    1.399   .     A
C246   S272    1.774   .     S
C246   C1072   1.419   1_554 S
H247   C143    1.088   1_655 S
N255   Zn265   2.031   .     S
N256   Zn266   2.031   .     S
O257   Zn265   1.978   .     S
O258   Zn266   1.978   .     S
O259   Zn266   2.007   .     S
O260   Zn265   2.007   .     S
O261   Zn265   1.956   .     S
O262   Zn266   1.956   .     S
O263   Zn266   1.980   .     S
O264   Zn265   1.980   .     S
S267   O269    1.503   .     D
S267   O270    1.671   .     S
S267   O682    1.504   .     S
O268   S1095   1.504   1_554 S
O270   H271    0.991   .     S
S272   O274    1.501   .     D
S272   O275    1.676   .     S
S272   O1101   1.505   1_554 S
O273   S686    1.505   .     S
O275   H276    0.990   .     S
C277   O305    1.295   .     A
C277   C288    1.415   .     S
C277   O303    1.286   .     A
C278   O306    1.292   .     A
C278   C287    1.416   .     S
C278   O304    1.289   .     A
C279   O307    1.282   .     A
C279   O309    1.294   .     A
C279   C281    1.405   .     S
C280   O310    1.294   .     A
C280   O308    1.281   .     A
C280   C282    1.405   .     S
C281   C374    1.338   1_455 S
C281   H385    1.088   1_455 S
C282   C327    1.338   .     S
C282   H340    1.087   .     S
C283   H295    1.077   .     S
C283   C288    1.393   .     A
C284   H296    1.075   .     S
C284   C287    1.393   .     A
C284   C10     1.371   1_565 S
C285   C287    1.395   .     A
C285   H297    1.084   .     S
C285   C7      1.375   1_565 S
C286   H298    1.084   .     S
C286   C288    1.395   .     A
C289   N302    1.348   .     A
C289   H299    1.081   .     S
C289   C1119   1.419   1_554 S
C290   N301    1.347   .     A
C290   H300    1.081   .     S
C290   C706    1.419   .     S
C291   N301    1.400   .     A
C291   S313    1.777   .     S
C291   C703    1.419   .     S
C292   N302    1.399   .     A
C292   S318    1.774   .     S
C292   C1118   1.419   1_554 S
H293   C327    1.088   .     S
H294   C374    1.087   1_455 S
N301   Zn311   2.031   .     S
N302   Zn312   2.031   .     S
O303   Zn311   1.978   .     S
O304   Zn312   1.978   .     S
O305   Zn312   2.007   .     S
O306   Zn311   2.007   .     S
O307   Zn311   1.956   .     S
O308   Zn312   1.956   .     S
O309   Zn312   1.980   .     S
O310   Zn311   1.980   .     S
S313   O315    1.503   .     D
S313   O316    1.671   .     S
S313   O728    1.504   .     S
O314   S1141   1.504   1_554 S
O316   H317    0.991   .     S
S318   O320    1.501   .     D
S318   O321    1.676   .     S
S318   O1147   1.505   1_554 S
O319   S732    1.505   .     S
O321   H322    0.990   .     S
C323   O351    1.295   .     A
C323   C334    1.415   .     S
C323   O349    1.286   .     A
C324   O352    1.292   .     A
C324   C333    1.416   .     S
C324   O350    1.289   .     A
C325   O353    1.282   .     A
C325   O355    1.294   .     A
C325   C327    1.405   .     S
C326   O356    1.294   .     A
C326   O354    1.281   .     A
C326   C328    1.405   .     S
C328   C373    1.338   .     S
C328   H386    1.087   .     S
C329   H341    1.077   .     S
C329   C334    1.393   .     A
C330   H342    1.075   .     S
C330   C333    1.393   .     A
C330   C56     1.371   1_565 S
C331   C333    1.395   .     A
C331   H343    1.084   .     S
C331   C53     1.375   1_565 S
C332   H344    1.084   .     S
C332   C334    1.395   .     A
C335   N348    1.348   .     A
C335   H345    1.081   .     S
C335   C1165   1.419   1_554 S
C336   N347    1.347   .     A
C336   H346    1.081   .     S
C336   C752    1.419   .     S
C337   N347    1.400   .     A
C337   S359    1.777   .     S
C337   C749    1.419   .     S
C338   N348    1.399   .     A
C338   S364    1.774   .     S
C338   C1164   1.419   1_554 S
H339   C373    1.088   .     S
N347   Zn357   2.031   .     S
N348   Zn358   2.031   .     S
O349   Zn357   1.978   .     S
O350   Zn358   1.978   .     S
O351   Zn358   2.007   .     S
O352   Zn357   2.007   .     S
O353   Zn357   1.956   .     S
O354   Zn358   1.956   .     S
O355   Zn358   1.980   .     S
O356   Zn357   1.980   .     S
S359   O361    1.503   .     D
S359   O362    1.671   .     S
S359   O774    1.504   .     S
O360   S1187   1.504   1_554 S
O362   H363    0.991   .     S
S364   O366    1.501   .     D
S364   O367    1.676   .     S
S364   O1193   1.505   1_554 S
O365   S778    1.505   .     S
O367   H368    0.990   .     S
C369   O397    1.295   .     A
C369   C380    1.415   .     S
C369   O395    1.286   .     A
C370   O398    1.292   .     A
C370   C379    1.416   .     S
C370   O396    1.289   .     A
C371   O399    1.282   .     A
C371   O401    1.294   .     A
C371   C373    1.405   .     S
C372   O402    1.294   .     A
C372   O400    1.281   .     A
C372   C374    1.405   .     S
C374   C281    1.338   1_655 S
C374   H294    1.087   1_655 S
C375   H387    1.077   .     S
C375   C380    1.393   .     A
C376   H388    1.075   .     S
C376   C379    1.393   .     A
C376   C102    1.371   1_565 S
C377   C379    1.395   .     A
C377   H389    1.084   .     S
C377   C99     1.375   1_565 S
C378   H390    1.084   .     S
C378   C380    1.395   .     A
C381   N394    1.348   .     A
C381   H391    1.081   .     S
C381   C1211   1.419   1_554 S
C382   N393    1.347   .     A
C382   H392    1.081   .     S
C382   C798    1.419   .     S
C383   N393    1.400   .     A
C383   S405    1.777   .     S
C383   C795    1.419   .     S
C384   N394    1.399   .     A
C384   S410    1.774   .     S
C384   C1210   1.419   1_554 S
H385   C281    1.088   1_655 S
N393   Zn403   2.031   .     S
N394   Zn404   2.031   .     S
O395   Zn403   1.978   .     S
O396   Zn404   1.978   .     S
O397   Zn404   2.007   .     S
O398   Zn403   2.007   .     S
O399   Zn403   1.956   .     S
O400   Zn404   1.956   .     S
O401   Zn404   1.980   .     S
O402   Zn403   1.980   .     S
S405   O407    1.503   .     D
S405   O408    1.671   .     S
S405   O820    1.504   .     S
O406   S1233   1.504   1_554 S
O408   H409    0.991   .     S
S410   O412    1.501   .     D
S410   O413    1.676   .     S
S410   O1239   1.505   1_554 S
O411   S824    1.505   .     S
O413   H414    0.990   .     S
C415   O443    1.295   .     A
C415   C426    1.415   .     S
C415   O441    1.286   .     A
C416   O444    1.292   .     A
C416   C425    1.416   .     S
C416   O442    1.289   .     A
C417   O445    1.282   .     A
C417   O447    1.294   .     A
C417   C419    1.405   .     S
C418   O448    1.294   .     A
C418   O446    1.281   .     A
C418   C420    1.405   .     S
C419   C512    1.338   1_455 S
C419   H523    1.088   1_455 S
C420   C465    1.338   .     S
C420   H478    1.087   .     S
C421   H433    1.077   .     S
C421   C426    1.393   .     A
C421   C699    1.375   1_545 S
C422   H434    1.075   .     S
C422   C425    1.393   .     A
C422   C562    1.371   .     S
C423   C425    1.395   .     A
C423   H435    1.084   .     S
C423   C559    1.375   .     S
C424   H436    1.084   .     S
C424   C426    1.395   .     A
C424   C698    1.371   1_545 S
C427   N440    1.348   .     A
C427   H437    1.081   .     S
C428   N439    1.347   .     A
C428   H438    1.081   .     S
C428   C844    1.419   .     S
C429   N439    1.400   .     A
C429   S451    1.777   .     S
C429   C841    1.419   .     S
C430   N440    1.399   .     A
C430   S456    1.774   .     S
H431   C465    1.088   .     S
H432   C512    1.087   1_455 S
N439   Zn449   2.031   .     S
N440   Zn450   2.031   .     S
O441   Zn449   1.978   .     S
O442   Zn450   1.978   .     S
O443   Zn450   2.007   .     S
O444   Zn449   2.007   .     S
O445   Zn449   1.956   .     S
O446   Zn450   1.956   .     S
O447   Zn450   1.980   .     S
O448   Zn449   1.980   .     S
S451   O453    1.503   .     D
S451   O454    1.671   .     S
S451   O866    1.504   .     S
O454   H455    0.991   .     S
S456   O458    1.501   .     D
S456   O459    1.676   .     S
O457   S870    1.505   .     S
O459   H460    0.990   .     S
C461   O489    1.295   .     A
C461   C472    1.415   .     S
C461   O487    1.286   .     A
C462   O490    1.292   .     A
C462   C471    1.416   .     S
C462   O488    1.289   .     A
C463   O491    1.282   .     A
C463   O493    1.294   .     A
C463   C465    1.405   .     S
C464   O494    1.294   .     A
C464   O492    1.281   .     A
C464   C466    1.405   .     S
C466   C511    1.338   .     S
C466   H524    1.087   .     S
C467   H479    1.077   .     S
C467   C472    1.393   .     A
C467   C745    1.375   1_545 S
C468   H480    1.075   .     S
C468   C471    1.393   .     A
C468   C608    1.371   .     S
C469   C471    1.395   .     A
C469   H481    1.084   .     S
C469   C605    1.375   .     S
C470   H482    1.084   .     S
C470   C472    1.395   .     A
C470   C744    1.371   1_545 S
C473   N486    1.348   .     A
C473   H483    1.081   .     S
C474   N485    1.347   .     A
C474   H484    1.081   .     S
C474   C890    1.419   .     S
C475   N485    1.400   .     A
C475   S497    1.777   .     S
C475   C887    1.419   .     S
C476   N486    1.399   .     A
C476   S502    1.774   .     S
H477   C511    1.088   .     S
N485   Zn495   2.031   .     S
N486   Zn496   2.031   .     S
O487   Zn495   1.978   .     S
O488   Zn496   1.978   .     S
O489   Zn496   2.007   .     S
O490   Zn495   2.007   .     S
O491   Zn495   1.956   .     S
O492   Zn496   1.956   .     S
O493   Zn496   1.980   .     S
O494   Zn495   1.980   .     S
S497   O499    1.503   .     D
S497   O500    1.671   .     S
S497   O912    1.504   .     S
O500   H501    0.991   .     S
S502   O504    1.501   .     D
S502   O505    1.676   .     S
O503   S916    1.505   .     S
O505   H506    0.990   .     S
C507   O535    1.295   .     A
C507   C518    1.415   .     S
C507   O533    1.286   .     A
C508   O536    1.292   .     A
C508   C517    1.416   .     S
C508   O534    1.289   .     A
C509   O537    1.282   .     A
C509   O539    1.294   .     A
C509   C511    1.405   .     S
C510   O540    1.294   .     A
C510   O538    1.281   .     A
C510   C512    1.405   .     S
C512   C419    1.338   1_655 S
C512   H432    1.087   1_655 S
C513   H525    1.077   .     S
C513   C518    1.393   .     A
C513   C791    1.375   1_545 S
C514   H526    1.075   .     S
C514   C517    1.393   .     A
C514   C654    1.371   .     S
C515   C517    1.395   .     A
C515   H527    1.084   .     S
C515   C651    1.375   .     S
C516   H528    1.084   .     S
C516   C518    1.395   .     A
C516   C790    1.371   1_545 S
C519   N532    1.348   .     A
C519   H529    1.081   .     S
C520   N531    1.347   .     A
C520   H530    1.081   .     S
C520   C936    1.419   .     S
C521   N531    1.400   .     A
C521   S543    1.777   .     S
C521   C933    1.419   .     S
C522   N532    1.399   .     A
C522   S548    1.774   .     S
H523   C419    1.088   1_655 S
N531   Zn541   2.031   .     S
N532   Zn542   2.031   .     S
O533   Zn541   1.978   .     S
O534   Zn542   1.978   .     S
O535   Zn542   2.007   .     S
O536   Zn541   2.007   .     S
O537   Zn541   1.956   .     S
O538   Zn542   1.956   .     S
O539   Zn542   1.980   .     S
O540   Zn541   1.980   .     S
S543   O545    1.503   .     D
S543   O546    1.671   .     S
S543   O958    1.504   .     S
O546   H547    0.991   .     S
S548   O550    1.501   .     D
S548   O551    1.676   .     S
O549   S962    1.505   .     S
O551   H552    0.990   .     S
C553   O581    1.295   .     A
C553   C564    1.415   .     S
C553   O579    1.286   .     A
C554   O582    1.292   .     A
C554   C563    1.416   .     S
C554   O580    1.289   .     A
C555   O583    1.282   .     A
C555   O585    1.294   .     A
C555   C557    1.405   .     S
C556   O586    1.294   .     A
C556   O584    1.281   .     A
C556   C558    1.405   .     S
C557   C650    1.338   1_455 S
C557   H661    1.088   1_455 S
C558   C603    1.338   .     S
C558   H616    1.087   .     S
C559   H571    1.077   .     S
C559   C564    1.393   .     A
C560   H572    1.075   .     S
C560   C563    1.393   .     A
C560   C700    1.371   .     S
C561   C563    1.395   .     A
C561   H573    1.084   .     S
C561   C697    1.375   .     S
C562   H574    1.084   .     S
C562   C564    1.395   .     A
C565   N578    1.348   .     A
C565   H575    1.081   .     S
C566   N577    1.347   .     A
C566   H576    1.081   .     S
C566   C982    1.419   .     S
C567   N577    1.400   .     A
C567   S589    1.777   .     S
C567   C979    1.419   .     S
C568   N578    1.399   .     A
C568   S594    1.774   .     S
H569   C603    1.088   .     S
H570   C650    1.087   1_455 S
N577   Zn587   2.031   .     S
N578   Zn588   2.031   .     S
O579   Zn587   1.978   .     S
O580   Zn588   1.978   .     S
O581   Zn588   2.007   .     S
O582   Zn587   2.007   .     S
O583   Zn587   1.956   .     S
O584   Zn588   1.956   .     S
O585   Zn588   1.980   .     S
O586   Zn587   1.980   .     S
S589   O591    1.503   .     D
S589   O592    1.671   .     S
S589   O1004   1.504   .     S
O592   H593    0.991   .     S
S594   O596    1.501   .     D
S594   O597    1.676   .     S
O595   S1008   1.505   .     S
O597   H598    0.990   .     S
C599   O627    1.295   .     A
C599   C610    1.415   .     S
C599   O625    1.286   .     A
C600   O628    1.292   .     A
C600   C609    1.416   .     S
C600   O626    1.289   .     A
C601   O629    1.282   .     A
C601   O631    1.294   .     A
C601   C603    1.405   .     S
C602   O632    1.294   .     A
C602   O630    1.281   .     A
C602   C604    1.405   .     S
C604   C649    1.338   .     S
C604   H662    1.087   .     S
C605   H617    1.077   .     S
C605   C610    1.393   .     A
C606   H618    1.075   .     S
C606   C609    1.393   .     A
C606   C746    1.371   .     S
C607   C609    1.395   .     A
C607   H619    1.084   .     S
C607   C743    1.375   .     S
C608   H620    1.084   .     S
C608   C610    1.395   .     A
C611   N624    1.348   .     A
C611   H621    1.081   .     S
C612   N623    1.347   .     A
C612   H622    1.081   .     S
C612   C1028   1.419   .     S
C613   N623    1.400   .     A
C613   S635    1.777   .     S
C613   C1025   1.419   .     S
C614   N624    1.399   .     A
C614   S640    1.774   .     S
H615   C649    1.088   .     S
N623   Zn633   2.031   .     S
N624   Zn634   2.031   .     S
O625   Zn633   1.978   .     S
O626   Zn634   1.978   .     S
O627   Zn634   2.007   .     S
O628   Zn633   2.007   .     S
O629   Zn633   1.956   .     S
O630   Zn634   1.956   .     S
O631   Zn634   1.980   .     S
O632   Zn633   1.980   .     S
S635   O637    1.503   .     D
S635   O638    1.671   .     S
S635   O1050   1.504   .     S
O638   H639    0.991   .     S
S640   O642    1.501   .     D
S640   O643    1.676   .     S
O641   S1054   1.505   .     S
O643   H644    0.990   .     S
C645   O673    1.295   .     A
C645   C656    1.415   .     S
C645   O671    1.286   .     A
C646   O674    1.292   .     A
C646   C655    1.416   .     S
C646   O672    1.289   .     A
C647   O675    1.282   .     A
C647   O677    1.294   .     A
C647   C649    1.405   .     S
C648   O678    1.294   .     A
C648   O676    1.281   .     A
C648   C650    1.405   .     S
C650   C557    1.338   1_655 S
C650   H570    1.087   1_655 S
C651   H663    1.077   .     S
C651   C656    1.393   .     A
C652   H664    1.075   .     S
C652   C655    1.393   .     A
C652   C792    1.371   .     S
C653   C655    1.395   .     A
C653   H665    1.084   .     S
C653   C789    1.375   .     S
C654   H666    1.084   .     S
C654   C656    1.395   .     A
C657   N670    1.348   .     A
C657   H667    1.081   .     S
C658   N669    1.347   .     A
C658   H668    1.081   .     S
C658   C1074   1.419   .     S
C659   N669    1.400   .     A
C659   S681    1.777   .     S
C659   C1071   1.419   .     S
C660   N670    1.399   .     A
C660   S686    1.774   .     S
H661   C557    1.088   1_655 S
N669   Zn679   2.031   .     S
N670   Zn680   2.031   .     S
O671   Zn679   1.978   .     S
O672   Zn680   1.978   .     S
O673   Zn680   2.007   .     S
O674   Zn679   2.007   .     S
O675   Zn679   1.956   .     S
O676   Zn680   1.956   .     S
O677   Zn680   1.980   .     S
O678   Zn679   1.980   .     S
S681   O683    1.503   .     D
S681   O684    1.671   .     S
S681   O1096   1.504   .     S
O684   H685    0.991   .     S
S686   O688    1.501   .     D
S686   O689    1.676   .     S
O687   S1100   1.505   .     S
O689   H690    0.990   .     S
C691   O719    1.295   .     A
C691   C702    1.415   .     S
C691   O717    1.286   .     A
C692   O720    1.292   .     A
C692   C701    1.416   .     S
C692   O718    1.289   .     A
C693   O721    1.282   .     A
C693   O723    1.294   .     A
C693   C695    1.405   .     S
C694   O724    1.294   .     A
C694   O722    1.281   .     A
C694   C696    1.405   .     S
C695   C788    1.338   1_455 S
C695   H799    1.088   1_455 S
C696   C741    1.338   .     S
C696   H754    1.087   .     S
C697   H709    1.077   .     S
C697   C702    1.393   .     A
C698   H710    1.075   .     S
C698   C701    1.393   .     A
C698   C424    1.371   1_565 S
C699   C701    1.395   .     A
C699   H711    1.084   .     S
C699   C421    1.375   1_565 S
C700   H712    1.084   .     S
C700   C702    1.395   .     A
C703   N716    1.348   .     A
C703   H713    1.081   .     S
C704   N715    1.347   .     A
C704   H714    1.081   .     S
C704   C1120   1.419   .     S
C705   N715    1.400   .     A
C705   S727    1.777   .     S
C705   C1117   1.419   .     S
C706   N716    1.399   .     A
C706   S732    1.774   .     S
H707   C741    1.088   .     S
H708   C788    1.087   1_455 S
N715   Zn725   2.031   .     S
N716   Zn726   2.031   .     S
O717   Zn725   1.978   .     S
O718   Zn726   1.978   .     S
O719   Zn726   2.007   .     S
O720   Zn725   2.007   .     S
O721   Zn725   1.956   .     S
O722   Zn726   1.956   .     S
O723   Zn726   1.980   .     S
O724   Zn725   1.980   .     S
S727   O729    1.503   .     D
S727   O730    1.671   .     S
S727   O1142   1.504   .     S
O730   H731    0.991   .     S
S732   O734    1.501   .     D
S732   O735    1.676   .     S
O733   S1146   1.505   .     S
O735   H736    0.990   .     S
C737   O765    1.295   .     A
C737   C748    1.415   .     S
C737   O763    1.286   .     A
C738   O766    1.292   .     A
C738   C747    1.416   .     S
C738   O764    1.289   .     A
C739   O767    1.282   .     A
C739   O769    1.294   .     A
C739   C741    1.405   .     S
C740   O770    1.294   .     A
C740   O768    1.281   .     A
C740   C742    1.405   .     S
C742   C787    1.338   .     S
C742   H800    1.087   .     S
C743   H755    1.077   .     S
C743   C748    1.393   .     A
C744   H756    1.075   .     S
C744   C747    1.393   .     A
C744   C470    1.371   1_565 S
C745   C747    1.395   .     A
C745   H757    1.084   .     S
C745   C467    1.375   1_565 S
C746   H758    1.084   .     S
C746   C748    1.395   .     A
C749   N762    1.348   .     A
C749   H759    1.081   .     S
C750   N761    1.347   .     A
C750   H760    1.081   .     S
C750   C1166   1.419   .     S
C751   N761    1.400   .     A
C751   S773    1.777   .     S
C751   C1163   1.419   .     S
C752   N762    1.399   .     A
C752   S778    1.774   .     S
H753   C787    1.088   .     S
N761   Zn771   2.031   .     S
N762   Zn772   2.031   .     S
O763   Zn771   1.978   .     S
O764   Zn772   1.978   .     S
O765   Zn772   2.007   .     S
O766   Zn771   2.007   .     S
O767   Zn771   1.956   .     S
O768   Zn772   1.956   .     S
O769   Zn772   1.980   .     S
O770   Zn771   1.980   .     S
S773   O775    1.503   .     D
S773   O776    1.671   .     S
S773   O1188   1.504   .     S
O776   H777    0.991   .     S
S778   O780    1.501   .     D
S778   O781    1.676   .     S
O779   S1192   1.505   .     S
O781   H782    0.990   .     S
C783   O811    1.295   .     A
C783   C794    1.415   .     S
C783   O809    1.286   .     A
C784   O812    1.292   .     A
C784   C793    1.416   .     S
C784   O810    1.289   .     A
C785   O813    1.282   .     A
C785   O815    1.294   .     A
C785   C787    1.405   .     S
C786   O816    1.294   .     A
C786   O814    1.281   .     A
C786   C788    1.405   .     S
C788   C695    1.338   1_655 S
C788   H708    1.087   1_655 S
C789   H801    1.077   .     S
C789   C794    1.393   .     A
C790   H802    1.075   .     S
C790   C793    1.393   .     A
C790   C516    1.371   1_565 S
C791   C793    1.395   .     A
C791   H803    1.084   .     S
C791   C513    1.375   1_565 S
C792   H804    1.084   .     S
C792   C794    1.395   .     A
C795   N808    1.348   .     A
C795   H805    1.081   .     S
C796   N807    1.347   .     A
C796   H806    1.081   .     S
C796   C1212   1.419   .     S
C797   N807    1.400   .     A
C797   S819    1.777   .     S
C797   C1209   1.419   .     S
C798   N808    1.399   .     A
C798   S824    1.774   .     S
H799   C695    1.088   1_655 S
N807   Zn817   2.031   .     S
N808   Zn818   2.031   .     S
O809   Zn817   1.978   .     S
O810   Zn818   1.978   .     S
O811   Zn818   2.007   .     S
O812   Zn817   2.007   .     S
O813   Zn817   1.956   .     S
O814   Zn818   1.956   .     S
O815   Zn818   1.980   .     S
O816   Zn817   1.980   .     S
S819   O821    1.503   .     D
S819   O822    1.671   .     S
S819   O1234   1.504   .     S
O822   H823    0.991   .     S
S824   O826    1.501   .     D
S824   O827    1.676   .     S
O825   S1238   1.505   .     S
O827   H828    0.990   .     S
C829   O857    1.295   .     A
C829   C840    1.415   .     S
C829   O855    1.286   .     A
C830   O858    1.292   .     A
C830   C839    1.416   .     S
C830   O856    1.289   .     A
C831   O859    1.282   .     A
C831   O861    1.294   .     A
C831   C833    1.405   .     S
C832   O862    1.294   .     A
C832   O860    1.281   .     A
C832   C834    1.405   .     S
C833   C926    1.338   1_455 S
C833   H937    1.088   1_455 S
C834   C879    1.338   .     S
C834   H892    1.087   .     S
C835   H847    1.077   .     S
C835   C840    1.393   .     A
C835   C1113   1.375   1_545 S
C836   H848    1.075   .     S
C836   C839    1.393   .     A
C836   C976    1.371   .     S
C837   C839    1.395   .     A
C837   H849    1.084   .     S
C837   C973    1.375   .     S
C838   H850    1.084   .     S
C838   C840    1.395   .     A
C838   C1112   1.371   1_545 S
C841   N854    1.348   .     A
C841   H851    1.081   .     S
C842   N853    1.347   .     A
C842   H852    1.081   .     S
C842   C16     1.419   1_556 S
C843   N853    1.400   .     A
C843   S865    1.777   .     S
C843   C13     1.419   1_556 S
C844   N854    1.399   .     A
C844   S870    1.774   .     S
H845   C879    1.088   .     S
H846   C926    1.087   1_455 S
N853   Zn863   2.031   .     S
N854   Zn864   2.031   .     S
O855   Zn863   1.978   .     S
O856   Zn864   1.978   .     S
O857   Zn864   2.007   .     S
O858   Zn863   2.007   .     S
O859   Zn863   1.956   .     S
O860   Zn864   1.956   .     S
O861   Zn864   1.980   .     S
O862   Zn863   1.980   .     S
S865   O867    1.503   .     D
S865   O868    1.671   .     S
S865   O38     1.504   1_556 S
O868   H869    0.991   .     S
S870   O872    1.501   .     D
S870   O873    1.676   .     S
O871   S42     1.505   1_556 S
O873   H874    0.990   .     S
C875   O903    1.295   .     A
C875   C886    1.415   .     S
C875   O901    1.286   .     A
C876   O904    1.292   .     A
C876   C885    1.416   .     S
C876   O902    1.289   .     A
C877   O905    1.282   .     A
C877   O907    1.294   .     A
C877   C879    1.405   .     S
C878   O908    1.294   .     A
C878   O906    1.281   .     A
C878   C880    1.405   .     S
C880   C925    1.338   .     S
C880   H938    1.087   .     S
C881   H893    1.077   .     S
C881   C886    1.393   .     A
C881   C1159   1.375   1_545 S
C882   H894    1.075   .     S
C882   C885    1.393   .     A
C882   C1022   1.371   .     S
C883   C885    1.395   .     A
C883   H895    1.084   .     S
C883   C1019   1.375   .     S
C884   H896    1.084   .     S
C884   C886    1.395   .     A
C884   C1158   1.371   1_545 S
C887   N900    1.348   .     A
C887   H897    1.081   .     S
C888   N899    1.347   .     A
C888   H898    1.081   .     S
C888   C62     1.419   1_556 S
C889   N899    1.400   .     A
C889   S911    1.777   .     S
C889   C59     1.419   1_556 S
C890   N900    1.399   .     A
C890   S916    1.774   .     S
H891   C925    1.088   .     S
N899   Zn909   2.031   .     S
N900   Zn910   2.031   .     S
O901   Zn909   1.978   .     S
O902   Zn910   1.978   .     S
O903   Zn910   2.007   .     S
O904   Zn909   2.007   .     S
O905   Zn909   1.956   .     S
O906   Zn910   1.956   .     S
O907   Zn910   1.980   .     S
O908   Zn909   1.980   .     S
S911   O913    1.503   .     D
S911   O914    1.671   .     S
S911   O84     1.504   1_556 S
O914   H915    0.991   .     S
S916   O918    1.501   .     D
S916   O919    1.676   .     S
O917   S88     1.505   1_556 S
O919   H920    0.990   .     S
C921   O949    1.295   .     A
C921   C932    1.415   .     S
C921   O947    1.286   .     A
C922   O950    1.292   .     A
C922   C931    1.416   .     S
C922   O948    1.289   .     A
C923   O951    1.282   .     A
C923   O953    1.294   .     A
C923   C925    1.405   .     S
C924   O954    1.294   .     A
C924   O952    1.281   .     A
C924   C926    1.405   .     S
C926   C833    1.338   1_655 S
C926   H846    1.087   1_655 S
C927   H939    1.077   .     S
C927   C932    1.393   .     A
C927   C1205   1.375   1_545 S
C928   H940    1.075   .     S
C928   C931    1.393   .     A
C928   C1068   1.371   .     S
C929   C931    1.395   .     A
C929   H941    1.084   .     S
C929   C1065   1.375   .     S
C930   H942    1.084   .     S
C930   C932    1.395   .     A
C930   C1204   1.371   1_545 S
C933   N946    1.348   .     A
C933   H943    1.081   .     S
C934   N945    1.347   .     A
C934   H944    1.081   .     S
C934   C108    1.419   1_556 S
C935   N945    1.400   .     A
C935   S957    1.777   .     S
C935   C105    1.419   1_556 S
C936   N946    1.399   .     A
C936   S962    1.774   .     S
H937   C833    1.088   1_655 S
N945   Zn955   2.031   .     S
N946   Zn956   2.031   .     S
O947   Zn955   1.978   .     S
O948   Zn956   1.978   .     S
O949   Zn956   2.007   .     S
O950   Zn955   2.007   .     S
O951   Zn955   1.956   .     S
O952   Zn956   1.956   .     S
O953   Zn956   1.980   .     S
O954   Zn955   1.980   .     S
S957   O959    1.503   .     D
S957   O960    1.671   .     S
S957   O130    1.504   1_556 S
O960   H961    0.991   .     S
S962   O964    1.501   .     D
S962   O965    1.676   .     S
O963   S134    1.505   1_556 S
O965   H966    0.990   .     S
C967   O995    1.295   .     A
C967   C978    1.415   .     S
C967   O993    1.286   .     A
C968   O996    1.292   .     A
C968   C977    1.416   .     S
C968   O994    1.289   .     A
C969   O997    1.282   .     A
C969   O999    1.294   .     A
C969   C971    1.405   .     S
C970   O1000   1.294   .     A
C970   O998    1.281   .     A
C970   C972    1.405   .     S
C971   C1064   1.338   1_455 S
C971   H1075   1.088   1_455 S
C972   C1017   1.338   .     S
C972   H1030   1.087   .     S
C973   H985    1.077   .     S
C973   C978    1.393   .     A
C974   H986    1.075   .     S
C974   C977    1.393   .     A
C974   C1114   1.371   .     S
C975   C977    1.395   .     A
C975   H987    1.084   .     S
C975   C1111   1.375   .     S
C976   H988    1.084   .     S
C976   C978    1.395   .     A
C979   N992    1.348   .     A
C979   H989    1.081   .     S
C980   N991    1.347   .     A
C980   H990    1.081   .     S
C980   C154    1.419   1_556 S
C981   N991    1.400   .     A
C981   S1003   1.777   .     S
C981   C151    1.419   1_556 S
C982   N992    1.399   .     A
C982   S1008   1.774   .     S
H983   C1017   1.088   .     S
H984   C1064   1.087   1_455 S
N991   Zn1001  2.031   .     S
N992   Zn1002  2.031   .     S
O993   Zn1001  1.978   .     S
O994   Zn1002  1.978   .     S
O995   Zn1002  2.007   .     S
O996   Zn1001  2.007   .     S
O997   Zn1001  1.956   .     S
O998   Zn1002  1.956   .     S
O999   Zn1002  1.980   .     S
O1000  Zn1001  1.980   .     S
S1003  O1005   1.503   .     D
S1003  O1006   1.671   .     S
S1003  O176    1.504   1_556 S
O1006  H1007   0.991   .     S
S1008  O1010   1.501   .     D
S1008  O1011   1.676   .     S
O1009  S180    1.505   1_556 S
O1011  H1012   0.990   .     S
C1013  O1041   1.295   .     A
C1013  C1024   1.415   .     S
C1013  O1039   1.286   .     A
C1014  O1042   1.292   .     A
C1014  C1023   1.416   .     S
C1014  O1040   1.289   .     A
C1015  O1043   1.282   .     A
C1015  O1045   1.294   .     A
C1015  C1017   1.405   .     S
C1016  O1046   1.294   .     A
C1016  O1044   1.281   .     A
C1016  C1018   1.405   .     S
C1018  C1063   1.338   .     S
C1018  H1076   1.087   .     S
C1019  H1031   1.077   .     S
C1019  C1024   1.393   .     A
C1020  H1032   1.075   .     S
C1020  C1023   1.393   .     A
C1020  C1160   1.371   .     S
C1021  C1023   1.395   .     A
C1021  H1033   1.084   .     S
C1021  C1157   1.375   .     S
C1022  H1034   1.084   .     S
C1022  C1024   1.395   .     A
C1025  N1038   1.348   .     A
C1025  H1035   1.081   .     S
C1026  N1037   1.347   .     A
C1026  H1036   1.081   .     S
C1026  C200    1.419   1_556 S
C1027  N1037   1.400   .     A
C1027  S1049   1.777   .     S
C1027  C197    1.419   1_556 S
C1028  N1038   1.399   .     A
C1028  S1054   1.774   .     S
H1029  C1063   1.088   .     S
N1037  Zn1047  2.031   .     S
N1038  Zn1048  2.031   .     S
O1039  Zn1047  1.978   .     S
O1040  Zn1048  1.978   .     S
O1041  Zn1048  2.007   .     S
O1042  Zn1047  2.007   .     S
O1043  Zn1047  1.956   .     S
O1044  Zn1048  1.956   .     S
O1045  Zn1048  1.980   .     S
O1046  Zn1047  1.980   .     S
S1049  O1051   1.503   .     D
S1049  O1052   1.671   .     S
S1049  O222    1.504   1_556 S
O1052  H1053   0.991   .     S
S1054  O1056   1.501   .     D
S1054  O1057   1.676   .     S
O1055  S226    1.505   1_556 S
O1057  H1058   0.990   .     S
C1059  O1087   1.295   .     A
C1059  C1070   1.415   .     S
C1059  O1085   1.286   .     A
C1060  O1088   1.292   .     A
C1060  C1069   1.416   .     S
C1060  O1086   1.289   .     A
C1061  O1089   1.282   .     A
C1061  O1091   1.294   .     A
C1061  C1063   1.405   .     S
C1062  O1092   1.294   .     A
C1062  O1090   1.281   .     A
C1062  C1064   1.405   .     S
C1064  C971    1.338   1_655 S
C1064  H984    1.087   1_655 S
C1065  H1077   1.077   .     S
C1065  C1070   1.393   .     A
C1066  H1078   1.075   .     S
C1066  C1069   1.393   .     A
C1066  C1206   1.371   .     S
C1067  C1069   1.395   .     A
C1067  H1079   1.084   .     S
C1067  C1203   1.375   .     S
C1068  H1080   1.084   .     S
C1068  C1070   1.395   .     A
C1071  N1084   1.348   .     A
C1071  H1081   1.081   .     S
C1072  N1083   1.347   .     A
C1072  H1082   1.081   .     S
C1072  C246    1.419   1_556 S
C1073  N1083   1.400   .     A
C1073  S1095   1.777   .     S
C1073  C243    1.419   1_556 S
C1074  N1084   1.399   .     A
C1074  S1100   1.774   .     S
H1075  C971    1.088   1_655 S
N1083  Zn1093  2.031   .     S
N1084  Zn1094  2.031   .     S
O1085  Zn1093  1.978   .     S
O1086  Zn1094  1.978   .     S
O1087  Zn1094  2.007   .     S
O1088  Zn1093  2.007   .     S
O1089  Zn1093  1.956   .     S
O1090  Zn1094  1.956   .     S
O1091  Zn1094  1.980   .     S
O1092  Zn1093  1.980   .     S
S1095  O1097   1.503   .     D
S1095  O1098   1.671   .     S
S1095  O268    1.504   1_556 S
O1098  H1099   0.991   .     S
S1100  O1102   1.501   .     D
S1100  O1103   1.676   .     S
O1101  S272    1.505   1_556 S
O1103  H1104   0.990   .     S
C1105  O1133   1.295   .     A
C1105  C1116   1.415   .     S
C1105  O1131   1.286   .     A
C1106  O1134   1.292   .     A
C1106  C1115   1.416   .     S
C1106  O1132   1.289   .     A
C1107  O1135   1.282   .     A
C1107  O1137   1.294   .     A
C1107  C1109   1.405   .     S
C1108  O1138   1.294   .     A
C1108  O1136   1.281   .     A
C1108  C1110   1.405   .     S
C1109  C1202   1.338   1_455 S
C1109  H1213   1.088   1_455 S
C1110  C1155   1.338   .     S
C1110  H1168   1.087   .     S
C1111  H1123   1.077   .     S
C1111  C1116   1.393   .     A
C1112  H1124   1.075   .     S
C1112  C1115   1.393   .     A
C1112  C838    1.371   1_565 S
C1113  C1115   1.395   .     A
C1113  H1125   1.084   .     S
C1113  C835    1.375   1_565 S
C1114  H1126   1.084   .     S
C1114  C1116   1.395   .     A
C1117  N1130   1.348   .     A
C1117  H1127   1.081   .     S
C1118  N1129   1.347   .     A
C1118  H1128   1.081   .     S
C1118  C292    1.419   1_556 S
C1119  N1129   1.400   .     A
C1119  S1141   1.777   .     S
C1119  C289    1.419   1_556 S
C1120  N1130   1.399   .     A
C1120  S1146   1.774   .     S
H1121  C1155   1.088   .     S
H1122  C1202   1.087   1_455 S
N1129  Zn1139  2.031   .     S
N1130  Zn1140  2.031   .     S
O1131  Zn1139  1.978   .     S
O1132  Zn1140  1.978   .     S
O1133  Zn1140  2.007   .     S
O1134  Zn1139  2.007   .     S
O1135  Zn1139  1.956   .     S
O1136  Zn1140  1.956   .     S
O1137  Zn1140  1.980   .     S
O1138  Zn1139  1.980   .     S
S1141  O1143   1.503   .     D
S1141  O1144   1.671   .     S
S1141  O314    1.504   1_556 S
O1144  H1145   0.991   .     S
S1146  O1148   1.501   .     D
S1146  O1149   1.676   .     S
O1147  S318    1.505   1_556 S
O1149  H1150   0.990   .     S
C1151  O1179   1.295   .     A
C1151  C1162   1.415   .     S
C1151  O1177   1.286   .     A
C1152  O1180   1.292   .     A
C1152  C1161   1.416   .     S
C1152  O1178   1.289   .     A
C1153  O1181   1.282   .     A
C1153  O1183   1.294   .     A
C1153  C1155   1.405   .     S
C1154  O1184   1.294   .     A
C1154  O1182   1.281   .     A
C1154  C1156   1.405   .     S
C1156  C1201   1.338   .     S
C1156  H1214   1.087   .     S
C1157  H1169   1.077   .     S
C1157  C1162   1.393   .     A
C1158  H1170   1.075   .     S
C1158  C1161   1.393   .     A
C1158  C884    1.371   1_565 S
C1159  C1161   1.395   .     A
C1159  H1171   1.084   .     S
C1159  C881    1.375   1_565 S
C1160  H1172   1.084   .     S
C1160  C1162   1.395   .     A
C1163  N1176   1.348   .     A
C1163  H1173   1.081   .     S
C1164  N1175   1.347   .     A
C1164  H1174   1.081   .     S
C1164  C338    1.419   1_556 S
C1165  N1175   1.400   .     A
C1165  S1187   1.777   .     S
C1165  C335    1.419   1_556 S
C1166  N1176   1.399   .     A
C1166  S1192   1.774   .     S
H1167  C1201   1.088   .     S
N1175  Zn1185  2.031   .     S
N1176  Zn1186  2.031   .     S
O1177  Zn1185  1.978   .     S
O1178  Zn1186  1.978   .     S
O1179  Zn1186  2.007   .     S
O1180  Zn1185  2.007   .     S
O1181  Zn1185  1.956   .     S
O1182  Zn1186  1.956   .     S
O1183  Zn1186  1.980   .     S
O1184  Zn1185  1.980   .     S
S1187  O1189   1.503   .     D
S1187  O1190   1.671   .     S
S1187  O360    1.504   1_556 S
O1190  H1191   0.991   .     S
S1192  O1194   1.501   .     D
S1192  O1195   1.676   .     S
O1193  S364    1.505   1_556 S
O1195  H1196   0.990   .     S
C1197  O1225   1.295   .     A
C1197  C1208   1.415   .     S
C1197  O1223   1.286   .     A
C1198  O1226   1.292   .     A
C1198  C1207   1.416   .     S
C1198  O1224   1.289   .     A
C1199  O1227   1.282   .     A
C1199  O1229   1.294   .     A
C1199  C1201   1.405   .     S
C1200  O1230   1.294   .     A
C1200  O1228   1.281   .     A
C1200  C1202   1.405   .     S
C1202  C1109   1.338   1_655 S
C1202  H1122   1.087   1_655 S
C1203  H1215   1.077   .     S
C1203  C1208   1.393   .     A
C1204  H1216   1.075   .     S
C1204  C1207   1.393   .     A
C1204  C930    1.371   1_565 S
C1205  C1207   1.395   .     A
C1205  H1217   1.084   .     S
C1205  C927    1.375   1_565 S
C1206  H1218   1.084   .     S
C1206  C1208   1.395   .     A
C1209  N1222   1.348   .     A
C1209  H1219   1.081   .     S
C1210  N1221   1.347   .     A
C1210  H1220   1.081   .     S
C1210  C384    1.419   1_556 S
C1211  N1221   1.400   .     A
C1211  S1233   1.777   .     S
C1211  C381    1.419   1_556 S
C1212  N1222   1.399   .     A
C1212  S1238   1.774   .     S
H1213  C1109   1.088   1_655 S
N1221  Zn1231  2.031   .     S
N1222  Zn1232  2.031   .     S
O1223  Zn1231  1.978   .     S
O1224  Zn1232  1.978   .     S
O1225  Zn1232  2.007   .     S
O1226  Zn1231  2.007   .     S
O1227  Zn1231  1.956   .     S
O1228  Zn1232  1.956   .     S
O1229  Zn1232  1.980   .     S
O1230  Zn1231  1.980   .     S
S1233  O1235   1.503   .     D
S1233  O1236   1.671   .     S
S1233  O406    1.504   1_556 S
O1236  H1237   0.991   .     S
S1238  O1240   1.501   .     D
S1238  O1241   1.676   .     S
O1239  S410    1.505   1_556 S
O1241  H1242   0.990   .     S
