data_str_m3_o10_o17_pcu_sym.48
_audit_creation_date              2020-01-03
_audit_creation_method            'Materials Studio'
_symmetry_space_group_name_H-M    'P1'
_symmetry_Int_Tables_number       1
_symmetry_cell_setting            triclinic
loop_
_symmetry_equiv_pos_as_xyz
  x,y,z
_cell_length_a                    23.4680
_cell_length_b                    25.5567
_cell_length_c                    29.7863
_cell_angle_alpha                 92.5735
_cell_angle_beta                  84.2512
_cell_angle_gamma                 93.7036
loop_
_atom_site_label
_atom_site_type_symbol
_atom_site_fract_x
_atom_site_fract_y
_atom_site_fract_z
_atom_site_U_iso_or_equiv
_atom_site_adp_type
_atom_site_occupancy
C1     C     0.18153   0.26489   0.24940   0.00000  Uiso   1.00
C2     C     0.19880   0.20085   0.40462   0.00000  Uiso   1.00
C3     C     0.16750   0.17148   0.11606   0.00000  Uiso   1.00
C4     C     0.16583   0.16185   0.38394   0.00000  Uiso   1.00
C5     C     0.20066   0.21054   0.09170   0.00000  Uiso   1.00
C6     C     0.13268   0.12279   0.40830   0.00000  Uiso   1.00
C7     C     0.19598   0.21227   0.04491   0.00000  Uiso   1.00
C8     C     0.13735   0.12106   0.45509   0.00000  Uiso   1.00
C9     C     0.16642   0.16876   0.02351   0.00000  Uiso   1.00
C10    C     0.16691   0.16458   0.47648   0.00000  Uiso   1.00
C11    C     0.13615   0.12922   0.04916   0.00000  Uiso   1.00
C12    C     0.15180   0.06845   0.25060   0.00000  Uiso   1.00
C13    C     0.19719   0.20412   0.45084   0.00000  Uiso   1.00
C14    C     0.22000   0.25427   0.01805   0.00000  Uiso   1.00
C15    C     0.11333   0.07907   0.48195   0.00000  Uiso   1.00
C16    C     0.32263   0.09974   0.17109   0.00000  Uiso   1.00
C17    C     0.01070   0.23360   0.32891   0.00000  Uiso   1.00
C18    C     0.22297   0.24822   0.47142   0.00000  Uiso   1.00
C19    C     0.11037   0.08511   0.02858   0.00000  Uiso   1.00
C20    C     0.18679   0.31914   0.25741   0.00000  Uiso   1.00
C21    C     0.14654   0.01419   0.24259   0.00000  Uiso   1.00
C22    C     0.16614   0.16430   0.33629   0.00000  Uiso   1.00
C23    C     0.16720   0.16904   0.16371   0.00000  Uiso   1.00
C24    C     0.13454   0.13249   0.09538   0.00000  Uiso   1.00
H25    H     0.11079   0.10234   0.11543   0.00000  Uiso   1.00
H26    H     0.31741   0.26344   0.34735   0.00000  Uiso   1.00
H27    H     0.05599   0.24944   0.32616   0.00000  Uiso   1.00
H28    H     0.00588   0.19739   0.34859   0.00000  Uiso   1.00
H29    H     0.22254   0.23100   0.38457   0.00000  Uiso   1.00
H30    H     0.24235   0.27996   0.45098   0.00000  Uiso   1.00
H31    H     0.09099   0.05337   0.04902   0.00000  Uiso   1.00
H32    H     0.00363   0.07769   0.23459   0.00000  Uiso   1.00
H33    H     0.01593   0.06989   0.15265   0.00000  Uiso   1.00
H34    H     0.32746   0.13594   0.15141   0.00000  Uiso   1.00
H35    H     0.27734   0.08389   0.17384   0.00000  Uiso   1.00
H36    H     0.32970   0.25564   0.26541   0.00000  Uiso   1.00
I37    I     0.26523   0.25617   0.12561   0.00000  Uiso   1.00
I38    I     0.06810   0.07716   0.37439   0.00000  Uiso   1.00
I39    I     0.23754   0.00062   0.03991   0.00000  Uiso   1.00
I40    I     0.09579   0.33271   0.46009   0.00000  Uiso   1.00
I41    I     0.24256   0.01121   0.30818   0.00000  Uiso   1.00
I42    I     0.09077   0.32213   0.19182   0.00000  Uiso   1.00
N43    N     0.31678   0.15265   0.23783   0.00000  Uiso   1.00
N44    N     0.01656   0.18068   0.26217   0.00000  Uiso   1.00
N45    N     0.00824   0.11051   0.21536   0.00000  Uiso   1.00
N46    N     0.32509   0.22282   0.28464   0.00000  Uiso   1.00
O47    O     0.12975   0.24619   0.25298   0.00000  Uiso   1.00
O48    O     0.20358   0.08714   0.24701   0.00000  Uiso   1.00
O49    O     0.22613   0.23721   0.24518   0.00000  Uiso   1.00
O50    O     0.10720   0.09613   0.25481   0.00000  Uiso   1.00
O51    O     0.11847   0.17117   0.31997   0.00000  Uiso   1.00
O52    O     0.21486   0.16216   0.18002   0.00000  Uiso   1.00
O53    O     0.21485   0.16219   0.31217   0.00000  Uiso   1.00
O54    O     0.11848   0.17115   0.18782   0.00000  Uiso   1.00
Zn55   Zn    0.10231   0.17266   0.25521   0.00000  Uiso   1.00
Zn56   Zn    0.23102   0.16067   0.24479   0.00000  Uiso   1.00
C57    C     0.51487   0.26489   0.24940   0.00000  Uiso   1.00
C58    C     0.53213   0.20085   0.40462   0.00000  Uiso   1.00
C59    C     0.50083   0.17148   0.11606   0.00000  Uiso   1.00
C60    C     0.49917   0.16185   0.38394   0.00000  Uiso   1.00
C61    C     0.53399   0.21054   0.09170   0.00000  Uiso   1.00
C62    C     0.46601   0.12279   0.40830   0.00000  Uiso   1.00
C63    C     0.52932   0.21227   0.04491   0.00000  Uiso   1.00
C64    C     0.47069   0.12106   0.45509   0.00000  Uiso   1.00
C65    C     0.49976   0.16876   0.02351   0.00000  Uiso   1.00
C66    C     0.50025   0.16458   0.47648   0.00000  Uiso   1.00
C67    C     0.46948   0.12922   0.04916   0.00000  Uiso   1.00
C68    C     0.48513   0.06845   0.25060   0.00000  Uiso   1.00
C69    C     0.53052   0.20412   0.45084   0.00000  Uiso   1.00
C70    C     0.55334   0.25427   0.01805   0.00000  Uiso   1.00
C71    C     0.44667   0.07907   0.48195   0.00000  Uiso   1.00
C72    C     0.65597   0.09974   0.17109   0.00000  Uiso   1.00
C73    C     0.34403   0.23360   0.32891   0.00000  Uiso   1.00
C74    C     0.55630   0.24822   0.47142   0.00000  Uiso   1.00
C75    C     0.44370   0.08511   0.02858   0.00000  Uiso   1.00
C76    C     0.52013   0.31914   0.25741   0.00000  Uiso   1.00
C77    C     0.47987   0.01419   0.24259   0.00000  Uiso   1.00
C78    C     0.49947   0.16430   0.33629   0.00000  Uiso   1.00
C79    C     0.50053   0.16904   0.16371   0.00000  Uiso   1.00
C80    C     0.46787   0.13249   0.09538   0.00000  Uiso   1.00
H81    H     0.44413   0.10234   0.11543   0.00000  Uiso   1.00
H82    H     0.65074   0.26344   0.34735   0.00000  Uiso   1.00
H83    H     0.38932   0.24944   0.32616   0.00000  Uiso   1.00
H84    H     0.33921   0.19739   0.34859   0.00000  Uiso   1.00
H85    H     0.55587   0.23100   0.38457   0.00000  Uiso   1.00
H86    H     0.57568   0.27996   0.45098   0.00000  Uiso   1.00
H87    H     0.42433   0.05337   0.04902   0.00000  Uiso   1.00
H88    H     0.33697   0.07769   0.23459   0.00000  Uiso   1.00
H89    H     0.34926   0.06989   0.15265   0.00000  Uiso   1.00
H90    H     0.66079   0.13594   0.15141   0.00000  Uiso   1.00
H91    H     0.61068   0.08389   0.17384   0.00000  Uiso   1.00
H92    H     0.66303   0.25564   0.26541   0.00000  Uiso   1.00
I93    I     0.59857   0.25617   0.12561   0.00000  Uiso   1.00
I94    I     0.40143   0.07716   0.37439   0.00000  Uiso   1.00
I95    I     0.57088   0.00062   0.03991   0.00000  Uiso   1.00
I96    I     0.42913   0.33271   0.46009   0.00000  Uiso   1.00
I97    I     0.57589   0.01121   0.30818   0.00000  Uiso   1.00
I98    I     0.42411   0.32213   0.19182   0.00000  Uiso   1.00
N99    N     0.65011   0.15265   0.23783   0.00000  Uiso   1.00
N100   N     0.34989   0.18068   0.26217   0.00000  Uiso   1.00
N101   N     0.34157   0.11051   0.21536   0.00000  Uiso   1.00
N102   N     0.65843   0.22282   0.28464   0.00000  Uiso   1.00
O103   O     0.46308   0.24619   0.25298   0.00000  Uiso   1.00
O104   O     0.53692   0.08714   0.24701   0.00000  Uiso   1.00
O105   O     0.55946   0.23721   0.24518   0.00000  Uiso   1.00
O106   O     0.44054   0.09613   0.25481   0.00000  Uiso   1.00
O107   O     0.45181   0.17117   0.31997   0.00000  Uiso   1.00
O108   O     0.54819   0.16216   0.18002   0.00000  Uiso   1.00
O109   O     0.54819   0.16219   0.31217   0.00000  Uiso   1.00
O110   O     0.45181   0.17115   0.18782   0.00000  Uiso   1.00
Zn111  Zn    0.43565   0.17266   0.25521   0.00000  Uiso   1.00
Zn112  Zn    0.56435   0.16067   0.24479   0.00000  Uiso   1.00
C113   C     0.84820   0.26489   0.24940   0.00000  Uiso   1.00
C114   C     0.86547   0.20085   0.40462   0.00000  Uiso   1.00
C115   C     0.83417   0.17148   0.11606   0.00000  Uiso   1.00
C116   C     0.83250   0.16185   0.38394   0.00000  Uiso   1.00
C117   C     0.86732   0.21054   0.09170   0.00000  Uiso   1.00
C118   C     0.79935   0.12279   0.40830   0.00000  Uiso   1.00
C119   C     0.86265   0.21227   0.04491   0.00000  Uiso   1.00
C120   C     0.80402   0.12106   0.45509   0.00000  Uiso   1.00
C121   C     0.83309   0.16876   0.02351   0.00000  Uiso   1.00
C122   C     0.83358   0.16458   0.47648   0.00000  Uiso   1.00
C123   C     0.80281   0.12922   0.04916   0.00000  Uiso   1.00
C124   C     0.81847   0.06845   0.25060   0.00000  Uiso   1.00
C125   C     0.86386   0.20412   0.45084   0.00000  Uiso   1.00
C126   C     0.88667   0.25427   0.01805   0.00000  Uiso   1.00
C127   C     0.78000   0.07907   0.48195   0.00000  Uiso   1.00
C128   C     0.98930   0.09974   0.17109   0.00000  Uiso   1.00
C129   C     0.67737   0.23360   0.32891   0.00000  Uiso   1.00
C130   C     0.88964   0.24822   0.47142   0.00000  Uiso   1.00
C131   C     0.77703   0.08511   0.02858   0.00000  Uiso   1.00
C132   C     0.85346   0.31914   0.25741   0.00000  Uiso   1.00
C133   C     0.81321   0.01419   0.24259   0.00000  Uiso   1.00
C134   C     0.83280   0.16430   0.33629   0.00000  Uiso   1.00
C135   C     0.83386   0.16904   0.16371   0.00000  Uiso   1.00
C136   C     0.80120   0.13249   0.09538   0.00000  Uiso   1.00
H137   H     0.77746   0.10234   0.11543   0.00000  Uiso   1.00
H138   H     0.98407   0.26344   0.34735   0.00000  Uiso   1.00
H139   H     0.72266   0.24944   0.32616   0.00000  Uiso   1.00
H140   H     0.67254   0.19739   0.34859   0.00000  Uiso   1.00
H141   H     0.88921   0.23100   0.38457   0.00000  Uiso   1.00
H142   H     0.90901   0.27996   0.45098   0.00000  Uiso   1.00
H143   H     0.75766   0.05337   0.04902   0.00000  Uiso   1.00
H144   H     0.67030   0.07769   0.23459   0.00000  Uiso   1.00
H145   H     0.68259   0.06989   0.15265   0.00000  Uiso   1.00
H146   H     0.99413   0.13594   0.15141   0.00000  Uiso   1.00
H147   H     0.94401   0.08389   0.17384   0.00000  Uiso   1.00
H148   H     0.99637   0.25564   0.26541   0.00000  Uiso   1.00
I149   I     0.93190   0.25617   0.12561   0.00000  Uiso   1.00
I150   I     0.73477   0.07716   0.37439   0.00000  Uiso   1.00
I151   I     0.90421   0.00062   0.03991   0.00000  Uiso   1.00
I152   I     0.76246   0.33271   0.46009   0.00000  Uiso   1.00
I153   I     0.90923   0.01121   0.30818   0.00000  Uiso   1.00
I154   I     0.75744   0.32213   0.19182   0.00000  Uiso   1.00
N155   N     0.98344   0.15265   0.23783   0.00000  Uiso   1.00
N156   N     0.68322   0.18068   0.26217   0.00000  Uiso   1.00
N157   N     0.67491   0.11051   0.21536   0.00000  Uiso   1.00
N158   N     0.99176   0.22282   0.28464   0.00000  Uiso   1.00
O159   O     0.79642   0.24619   0.25298   0.00000  Uiso   1.00
O160   O     0.87025   0.08714   0.24701   0.00000  Uiso   1.00
O161   O     0.89280   0.23721   0.24518   0.00000  Uiso   1.00
O162   O     0.77387   0.09613   0.25481   0.00000  Uiso   1.00
O163   O     0.78514   0.17117   0.31997   0.00000  Uiso   1.00
O164   O     0.88153   0.16216   0.18002   0.00000  Uiso   1.00
O165   O     0.88152   0.16219   0.31217   0.00000  Uiso   1.00
O166   O     0.78515   0.17115   0.18782   0.00000  Uiso   1.00
Zn167  Zn    0.76898   0.17266   0.25521   0.00000  Uiso   1.00
Zn168  Zn    0.89769   0.16067   0.24479   0.00000  Uiso   1.00
C169   C     0.18153   0.59822   0.24940   0.00000  Uiso   1.00
C170   C     0.19880   0.53418   0.40462   0.00000  Uiso   1.00
C171   C     0.16750   0.50481   0.11606   0.00000  Uiso   1.00
C172   C     0.16583   0.49519   0.38394   0.00000  Uiso   1.00
C173   C     0.20066   0.54388   0.09170   0.00000  Uiso   1.00
C174   C     0.13268   0.45612   0.40830   0.00000  Uiso   1.00
C175   C     0.19598   0.54560   0.04491   0.00000  Uiso   1.00
C176   C     0.13735   0.45440   0.45509   0.00000  Uiso   1.00
C177   C     0.16642   0.50209   0.02351   0.00000  Uiso   1.00
C178   C     0.16691   0.49791   0.47648   0.00000  Uiso   1.00
C179   C     0.13615   0.46255   0.04916   0.00000  Uiso   1.00
C180   C     0.15180   0.40178   0.25060   0.00000  Uiso   1.00
C181   C     0.19719   0.53745   0.45084   0.00000  Uiso   1.00
C182   C     0.22000   0.58760   0.01805   0.00000  Uiso   1.00
C183   C     0.11333   0.41240   0.48195   0.00000  Uiso   1.00
C184   C     0.32263   0.43307   0.17109   0.00000  Uiso   1.00
C185   C     0.01070   0.56693   0.32891   0.00000  Uiso   1.00
C186   C     0.22297   0.58155   0.47142   0.00000  Uiso   1.00
C187   C     0.11037   0.41845   0.02858   0.00000  Uiso   1.00
C188   C     0.18679   0.65248   0.25741   0.00000  Uiso   1.00
C189   C     0.14654   0.34753   0.24259   0.00000  Uiso   1.00
C190   C     0.16614   0.49763   0.33629   0.00000  Uiso   1.00
C191   C     0.16720   0.50237   0.16371   0.00000  Uiso   1.00
C192   C     0.13454   0.46582   0.09538   0.00000  Uiso   1.00
H193   H     0.11079   0.43567   0.11543   0.00000  Uiso   1.00
H194   H     0.31741   0.59677   0.34735   0.00000  Uiso   1.00
H195   H     0.05599   0.58278   0.32616   0.00000  Uiso   1.00
H196   H     0.00588   0.53072   0.34859   0.00000  Uiso   1.00
H197   H     0.22254   0.56433   0.38457   0.00000  Uiso   1.00
H198   H     0.24235   0.61330   0.45098   0.00000  Uiso   1.00
H199   H     0.09099   0.38670   0.04902   0.00000  Uiso   1.00
H200   H     0.00363   0.41103   0.23459   0.00000  Uiso   1.00
H201   H     0.01593   0.40323   0.15265   0.00000  Uiso   1.00
H202   H     0.32746   0.46927   0.15141   0.00000  Uiso   1.00
H203   H     0.27734   0.41722   0.17384   0.00000  Uiso   1.00
H204   H     0.32970   0.58897   0.26541   0.00000  Uiso   1.00
I205   I     0.26523   0.58951   0.12561   0.00000  Uiso   1.00
I206   I     0.06810   0.41049   0.37439   0.00000  Uiso   1.00
I207   I     0.23754   0.33395   0.03991   0.00000  Uiso   1.00
I208   I     0.09579   0.66604   0.46009   0.00000  Uiso   1.00
I209   I     0.24256   0.34454   0.30818   0.00000  Uiso   1.00
I210   I     0.09077   0.65546   0.19182   0.00000  Uiso   1.00
N211   N     0.31678   0.48598   0.23783   0.00000  Uiso   1.00
N212   N     0.01656   0.51402   0.26217   0.00000  Uiso   1.00
N213   N     0.00824   0.44385   0.21536   0.00000  Uiso   1.00
N214   N     0.32509   0.55615   0.28464   0.00000  Uiso   1.00
O215   O     0.12975   0.57952   0.25298   0.00000  Uiso   1.00
O216   O     0.20358   0.42048   0.24701   0.00000  Uiso   1.00
O217   O     0.22613   0.57054   0.24518   0.00000  Uiso   1.00
O218   O     0.10720   0.42946   0.25481   0.00000  Uiso   1.00
O219   O     0.11847   0.50450   0.31997   0.00000  Uiso   1.00
O220   O     0.21486   0.49550   0.18002   0.00000  Uiso   1.00
O221   O     0.21485   0.49552   0.31217   0.00000  Uiso   1.00
O222   O     0.11848   0.50448   0.18782   0.00000  Uiso   1.00
Zn223  Zn    0.10231   0.50600   0.25521   0.00000  Uiso   1.00
Zn224  Zn    0.23102   0.49400   0.24479   0.00000  Uiso   1.00
C225   C     0.51487   0.59822   0.24940   0.00000  Uiso   1.00
C226   C     0.53213   0.53418   0.40462   0.00000  Uiso   1.00
C227   C     0.50083   0.50481   0.11606   0.00000  Uiso   1.00
C228   C     0.49917   0.49519   0.38394   0.00000  Uiso   1.00
C229   C     0.53399   0.54388   0.09170   0.00000  Uiso   1.00
C230   C     0.46601   0.45612   0.40830   0.00000  Uiso   1.00
C231   C     0.52932   0.54560   0.04491   0.00000  Uiso   1.00
C232   C     0.47069   0.45440   0.45509   0.00000  Uiso   1.00
C233   C     0.49976   0.50209   0.02351   0.00000  Uiso   1.00
C234   C     0.50025   0.49791   0.47648   0.00000  Uiso   1.00
C235   C     0.46948   0.46255   0.04916   0.00000  Uiso   1.00
C236   C     0.48513   0.40178   0.25060   0.00000  Uiso   1.00
C237   C     0.53052   0.53745   0.45084   0.00000  Uiso   1.00
C238   C     0.55334   0.58760   0.01805   0.00000  Uiso   1.00
C239   C     0.44667   0.41240   0.48195   0.00000  Uiso   1.00
C240   C     0.65597   0.43307   0.17109   0.00000  Uiso   1.00
C241   C     0.34403   0.56693   0.32891   0.00000  Uiso   1.00
C242   C     0.55630   0.58155   0.47142   0.00000  Uiso   1.00
C243   C     0.44370   0.41845   0.02858   0.00000  Uiso   1.00
C244   C     0.52013   0.65248   0.25741   0.00000  Uiso   1.00
C245   C     0.47987   0.34753   0.24259   0.00000  Uiso   1.00
C246   C     0.49947   0.49763   0.33629   0.00000  Uiso   1.00
C247   C     0.50053   0.50237   0.16371   0.00000  Uiso   1.00
C248   C     0.46787   0.46582   0.09538   0.00000  Uiso   1.00
H249   H     0.44413   0.43567   0.11543   0.00000  Uiso   1.00
H250   H     0.65074   0.59677   0.34735   0.00000  Uiso   1.00
H251   H     0.38932   0.58278   0.32616   0.00000  Uiso   1.00
H252   H     0.33921   0.53072   0.34859   0.00000  Uiso   1.00
H253   H     0.55587   0.56433   0.38457   0.00000  Uiso   1.00
H254   H     0.57568   0.61330   0.45098   0.00000  Uiso   1.00
H255   H     0.42433   0.38670   0.04902   0.00000  Uiso   1.00
H256   H     0.33697   0.41103   0.23459   0.00000  Uiso   1.00
H257   H     0.34926   0.40323   0.15265   0.00000  Uiso   1.00
H258   H     0.66079   0.46927   0.15141   0.00000  Uiso   1.00
H259   H     0.61068   0.41722   0.17384   0.00000  Uiso   1.00
H260   H     0.66303   0.58897   0.26541   0.00000  Uiso   1.00
I261   I     0.59857   0.58951   0.12561   0.00000  Uiso   1.00
I262   I     0.40143   0.41049   0.37439   0.00000  Uiso   1.00
I263   I     0.57088   0.33395   0.03991   0.00000  Uiso   1.00
I264   I     0.42913   0.66604   0.46009   0.00000  Uiso   1.00
I265   I     0.57589   0.34454   0.30818   0.00000  Uiso   1.00
I266   I     0.42411   0.65546   0.19182   0.00000  Uiso   1.00
N267   N     0.65011   0.48598   0.23783   0.00000  Uiso   1.00
N268   N     0.34989   0.51402   0.26217   0.00000  Uiso   1.00
N269   N     0.34157   0.44385   0.21536   0.00000  Uiso   1.00
N270   N     0.65843   0.55615   0.28464   0.00000  Uiso   1.00
O271   O     0.46308   0.57952   0.25298   0.00000  Uiso   1.00
O272   O     0.53692   0.42048   0.24701   0.00000  Uiso   1.00
O273   O     0.55946   0.57054   0.24518   0.00000  Uiso   1.00
O274   O     0.44054   0.42946   0.25481   0.00000  Uiso   1.00
O275   O     0.45181   0.50450   0.31997   0.00000  Uiso   1.00
O276   O     0.54819   0.49550   0.18002   0.00000  Uiso   1.00
O277   O     0.54819   0.49552   0.31217   0.00000  Uiso   1.00
O278   O     0.45181   0.50448   0.18782   0.00000  Uiso   1.00
Zn279  Zn    0.43565   0.50600   0.25521   0.00000  Uiso   1.00
Zn280  Zn    0.56435   0.49400   0.24479   0.00000  Uiso   1.00
C281   C     0.84820   0.59822   0.24940   0.00000  Uiso   1.00
C282   C     0.86547   0.53418   0.40462   0.00000  Uiso   1.00
C283   C     0.83417   0.50481   0.11606   0.00000  Uiso   1.00
C284   C     0.83250   0.49519   0.38394   0.00000  Uiso   1.00
C285   C     0.86732   0.54388   0.09170   0.00000  Uiso   1.00
C286   C     0.79935   0.45612   0.40830   0.00000  Uiso   1.00
C287   C     0.86265   0.54560   0.04491   0.00000  Uiso   1.00
C288   C     0.80402   0.45440   0.45509   0.00000  Uiso   1.00
C289   C     0.83309   0.50209   0.02351   0.00000  Uiso   1.00
C290   C     0.83358   0.49791   0.47648   0.00000  Uiso   1.00
C291   C     0.80281   0.46255   0.04916   0.00000  Uiso   1.00
C292   C     0.81847   0.40178   0.25060   0.00000  Uiso   1.00
C293   C     0.86386   0.53745   0.45084   0.00000  Uiso   1.00
C294   C     0.88667   0.58760   0.01805   0.00000  Uiso   1.00
C295   C     0.78000   0.41240   0.48195   0.00000  Uiso   1.00
C296   C     0.98930   0.43307   0.17109   0.00000  Uiso   1.00
C297   C     0.67737   0.56693   0.32891   0.00000  Uiso   1.00
C298   C     0.88964   0.58155   0.47142   0.00000  Uiso   1.00
C299   C     0.77703   0.41845   0.02858   0.00000  Uiso   1.00
C300   C     0.85346   0.65248   0.25741   0.00000  Uiso   1.00
C301   C     0.81321   0.34753   0.24259   0.00000  Uiso   1.00
C302   C     0.83280   0.49763   0.33629   0.00000  Uiso   1.00
C303   C     0.83386   0.50237   0.16371   0.00000  Uiso   1.00
C304   C     0.80120   0.46582   0.09538   0.00000  Uiso   1.00
H305   H     0.77746   0.43567   0.11543   0.00000  Uiso   1.00
H306   H     0.98407   0.59677   0.34735   0.00000  Uiso   1.00
H307   H     0.72266   0.58278   0.32616   0.00000  Uiso   1.00
H308   H     0.67254   0.53072   0.34859   0.00000  Uiso   1.00
H309   H     0.88921   0.56433   0.38457   0.00000  Uiso   1.00
H310   H     0.90901   0.61330   0.45098   0.00000  Uiso   1.00
H311   H     0.75766   0.38670   0.04902   0.00000  Uiso   1.00
H312   H     0.67030   0.41103   0.23459   0.00000  Uiso   1.00
H313   H     0.68259   0.40323   0.15265   0.00000  Uiso   1.00
H314   H     0.99413   0.46927   0.15141   0.00000  Uiso   1.00
H315   H     0.94401   0.41722   0.17384   0.00000  Uiso   1.00
H316   H     0.99637   0.58897   0.26541   0.00000  Uiso   1.00
I317   I     0.93190   0.58951   0.12561   0.00000  Uiso   1.00
I318   I     0.73477   0.41049   0.37439   0.00000  Uiso   1.00
I319   I     0.90421   0.33395   0.03991   0.00000  Uiso   1.00
I320   I     0.76246   0.66604   0.46009   0.00000  Uiso   1.00
I321   I     0.90923   0.34454   0.30818   0.00000  Uiso   1.00
I322   I     0.75744   0.65546   0.19182   0.00000  Uiso   1.00
N323   N     0.98344   0.48598   0.23783   0.00000  Uiso   1.00
N324   N     0.68322   0.51402   0.26217   0.00000  Uiso   1.00
N325   N     0.67491   0.44385   0.21536   0.00000  Uiso   1.00
N326   N     0.99176   0.55615   0.28464   0.00000  Uiso   1.00
O327   O     0.79642   0.57952   0.25298   0.00000  Uiso   1.00
O328   O     0.87025   0.42048   0.24701   0.00000  Uiso   1.00
O329   O     0.89280   0.57054   0.24518   0.00000  Uiso   1.00
O330   O     0.77387   0.42946   0.25481   0.00000  Uiso   1.00
O331   O     0.78514   0.50450   0.31997   0.00000  Uiso   1.00
O332   O     0.88153   0.49550   0.18002   0.00000  Uiso   1.00
O333   O     0.88152   0.49552   0.31217   0.00000  Uiso   1.00
O334   O     0.78515   0.50448   0.18782   0.00000  Uiso   1.00
Zn335  Zn    0.76898   0.50600   0.25521   0.00000  Uiso   1.00
Zn336  Zn    0.89769   0.49400   0.24479   0.00000  Uiso   1.00
C337   C     0.18153   0.93155   0.24940   0.00000  Uiso   1.00
C338   C     0.19880   0.86751   0.40462   0.00000  Uiso   1.00
C339   C     0.16750   0.83815   0.11606   0.00000  Uiso   1.00
C340   C     0.16583   0.82852   0.38394   0.00000  Uiso   1.00
C341   C     0.20066   0.87721   0.09170   0.00000  Uiso   1.00
C342   C     0.13268   0.78945   0.40830   0.00000  Uiso   1.00
C343   C     0.19598   0.87894   0.04491   0.00000  Uiso   1.00
C344   C     0.13735   0.78773   0.45509   0.00000  Uiso   1.00
C345   C     0.16642   0.83542   0.02351   0.00000  Uiso   1.00
C346   C     0.16691   0.83124   0.47648   0.00000  Uiso   1.00
C347   C     0.13615   0.79588   0.04916   0.00000  Uiso   1.00
C348   C     0.15180   0.73511   0.25060   0.00000  Uiso   1.00
C349   C     0.19719   0.87078   0.45084   0.00000  Uiso   1.00
C350   C     0.22000   0.92093   0.01805   0.00000  Uiso   1.00
C351   C     0.11333   0.74573   0.48195   0.00000  Uiso   1.00
C352   C     0.32263   0.76640   0.17109   0.00000  Uiso   1.00
C353   C     0.01070   0.90026   0.32891   0.00000  Uiso   1.00
C354   C     0.22297   0.91488   0.47142   0.00000  Uiso   1.00
C355   C     0.11037   0.75178   0.02858   0.00000  Uiso   1.00
C356   C     0.18679   0.98581   0.25741   0.00000  Uiso   1.00
C357   C     0.14654   0.68086   0.24259   0.00000  Uiso   1.00
C358   C     0.16614   0.83096   0.33629   0.00000  Uiso   1.00
C359   C     0.16720   0.83570   0.16371   0.00000  Uiso   1.00
C360   C     0.13454   0.79915   0.09538   0.00000  Uiso   1.00
H361   H     0.11079   0.76900   0.11543   0.00000  Uiso   1.00
H362   H     0.31741   0.93011   0.34735   0.00000  Uiso   1.00
H363   H     0.05599   0.91611   0.32616   0.00000  Uiso   1.00
H364   H     0.00588   0.86406   0.34859   0.00000  Uiso   1.00
H365   H     0.22254   0.89766   0.38457   0.00000  Uiso   1.00
H366   H     0.24235   0.94663   0.45098   0.00000  Uiso   1.00
H367   H     0.09099   0.72003   0.04902   0.00000  Uiso   1.00
H368   H     0.00363   0.74436   0.23459   0.00000  Uiso   1.00
H369   H     0.01593   0.73656   0.15265   0.00000  Uiso   1.00
H370   H     0.32746   0.80261   0.15141   0.00000  Uiso   1.00
H371   H     0.27734   0.75056   0.17384   0.00000  Uiso   1.00
H372   H     0.32970   0.92231   0.26541   0.00000  Uiso   1.00
I373   I     0.26523   0.92284   0.12561   0.00000  Uiso   1.00
I374   I     0.06810   0.74382   0.37439   0.00000  Uiso   1.00
I375   I     0.23754   0.66729   0.03991   0.00000  Uiso   1.00
I376   I     0.09579   0.99938   0.46009   0.00000  Uiso   1.00
I377   I     0.24256   0.67787   0.30818   0.00000  Uiso   1.00
I378   I     0.09077   0.98879   0.19182   0.00000  Uiso   1.00
N379   N     0.31678   0.81932   0.23783   0.00000  Uiso   1.00
N380   N     0.01656   0.84735   0.26217   0.00000  Uiso   1.00
N381   N     0.00824   0.77718   0.21536   0.00000  Uiso   1.00
N382   N     0.32509   0.88949   0.28464   0.00000  Uiso   1.00
O383   O     0.12975   0.91286   0.25298   0.00000  Uiso   1.00
O384   O     0.20358   0.75381   0.24701   0.00000  Uiso   1.00
O385   O     0.22613   0.90387   0.24518   0.00000  Uiso   1.00
O386   O     0.10720   0.76279   0.25481   0.00000  Uiso   1.00
O387   O     0.11847   0.83784   0.31997   0.00000  Uiso   1.00
O388   O     0.21486   0.82883   0.18002   0.00000  Uiso   1.00
O389   O     0.21485   0.82885   0.31217   0.00000  Uiso   1.00
O390   O     0.11848   0.83781   0.18782   0.00000  Uiso   1.00
Zn391  Zn    0.10231   0.83933   0.25521   0.00000  Uiso   1.00
Zn392  Zn    0.23102   0.82734   0.24479   0.00000  Uiso   1.00
C393   C     0.51487   0.93155   0.24940   0.00000  Uiso   1.00
C394   C     0.53213   0.86751   0.40462   0.00000  Uiso   1.00
C395   C     0.50083   0.83815   0.11606   0.00000  Uiso   1.00
C396   C     0.49917   0.82852   0.38394   0.00000  Uiso   1.00
C397   C     0.53399   0.87721   0.09170   0.00000  Uiso   1.00
C398   C     0.46601   0.78945   0.40830   0.00000  Uiso   1.00
C399   C     0.52932   0.87894   0.04491   0.00000  Uiso   1.00
C400   C     0.47069   0.78773   0.45509   0.00000  Uiso   1.00
C401   C     0.49976   0.83542   0.02351   0.00000  Uiso   1.00
C402   C     0.50025   0.83124   0.47648   0.00000  Uiso   1.00
C403   C     0.46948   0.79588   0.04916   0.00000  Uiso   1.00
C404   C     0.48513   0.73511   0.25060   0.00000  Uiso   1.00
C405   C     0.53052   0.87078   0.45084   0.00000  Uiso   1.00
C406   C     0.55334   0.92093   0.01805   0.00000  Uiso   1.00
C407   C     0.44667   0.74573   0.48195   0.00000  Uiso   1.00
C408   C     0.65597   0.76640   0.17109   0.00000  Uiso   1.00
C409   C     0.34403   0.90026   0.32891   0.00000  Uiso   1.00
C410   C     0.55630   0.91488   0.47142   0.00000  Uiso   1.00
C411   C     0.44370   0.75178   0.02858   0.00000  Uiso   1.00
C412   C     0.52013   0.98581   0.25741   0.00000  Uiso   1.00
C413   C     0.47987   0.68086   0.24259   0.00000  Uiso   1.00
C414   C     0.49947   0.83096   0.33629   0.00000  Uiso   1.00
C415   C     0.50053   0.83570   0.16371   0.00000  Uiso   1.00
C416   C     0.46787   0.79915   0.09538   0.00000  Uiso   1.00
H417   H     0.44413   0.76900   0.11543   0.00000  Uiso   1.00
H418   H     0.65074   0.93011   0.34735   0.00000  Uiso   1.00
H419   H     0.38932   0.91611   0.32616   0.00000  Uiso   1.00
H420   H     0.33921   0.86406   0.34859   0.00000  Uiso   1.00
H421   H     0.55587   0.89766   0.38457   0.00000  Uiso   1.00
H422   H     0.57568   0.94663   0.45098   0.00000  Uiso   1.00
H423   H     0.42433   0.72003   0.04902   0.00000  Uiso   1.00
H424   H     0.33697   0.74436   0.23459   0.00000  Uiso   1.00
H425   H     0.34926   0.73656   0.15265   0.00000  Uiso   1.00
H426   H     0.66079   0.80261   0.15141   0.00000  Uiso   1.00
H427   H     0.61068   0.75056   0.17384   0.00000  Uiso   1.00
H428   H     0.66303   0.92231   0.26541   0.00000  Uiso   1.00
I429   I     0.59857   0.92284   0.12561   0.00000  Uiso   1.00
I430   I     0.40143   0.74382   0.37439   0.00000  Uiso   1.00
I431   I     0.57088   0.66729   0.03991   0.00000  Uiso   1.00
I432   I     0.42913   0.99938   0.46009   0.00000  Uiso   1.00
I433   I     0.57589   0.67787   0.30818   0.00000  Uiso   1.00
I434   I     0.42411   0.98879   0.19182   0.00000  Uiso   1.00
N435   N     0.65011   0.81932   0.23783   0.00000  Uiso   1.00
N436   N     0.34989   0.84735   0.26217   0.00000  Uiso   1.00
N437   N     0.34157   0.77718   0.21536   0.00000  Uiso   1.00
N438   N     0.65843   0.88949   0.28464   0.00000  Uiso   1.00
O439   O     0.46308   0.91286   0.25298   0.00000  Uiso   1.00
O440   O     0.53692   0.75381   0.24701   0.00000  Uiso   1.00
O441   O     0.55946   0.90387   0.24518   0.00000  Uiso   1.00
O442   O     0.44054   0.76279   0.25481   0.00000  Uiso   1.00
O443   O     0.45181   0.83784   0.31997   0.00000  Uiso   1.00
O444   O     0.54819   0.82883   0.18002   0.00000  Uiso   1.00
O445   O     0.54819   0.82885   0.31217   0.00000  Uiso   1.00
O446   O     0.45181   0.83781   0.18782   0.00000  Uiso   1.00
Zn447  Zn    0.43565   0.83933   0.25521   0.00000  Uiso   1.00
Zn448  Zn    0.56435   0.82734   0.24479   0.00000  Uiso   1.00
C449   C     0.84820   0.93155   0.24940   0.00000  Uiso   1.00
C450   C     0.86547   0.86751   0.40462   0.00000  Uiso   1.00
C451   C     0.83417   0.83815   0.11606   0.00000  Uiso   1.00
C452   C     0.83250   0.82852   0.38394   0.00000  Uiso   1.00
C453   C     0.86732   0.87721   0.09170   0.00000  Uiso   1.00
C454   C     0.79935   0.78945   0.40830   0.00000  Uiso   1.00
C455   C     0.86265   0.87894   0.04491   0.00000  Uiso   1.00
C456   C     0.80402   0.78773   0.45509   0.00000  Uiso   1.00
C457   C     0.83309   0.83542   0.02351   0.00000  Uiso   1.00
C458   C     0.83358   0.83124   0.47648   0.00000  Uiso   1.00
C459   C     0.80281   0.79588   0.04916   0.00000  Uiso   1.00
C460   C     0.81847   0.73511   0.25060   0.00000  Uiso   1.00
C461   C     0.86386   0.87078   0.45084   0.00000  Uiso   1.00
C462   C     0.88667   0.92093   0.01805   0.00000  Uiso   1.00
C463   C     0.78000   0.74573   0.48195   0.00000  Uiso   1.00
C464   C     0.98930   0.76640   0.17109   0.00000  Uiso   1.00
C465   C     0.67737   0.90026   0.32891   0.00000  Uiso   1.00
C466   C     0.88964   0.91488   0.47142   0.00000  Uiso   1.00
C467   C     0.77703   0.75178   0.02858   0.00000  Uiso   1.00
C468   C     0.85346   0.98581   0.25741   0.00000  Uiso   1.00
C469   C     0.81321   0.68086   0.24259   0.00000  Uiso   1.00
C470   C     0.83280   0.83096   0.33629   0.00000  Uiso   1.00
C471   C     0.83386   0.83570   0.16371   0.00000  Uiso   1.00
C472   C     0.80120   0.79915   0.09538   0.00000  Uiso   1.00
H473   H     0.77746   0.76900   0.11543   0.00000  Uiso   1.00
H474   H     0.98407   0.93011   0.34735   0.00000  Uiso   1.00
H475   H     0.72266   0.91611   0.32616   0.00000  Uiso   1.00
H476   H     0.67254   0.86406   0.34859   0.00000  Uiso   1.00
H477   H     0.88921   0.89766   0.38457   0.00000  Uiso   1.00
H478   H     0.90901   0.94663   0.45098   0.00000  Uiso   1.00
H479   H     0.75766   0.72003   0.04902   0.00000  Uiso   1.00
H480   H     0.67030   0.74436   0.23459   0.00000  Uiso   1.00
H481   H     0.68259   0.73656   0.15265   0.00000  Uiso   1.00
H482   H     0.99413   0.80261   0.15141   0.00000  Uiso   1.00
H483   H     0.94401   0.75056   0.17384   0.00000  Uiso   1.00
H484   H     0.99637   0.92231   0.26541   0.00000  Uiso   1.00
I485   I     0.93190   0.92284   0.12561   0.00000  Uiso   1.00
I486   I     0.73477   0.74382   0.37439   0.00000  Uiso   1.00
I487   I     0.90421   0.66729   0.03991   0.00000  Uiso   1.00
I488   I     0.76246   0.99938   0.46009   0.00000  Uiso   1.00
I489   I     0.90923   0.67787   0.30818   0.00000  Uiso   1.00
I490   I     0.75744   0.98879   0.19182   0.00000  Uiso   1.00
N491   N     0.98344   0.81932   0.23783   0.00000  Uiso   1.00
N492   N     0.68322   0.84735   0.26217   0.00000  Uiso   1.00
N493   N     0.67491   0.77718   0.21536   0.00000  Uiso   1.00
N494   N     0.99176   0.88949   0.28464   0.00000  Uiso   1.00
O495   O     0.79642   0.91286   0.25298   0.00000  Uiso   1.00
O496   O     0.87025   0.75381   0.24701   0.00000  Uiso   1.00
O497   O     0.89280   0.90387   0.24518   0.00000  Uiso   1.00
O498   O     0.77387   0.76279   0.25481   0.00000  Uiso   1.00
O499   O     0.78514   0.83784   0.31997   0.00000  Uiso   1.00
O500   O     0.88153   0.82883   0.18002   0.00000  Uiso   1.00
O501   O     0.88152   0.82885   0.31217   0.00000  Uiso   1.00
O502   O     0.78515   0.83781   0.18782   0.00000  Uiso   1.00
Zn503  Zn    0.76898   0.83933   0.25521   0.00000  Uiso   1.00
Zn504  Zn    0.89769   0.82734   0.24479   0.00000  Uiso   1.00
C505   C     0.18153   0.26489   0.74940   0.00000  Uiso   1.00
C506   C     0.19880   0.20085   0.90462   0.00000  Uiso   1.00
C507   C     0.16750   0.17148   0.61606   0.00000  Uiso   1.00
C508   C     0.16583   0.16185   0.88394   0.00000  Uiso   1.00
C509   C     0.20066   0.21054   0.59170   0.00000  Uiso   1.00
C510   C     0.13268   0.12279   0.90830   0.00000  Uiso   1.00
C511   C     0.19598   0.21227   0.54491   0.00000  Uiso   1.00
C512   C     0.13735   0.12106   0.95509   0.00000  Uiso   1.00
C513   C     0.16642   0.16876   0.52351   0.00000  Uiso   1.00
C514   C     0.16691   0.16458   0.97648   0.00000  Uiso   1.00
C515   C     0.13615   0.12922   0.54916   0.00000  Uiso   1.00
C516   C     0.15180   0.06845   0.75060   0.00000  Uiso   1.00
C517   C     0.19719   0.20412   0.95084   0.00000  Uiso   1.00
C518   C     0.22000   0.25427   0.51805   0.00000  Uiso   1.00
C519   C     0.11333   0.07907   0.98195   0.00000  Uiso   1.00
C520   C     0.32263   0.09974   0.67109   0.00000  Uiso   1.00
C521   C     0.01070   0.23360   0.82891   0.00000  Uiso   1.00
C522   C     0.22297   0.24822   0.97142   0.00000  Uiso   1.00
C523   C     0.11037   0.08511   0.52858   0.00000  Uiso   1.00
C524   C     0.18679   0.31914   0.75741   0.00000  Uiso   1.00
C525   C     0.14654   0.01419   0.74259   0.00000  Uiso   1.00
C526   C     0.16614   0.16430   0.83629   0.00000  Uiso   1.00
C527   C     0.16720   0.16904   0.66371   0.00000  Uiso   1.00
C528   C     0.13454   0.13249   0.59538   0.00000  Uiso   1.00
H529   H     0.11079   0.10234   0.61543   0.00000  Uiso   1.00
H530   H     0.31741   0.26344   0.84735   0.00000  Uiso   1.00
H531   H     0.05599   0.24944   0.82616   0.00000  Uiso   1.00
H532   H     0.00588   0.19739   0.84859   0.00000  Uiso   1.00
H533   H     0.22254   0.23100   0.88457   0.00000  Uiso   1.00
H534   H     0.24235   0.27996   0.95098   0.00000  Uiso   1.00
H535   H     0.09099   0.05337   0.54902   0.00000  Uiso   1.00
H536   H     0.00363   0.07769   0.73459   0.00000  Uiso   1.00
H537   H     0.01593   0.06989   0.65265   0.00000  Uiso   1.00
H538   H     0.32746   0.13594   0.65141   0.00000  Uiso   1.00
H539   H     0.27734   0.08389   0.67384   0.00000  Uiso   1.00
H540   H     0.32970   0.25564   0.76541   0.00000  Uiso   1.00
I541   I     0.26523   0.25617   0.62561   0.00000  Uiso   1.00
I542   I     0.06810   0.07716   0.87439   0.00000  Uiso   1.00
I543   I     0.23754   0.00062   0.53991   0.00000  Uiso   1.00
I544   I     0.09579   0.33271   0.96009   0.00000  Uiso   1.00
I545   I     0.24256   0.01121   0.80818   0.00000  Uiso   1.00
I546   I     0.09077   0.32213   0.69182   0.00000  Uiso   1.00
N547   N     0.31678   0.15265   0.73783   0.00000  Uiso   1.00
N548   N     0.01656   0.18068   0.76217   0.00000  Uiso   1.00
N549   N     0.00824   0.11051   0.71536   0.00000  Uiso   1.00
N550   N     0.32509   0.22282   0.78464   0.00000  Uiso   1.00
O551   O     0.12975   0.24619   0.75298   0.00000  Uiso   1.00
O552   O     0.20358   0.08714   0.74701   0.00000  Uiso   1.00
O553   O     0.22613   0.23721   0.74518   0.00000  Uiso   1.00
O554   O     0.10720   0.09613   0.75481   0.00000  Uiso   1.00
O555   O     0.11847   0.17117   0.81997   0.00000  Uiso   1.00
O556   O     0.21486   0.16216   0.68002   0.00000  Uiso   1.00
O557   O     0.21485   0.16219   0.81217   0.00000  Uiso   1.00
O558   O     0.11848   0.17115   0.68782   0.00000  Uiso   1.00
Zn559  Zn    0.10231   0.17266   0.75521   0.00000  Uiso   1.00
Zn560  Zn    0.23102   0.16067   0.74479   0.00000  Uiso   1.00
C561   C     0.51487   0.26489   0.74940   0.00000  Uiso   1.00
C562   C     0.53213   0.20085   0.90462   0.00000  Uiso   1.00
C563   C     0.50083   0.17148   0.61606   0.00000  Uiso   1.00
C564   C     0.49917   0.16185   0.88394   0.00000  Uiso   1.00
C565   C     0.53399   0.21054   0.59170   0.00000  Uiso   1.00
C566   C     0.46601   0.12279   0.90830   0.00000  Uiso   1.00
C567   C     0.52932   0.21227   0.54491   0.00000  Uiso   1.00
C568   C     0.47069   0.12106   0.95509   0.00000  Uiso   1.00
C569   C     0.49976   0.16876   0.52351   0.00000  Uiso   1.00
C570   C     0.50025   0.16458   0.97648   0.00000  Uiso   1.00
C571   C     0.46948   0.12922   0.54916   0.00000  Uiso   1.00
C572   C     0.48513   0.06845   0.75060   0.00000  Uiso   1.00
C573   C     0.53052   0.20412   0.95084   0.00000  Uiso   1.00
C574   C     0.55334   0.25427   0.51805   0.00000  Uiso   1.00
C575   C     0.44667   0.07907   0.98195   0.00000  Uiso   1.00
C576   C     0.65597   0.09974   0.67109   0.00000  Uiso   1.00
C577   C     0.34403   0.23360   0.82891   0.00000  Uiso   1.00
C578   C     0.55630   0.24822   0.97142   0.00000  Uiso   1.00
C579   C     0.44370   0.08511   0.52858   0.00000  Uiso   1.00
C580   C     0.52013   0.31914   0.75741   0.00000  Uiso   1.00
C581   C     0.47987   0.01419   0.74259   0.00000  Uiso   1.00
C582   C     0.49947   0.16430   0.83629   0.00000  Uiso   1.00
C583   C     0.50053   0.16904   0.66371   0.00000  Uiso   1.00
C584   C     0.46787   0.13249   0.59538   0.00000  Uiso   1.00
H585   H     0.44413   0.10234   0.61543   0.00000  Uiso   1.00
H586   H     0.65074   0.26344   0.84735   0.00000  Uiso   1.00
H587   H     0.38932   0.24944   0.82616   0.00000  Uiso   1.00
H588   H     0.33921   0.19739   0.84859   0.00000  Uiso   1.00
H589   H     0.55587   0.23100   0.88457   0.00000  Uiso   1.00
H590   H     0.57568   0.27996   0.95098   0.00000  Uiso   1.00
H591   H     0.42433   0.05337   0.54902   0.00000  Uiso   1.00
H592   H     0.33697   0.07769   0.73459   0.00000  Uiso   1.00
H593   H     0.34926   0.06989   0.65265   0.00000  Uiso   1.00
H594   H     0.66079   0.13594   0.65141   0.00000  Uiso   1.00
H595   H     0.61068   0.08389   0.67384   0.00000  Uiso   1.00
H596   H     0.66303   0.25564   0.76541   0.00000  Uiso   1.00
I597   I     0.59857   0.25617   0.62561   0.00000  Uiso   1.00
I598   I     0.40143   0.07716   0.87439   0.00000  Uiso   1.00
I599   I     0.57088   0.00062   0.53991   0.00000  Uiso   1.00
I600   I     0.42913   0.33271   0.96009   0.00000  Uiso   1.00
I601   I     0.57589   0.01121   0.80818   0.00000  Uiso   1.00
I602   I     0.42411   0.32213   0.69182   0.00000  Uiso   1.00
N603   N     0.65011   0.15265   0.73783   0.00000  Uiso   1.00
N604   N     0.34989   0.18068   0.76217   0.00000  Uiso   1.00
N605   N     0.34157   0.11051   0.71536   0.00000  Uiso   1.00
N606   N     0.65843   0.22282   0.78464   0.00000  Uiso   1.00
O607   O     0.46308   0.24619   0.75298   0.00000  Uiso   1.00
O608   O     0.53692   0.08714   0.74701   0.00000  Uiso   1.00
O609   O     0.55946   0.23721   0.74518   0.00000  Uiso   1.00
O610   O     0.44054   0.09613   0.75481   0.00000  Uiso   1.00
O611   O     0.45181   0.17117   0.81997   0.00000  Uiso   1.00
O612   O     0.54819   0.16216   0.68002   0.00000  Uiso   1.00
O613   O     0.54819   0.16219   0.81217   0.00000  Uiso   1.00
O614   O     0.45181   0.17115   0.68782   0.00000  Uiso   1.00
Zn615  Zn    0.43565   0.17266   0.75521   0.00000  Uiso   1.00
Zn616  Zn    0.56435   0.16067   0.74479   0.00000  Uiso   1.00
C617   C     0.84820   0.26489   0.74940   0.00000  Uiso   1.00
C618   C     0.86547   0.20085   0.90462   0.00000  Uiso   1.00
C619   C     0.83417   0.17148   0.61606   0.00000  Uiso   1.00
C620   C     0.83250   0.16185   0.88394   0.00000  Uiso   1.00
C621   C     0.86732   0.21054   0.59170   0.00000  Uiso   1.00
C622   C     0.79935   0.12279   0.90830   0.00000  Uiso   1.00
C623   C     0.86265   0.21227   0.54491   0.00000  Uiso   1.00
C624   C     0.80402   0.12106   0.95509   0.00000  Uiso   1.00
C625   C     0.83309   0.16876   0.52351   0.00000  Uiso   1.00
C626   C     0.83358   0.16458   0.97648   0.00000  Uiso   1.00
C627   C     0.80281   0.12922   0.54916   0.00000  Uiso   1.00
C628   C     0.81847   0.06845   0.75060   0.00000  Uiso   1.00
C629   C     0.86386   0.20412   0.95084   0.00000  Uiso   1.00
C630   C     0.88667   0.25427   0.51805   0.00000  Uiso   1.00
C631   C     0.78000   0.07907   0.98195   0.00000  Uiso   1.00
C632   C     0.98930   0.09974   0.67109   0.00000  Uiso   1.00
C633   C     0.67737   0.23360   0.82891   0.00000  Uiso   1.00
C634   C     0.88964   0.24822   0.97142   0.00000  Uiso   1.00
C635   C     0.77703   0.08511   0.52858   0.00000  Uiso   1.00
C636   C     0.85346   0.31914   0.75741   0.00000  Uiso   1.00
C637   C     0.81321   0.01419   0.74259   0.00000  Uiso   1.00
C638   C     0.83280   0.16430   0.83629   0.00000  Uiso   1.00
C639   C     0.83386   0.16904   0.66371   0.00000  Uiso   1.00
C640   C     0.80120   0.13249   0.59538   0.00000  Uiso   1.00
H641   H     0.77746   0.10234   0.61543   0.00000  Uiso   1.00
H642   H     0.98407   0.26344   0.84735   0.00000  Uiso   1.00
H643   H     0.72266   0.24944   0.82616   0.00000  Uiso   1.00
H644   H     0.67254   0.19739   0.84859   0.00000  Uiso   1.00
H645   H     0.88921   0.23100   0.88457   0.00000  Uiso   1.00
H646   H     0.90901   0.27996   0.95098   0.00000  Uiso   1.00
H647   H     0.75766   0.05337   0.54902   0.00000  Uiso   1.00
H648   H     0.67030   0.07769   0.73459   0.00000  Uiso   1.00
H649   H     0.68259   0.06989   0.65265   0.00000  Uiso   1.00
H650   H     0.99413   0.13594   0.65141   0.00000  Uiso   1.00
H651   H     0.94401   0.08389   0.67384   0.00000  Uiso   1.00
H652   H     0.99637   0.25564   0.76541   0.00000  Uiso   1.00
I653   I     0.93190   0.25617   0.62561   0.00000  Uiso   1.00
I654   I     0.73477   0.07716   0.87439   0.00000  Uiso   1.00
I655   I     0.90421   0.00062   0.53991   0.00000  Uiso   1.00
I656   I     0.76246   0.33271   0.96009   0.00000  Uiso   1.00
I657   I     0.90923   0.01121   0.80818   0.00000  Uiso   1.00
I658   I     0.75744   0.32213   0.69182   0.00000  Uiso   1.00
N659   N     0.98344   0.15265   0.73783   0.00000  Uiso   1.00
N660   N     0.68322   0.18068   0.76217   0.00000  Uiso   1.00
N661   N     0.67491   0.11051   0.71536   0.00000  Uiso   1.00
N662   N     0.99176   0.22282   0.78464   0.00000  Uiso   1.00
O663   O     0.79642   0.24619   0.75298   0.00000  Uiso   1.00
O664   O     0.87025   0.08714   0.74701   0.00000  Uiso   1.00
O665   O     0.89280   0.23721   0.74518   0.00000  Uiso   1.00
O666   O     0.77387   0.09613   0.75481   0.00000  Uiso   1.00
O667   O     0.78514   0.17117   0.81997   0.00000  Uiso   1.00
O668   O     0.88153   0.16216   0.68002   0.00000  Uiso   1.00
O669   O     0.88152   0.16219   0.81217   0.00000  Uiso   1.00
O670   O     0.78515   0.17115   0.68782   0.00000  Uiso   1.00
Zn671  Zn    0.76898   0.17266   0.75521   0.00000  Uiso   1.00
Zn672  Zn    0.89769   0.16067   0.74479   0.00000  Uiso   1.00
C673   C     0.18153   0.59822   0.74940   0.00000  Uiso   1.00
C674   C     0.19880   0.53418   0.90462   0.00000  Uiso   1.00
C675   C     0.16750   0.50481   0.61606   0.00000  Uiso   1.00
C676   C     0.16583   0.49519   0.88394   0.00000  Uiso   1.00
C677   C     0.20066   0.54388   0.59170   0.00000  Uiso   1.00
C678   C     0.13268   0.45612   0.90830   0.00000  Uiso   1.00
C679   C     0.19598   0.54560   0.54491   0.00000  Uiso   1.00
C680   C     0.13735   0.45440   0.95509   0.00000  Uiso   1.00
C681   C     0.16642   0.50209   0.52351   0.00000  Uiso   1.00
C682   C     0.16691   0.49791   0.97648   0.00000  Uiso   1.00
C683   C     0.13615   0.46255   0.54916   0.00000  Uiso   1.00
C684   C     0.15180   0.40178   0.75060   0.00000  Uiso   1.00
C685   C     0.19719   0.53745   0.95084   0.00000  Uiso   1.00
C686   C     0.22000   0.58760   0.51805   0.00000  Uiso   1.00
C687   C     0.11333   0.41240   0.98195   0.00000  Uiso   1.00
C688   C     0.32263   0.43307   0.67109   0.00000  Uiso   1.00
C689   C     0.01070   0.56693   0.82891   0.00000  Uiso   1.00
C690   C     0.22297   0.58155   0.97142   0.00000  Uiso   1.00
C691   C     0.11037   0.41845   0.52858   0.00000  Uiso   1.00
C692   C     0.18679   0.65248   0.75741   0.00000  Uiso   1.00
C693   C     0.14654   0.34753   0.74259   0.00000  Uiso   1.00
C694   C     0.16614   0.49763   0.83629   0.00000  Uiso   1.00
C695   C     0.16720   0.50237   0.66371   0.00000  Uiso   1.00
C696   C     0.13454   0.46582   0.59538   0.00000  Uiso   1.00
H697   H     0.11079   0.43567   0.61543   0.00000  Uiso   1.00
H698   H     0.31741   0.59677   0.84735   0.00000  Uiso   1.00
H699   H     0.05599   0.58278   0.82616   0.00000  Uiso   1.00
H700   H     0.00588   0.53072   0.84859   0.00000  Uiso   1.00
H701   H     0.22254   0.56433   0.88457   0.00000  Uiso   1.00
H702   H     0.24235   0.61330   0.95098   0.00000  Uiso   1.00
H703   H     0.09099   0.38670   0.54902   0.00000  Uiso   1.00
H704   H     0.00363   0.41103   0.73459   0.00000  Uiso   1.00
H705   H     0.01593   0.40323   0.65265   0.00000  Uiso   1.00
H706   H     0.32746   0.46927   0.65141   0.00000  Uiso   1.00
H707   H     0.27734   0.41722   0.67384   0.00000  Uiso   1.00
H708   H     0.32970   0.58897   0.76541   0.00000  Uiso   1.00
I709   I     0.26523   0.58951   0.62561   0.00000  Uiso   1.00
I710   I     0.06810   0.41049   0.87439   0.00000  Uiso   1.00
I711   I     0.23754   0.33395   0.53991   0.00000  Uiso   1.00
I712   I     0.09579   0.66604   0.96009   0.00000  Uiso   1.00
I713   I     0.24256   0.34454   0.80818   0.00000  Uiso   1.00
I714   I     0.09077   0.65546   0.69182   0.00000  Uiso   1.00
N715   N     0.31678   0.48598   0.73783   0.00000  Uiso   1.00
N716   N     0.01656   0.51402   0.76217   0.00000  Uiso   1.00
N717   N     0.00824   0.44385   0.71536   0.00000  Uiso   1.00
N718   N     0.32509   0.55615   0.78464   0.00000  Uiso   1.00
O719   O     0.12975   0.57952   0.75298   0.00000  Uiso   1.00
O720   O     0.20358   0.42048   0.74701   0.00000  Uiso   1.00
O721   O     0.22613   0.57054   0.74518   0.00000  Uiso   1.00
O722   O     0.10720   0.42946   0.75481   0.00000  Uiso   1.00
O723   O     0.11847   0.50450   0.81997   0.00000  Uiso   1.00
O724   O     0.21486   0.49550   0.68002   0.00000  Uiso   1.00
O725   O     0.21485   0.49552   0.81217   0.00000  Uiso   1.00
O726   O     0.11848   0.50448   0.68782   0.00000  Uiso   1.00
Zn727  Zn    0.10231   0.50600   0.75521   0.00000  Uiso   1.00
Zn728  Zn    0.23102   0.49400   0.74479   0.00000  Uiso   1.00
C729   C     0.51487   0.59822   0.74940   0.00000  Uiso   1.00
C730   C     0.53213   0.53418   0.90462   0.00000  Uiso   1.00
C731   C     0.50083   0.50481   0.61606   0.00000  Uiso   1.00
C732   C     0.49917   0.49519   0.88394   0.00000  Uiso   1.00
C733   C     0.53399   0.54388   0.59170   0.00000  Uiso   1.00
C734   C     0.46601   0.45612   0.90830   0.00000  Uiso   1.00
C735   C     0.52932   0.54560   0.54491   0.00000  Uiso   1.00
C736   C     0.47069   0.45440   0.95509   0.00000  Uiso   1.00
C737   C     0.49976   0.50209   0.52351   0.00000  Uiso   1.00
C738   C     0.50025   0.49791   0.97648   0.00000  Uiso   1.00
C739   C     0.46948   0.46255   0.54916   0.00000  Uiso   1.00
C740   C     0.48513   0.40178   0.75060   0.00000  Uiso   1.00
C741   C     0.53052   0.53745   0.95084   0.00000  Uiso   1.00
C742   C     0.55334   0.58760   0.51805   0.00000  Uiso   1.00
C743   C     0.44667   0.41240   0.98195   0.00000  Uiso   1.00
C744   C     0.65597   0.43307   0.67109   0.00000  Uiso   1.00
C745   C     0.34403   0.56693   0.82891   0.00000  Uiso   1.00
C746   C     0.55630   0.58155   0.97142   0.00000  Uiso   1.00
C747   C     0.44370   0.41845   0.52858   0.00000  Uiso   1.00
C748   C     0.52013   0.65248   0.75741   0.00000  Uiso   1.00
C749   C     0.47987   0.34753   0.74259   0.00000  Uiso   1.00
C750   C     0.49947   0.49763   0.83629   0.00000  Uiso   1.00
C751   C     0.50053   0.50237   0.66371   0.00000  Uiso   1.00
C752   C     0.46787   0.46582   0.59538   0.00000  Uiso   1.00
H753   H     0.44413   0.43567   0.61543   0.00000  Uiso   1.00
H754   H     0.65074   0.59677   0.84735   0.00000  Uiso   1.00
H755   H     0.38932   0.58278   0.82616   0.00000  Uiso   1.00
H756   H     0.33921   0.53072   0.84859   0.00000  Uiso   1.00
H757   H     0.55587   0.56433   0.88457   0.00000  Uiso   1.00
H758   H     0.57568   0.61330   0.95098   0.00000  Uiso   1.00
H759   H     0.42433   0.38670   0.54902   0.00000  Uiso   1.00
H760   H     0.33697   0.41103   0.73459   0.00000  Uiso   1.00
H761   H     0.34926   0.40323   0.65265   0.00000  Uiso   1.00
H762   H     0.66079   0.46927   0.65141   0.00000  Uiso   1.00
H763   H     0.61068   0.41722   0.67384   0.00000  Uiso   1.00
H764   H     0.66303   0.58897   0.76541   0.00000  Uiso   1.00
I765   I     0.59857   0.58951   0.62561   0.00000  Uiso   1.00
I766   I     0.40143   0.41049   0.87439   0.00000  Uiso   1.00
I767   I     0.57088   0.33395   0.53991   0.00000  Uiso   1.00
I768   I     0.42913   0.66604   0.96009   0.00000  Uiso   1.00
I769   I     0.57589   0.34454   0.80818   0.00000  Uiso   1.00
I770   I     0.42411   0.65546   0.69182   0.00000  Uiso   1.00
N771   N     0.65011   0.48598   0.73783   0.00000  Uiso   1.00
N772   N     0.34989   0.51402   0.76217   0.00000  Uiso   1.00
N773   N     0.34157   0.44385   0.71536   0.00000  Uiso   1.00
N774   N     0.65843   0.55615   0.78464   0.00000  Uiso   1.00
O775   O     0.46308   0.57952   0.75298   0.00000  Uiso   1.00
O776   O     0.53692   0.42048   0.74701   0.00000  Uiso   1.00
O777   O     0.55946   0.57054   0.74518   0.00000  Uiso   1.00
O778   O     0.44054   0.42946   0.75481   0.00000  Uiso   1.00
O779   O     0.45181   0.50450   0.81997   0.00000  Uiso   1.00
O780   O     0.54819   0.49550   0.68002   0.00000  Uiso   1.00
O781   O     0.54819   0.49552   0.81217   0.00000  Uiso   1.00
O782   O     0.45181   0.50448   0.68782   0.00000  Uiso   1.00
Zn783  Zn    0.43565   0.50600   0.75521   0.00000  Uiso   1.00
Zn784  Zn    0.56435   0.49400   0.74479   0.00000  Uiso   1.00
C785   C     0.84820   0.59822   0.74940   0.00000  Uiso   1.00
C786   C     0.86547   0.53418   0.90462   0.00000  Uiso   1.00
C787   C     0.83417   0.50481   0.61606   0.00000  Uiso   1.00
C788   C     0.83250   0.49519   0.88394   0.00000  Uiso   1.00
C789   C     0.86732   0.54388   0.59170   0.00000  Uiso   1.00
C790   C     0.79935   0.45612   0.90830   0.00000  Uiso   1.00
C791   C     0.86265   0.54560   0.54491   0.00000  Uiso   1.00
C792   C     0.80402   0.45440   0.95509   0.00000  Uiso   1.00
C793   C     0.83309   0.50209   0.52351   0.00000  Uiso   1.00
C794   C     0.83358   0.49791   0.97648   0.00000  Uiso   1.00
C795   C     0.80281   0.46255   0.54916   0.00000  Uiso   1.00
C796   C     0.81847   0.40178   0.75060   0.00000  Uiso   1.00
C797   C     0.86386   0.53745   0.95084   0.00000  Uiso   1.00
C798   C     0.88667   0.58760   0.51805   0.00000  Uiso   1.00
C799   C     0.78000   0.41240   0.98195   0.00000  Uiso   1.00
C800   C     0.98930   0.43307   0.67109   0.00000  Uiso   1.00
C801   C     0.67737   0.56693   0.82891   0.00000  Uiso   1.00
C802   C     0.88964   0.58155   0.97142   0.00000  Uiso   1.00
C803   C     0.77703   0.41845   0.52858   0.00000  Uiso   1.00
C804   C     0.85346   0.65248   0.75741   0.00000  Uiso   1.00
C805   C     0.81321   0.34753   0.74259   0.00000  Uiso   1.00
C806   C     0.83280   0.49763   0.83629   0.00000  Uiso   1.00
C807   C     0.83386   0.50237   0.66371   0.00000  Uiso   1.00
C808   C     0.80120   0.46582   0.59538   0.00000  Uiso   1.00
H809   H     0.77746   0.43567   0.61543   0.00000  Uiso   1.00
H810   H     0.98407   0.59677   0.84735   0.00000  Uiso   1.00
H811   H     0.72266   0.58278   0.82616   0.00000  Uiso   1.00
H812   H     0.67254   0.53072   0.84859   0.00000  Uiso   1.00
H813   H     0.88921   0.56433   0.88457   0.00000  Uiso   1.00
H814   H     0.90901   0.61330   0.95098   0.00000  Uiso   1.00
H815   H     0.75766   0.38670   0.54902   0.00000  Uiso   1.00
H816   H     0.67030   0.41103   0.73459   0.00000  Uiso   1.00
H817   H     0.68259   0.40323   0.65265   0.00000  Uiso   1.00
H818   H     0.99413   0.46927   0.65141   0.00000  Uiso   1.00
H819   H     0.94401   0.41722   0.67384   0.00000  Uiso   1.00
H820   H     0.99637   0.58897   0.76541   0.00000  Uiso   1.00
I821   I     0.93190   0.58951   0.62561   0.00000  Uiso   1.00
I822   I     0.73477   0.41049   0.87439   0.00000  Uiso   1.00
I823   I     0.90421   0.33395   0.53991   0.00000  Uiso   1.00
I824   I     0.76246   0.66604   0.96009   0.00000  Uiso   1.00
I825   I     0.90923   0.34454   0.80818   0.00000  Uiso   1.00
I826   I     0.75744   0.65546   0.69182   0.00000  Uiso   1.00
N827   N     0.98344   0.48598   0.73783   0.00000  Uiso   1.00
N828   N     0.68322   0.51402   0.76217   0.00000  Uiso   1.00
N829   N     0.67491   0.44385   0.71536   0.00000  Uiso   1.00
N830   N     0.99176   0.55615   0.78464   0.00000  Uiso   1.00
O831   O     0.79642   0.57952   0.75298   0.00000  Uiso   1.00
O832   O     0.87025   0.42048   0.74701   0.00000  Uiso   1.00
O833   O     0.89280   0.57054   0.74518   0.00000  Uiso   1.00
O834   O     0.77387   0.42946   0.75481   0.00000  Uiso   1.00
O835   O     0.78514   0.50450   0.81997   0.00000  Uiso   1.00
O836   O     0.88153   0.49550   0.68002   0.00000  Uiso   1.00
O837   O     0.88152   0.49552   0.81217   0.00000  Uiso   1.00
O838   O     0.78515   0.50448   0.68782   0.00000  Uiso   1.00
Zn839  Zn    0.76898   0.50600   0.75521   0.00000  Uiso   1.00
Zn840  Zn    0.89769   0.49400   0.74479   0.00000  Uiso   1.00
C841   C     0.18153   0.93155   0.74940   0.00000  Uiso   1.00
C842   C     0.19880   0.86751   0.90462   0.00000  Uiso   1.00
C843   C     0.16750   0.83815   0.61606   0.00000  Uiso   1.00
C844   C     0.16583   0.82852   0.88394   0.00000  Uiso   1.00
C845   C     0.20066   0.87721   0.59170   0.00000  Uiso   1.00
C846   C     0.13268   0.78945   0.90830   0.00000  Uiso   1.00
C847   C     0.19598   0.87894   0.54491   0.00000  Uiso   1.00
C848   C     0.13735   0.78773   0.95509   0.00000  Uiso   1.00
C849   C     0.16642   0.83542   0.52351   0.00000  Uiso   1.00
C850   C     0.16691   0.83124   0.97648   0.00000  Uiso   1.00
C851   C     0.13615   0.79588   0.54916   0.00000  Uiso   1.00
C852   C     0.15180   0.73511   0.75060   0.00000  Uiso   1.00
C853   C     0.19719   0.87078   0.95084   0.00000  Uiso   1.00
C854   C     0.22000   0.92093   0.51805   0.00000  Uiso   1.00
C855   C     0.11333   0.74573   0.98195   0.00000  Uiso   1.00
C856   C     0.32263   0.76640   0.67109   0.00000  Uiso   1.00
C857   C     0.01070   0.90026   0.82891   0.00000  Uiso   1.00
C858   C     0.22297   0.91488   0.97142   0.00000  Uiso   1.00
C859   C     0.11037   0.75178   0.52858   0.00000  Uiso   1.00
C860   C     0.18679   0.98581   0.75741   0.00000  Uiso   1.00
C861   C     0.14654   0.68086   0.74259   0.00000  Uiso   1.00
C862   C     0.16614   0.83096   0.83629   0.00000  Uiso   1.00
C863   C     0.16720   0.83570   0.66371   0.00000  Uiso   1.00
C864   C     0.13454   0.79915   0.59538   0.00000  Uiso   1.00
H865   H     0.11079   0.76900   0.61543   0.00000  Uiso   1.00
H866   H     0.31741   0.93011   0.84735   0.00000  Uiso   1.00
H867   H     0.05599   0.91611   0.82616   0.00000  Uiso   1.00
H868   H     0.00588   0.86406   0.84859   0.00000  Uiso   1.00
H869   H     0.22254   0.89766   0.88457   0.00000  Uiso   1.00
H870   H     0.24235   0.94663   0.95098   0.00000  Uiso   1.00
H871   H     0.09099   0.72003   0.54902   0.00000  Uiso   1.00
H872   H     0.00363   0.74436   0.73459   0.00000  Uiso   1.00
H873   H     0.01593   0.73656   0.65265   0.00000  Uiso   1.00
H874   H     0.32746   0.80261   0.65141   0.00000  Uiso   1.00
H875   H     0.27734   0.75056   0.67384   0.00000  Uiso   1.00
H876   H     0.32970   0.92231   0.76541   0.00000  Uiso   1.00
I877   I     0.26523   0.92284   0.62561   0.00000  Uiso   1.00
I878   I     0.06810   0.74382   0.87439   0.00000  Uiso   1.00
I879   I     0.23754   0.66729   0.53991   0.00000  Uiso   1.00
I880   I     0.09579   0.99938   0.96009   0.00000  Uiso   1.00
I881   I     0.24256   0.67787   0.80818   0.00000  Uiso   1.00
I882   I     0.09077   0.98879   0.69182   0.00000  Uiso   1.00
N883   N     0.31678   0.81932   0.73783   0.00000  Uiso   1.00
N884   N     0.01656   0.84735   0.76217   0.00000  Uiso   1.00
N885   N     0.00824   0.77718   0.71536   0.00000  Uiso   1.00
N886   N     0.32509   0.88949   0.78464   0.00000  Uiso   1.00
O887   O     0.12975   0.91286   0.75298   0.00000  Uiso   1.00
O888   O     0.20358   0.75381   0.74701   0.00000  Uiso   1.00
O889   O     0.22613   0.90387   0.74518   0.00000  Uiso   1.00
O890   O     0.10720   0.76279   0.75481   0.00000  Uiso   1.00
O891   O     0.11847   0.83784   0.81997   0.00000  Uiso   1.00
O892   O     0.21486   0.82883   0.68002   0.00000  Uiso   1.00
O893   O     0.21485   0.82885   0.81217   0.00000  Uiso   1.00
O894   O     0.11848   0.83781   0.68782   0.00000  Uiso   1.00
Zn895  Zn    0.10231   0.83933   0.75521   0.00000  Uiso   1.00
Zn896  Zn    0.23102   0.82734   0.74479   0.00000  Uiso   1.00
C897   C     0.51487   0.93155   0.74940   0.00000  Uiso   1.00
C898   C     0.53213   0.86751   0.90462   0.00000  Uiso   1.00
C899   C     0.50083   0.83815   0.61606   0.00000  Uiso   1.00
C900   C     0.49917   0.82852   0.88394   0.00000  Uiso   1.00
C901   C     0.53399   0.87721   0.59170   0.00000  Uiso   1.00
C902   C     0.46601   0.78945   0.90830   0.00000  Uiso   1.00
C903   C     0.52932   0.87894   0.54491   0.00000  Uiso   1.00
C904   C     0.47069   0.78773   0.95509   0.00000  Uiso   1.00
C905   C     0.49976   0.83542   0.52351   0.00000  Uiso   1.00
C906   C     0.50025   0.83124   0.97648   0.00000  Uiso   1.00
C907   C     0.46948   0.79588   0.54916   0.00000  Uiso   1.00
C908   C     0.48513   0.73511   0.75060   0.00000  Uiso   1.00
C909   C     0.53052   0.87078   0.95084   0.00000  Uiso   1.00
C910   C     0.55334   0.92093   0.51805   0.00000  Uiso   1.00
C911   C     0.44667   0.74573   0.98195   0.00000  Uiso   1.00
C912   C     0.65597   0.76640   0.67109   0.00000  Uiso   1.00
C913   C     0.34403   0.90026   0.82891   0.00000  Uiso   1.00
C914   C     0.55630   0.91488   0.97142   0.00000  Uiso   1.00
C915   C     0.44370   0.75178   0.52858   0.00000  Uiso   1.00
C916   C     0.52013   0.98581   0.75741   0.00000  Uiso   1.00
C917   C     0.47987   0.68086   0.74259   0.00000  Uiso   1.00
C918   C     0.49947   0.83096   0.83629   0.00000  Uiso   1.00
C919   C     0.50053   0.83570   0.66371   0.00000  Uiso   1.00
C920   C     0.46787   0.79915   0.59538   0.00000  Uiso   1.00
H921   H     0.44413   0.76900   0.61543   0.00000  Uiso   1.00
H922   H     0.65074   0.93011   0.84735   0.00000  Uiso   1.00
H923   H     0.38932   0.91611   0.82616   0.00000  Uiso   1.00
H924   H     0.33921   0.86406   0.84859   0.00000  Uiso   1.00
H925   H     0.55587   0.89766   0.88457   0.00000  Uiso   1.00
H926   H     0.57568   0.94663   0.95098   0.00000  Uiso   1.00
H927   H     0.42433   0.72003   0.54902   0.00000  Uiso   1.00
H928   H     0.33697   0.74436   0.73459   0.00000  Uiso   1.00
H929   H     0.34926   0.73656   0.65265   0.00000  Uiso   1.00
H930   H     0.66079   0.80261   0.65141   0.00000  Uiso   1.00
H931   H     0.61068   0.75056   0.67384   0.00000  Uiso   1.00
H932   H     0.66303   0.92231   0.76541   0.00000  Uiso   1.00
I933   I     0.59857   0.92284   0.62561   0.00000  Uiso   1.00
I934   I     0.40143   0.74382   0.87439   0.00000  Uiso   1.00
I935   I     0.57088   0.66729   0.53991   0.00000  Uiso   1.00
I936   I     0.42913   0.99938   0.96009   0.00000  Uiso   1.00
I937   I     0.57589   0.67787   0.80818   0.00000  Uiso   1.00
I938   I     0.42411   0.98879   0.69182   0.00000  Uiso   1.00
N939   N     0.65011   0.81932   0.73783   0.00000  Uiso   1.00
N940   N     0.34989   0.84735   0.76217   0.00000  Uiso   1.00
N941   N     0.34157   0.77718   0.71536   0.00000  Uiso   1.00
N942   N     0.65843   0.88949   0.78464   0.00000  Uiso   1.00
O943   O     0.46308   0.91286   0.75298   0.00000  Uiso   1.00
O944   O     0.53692   0.75381   0.74701   0.00000  Uiso   1.00
O945   O     0.55946   0.90387   0.74518   0.00000  Uiso   1.00
O946   O     0.44054   0.76279   0.75481   0.00000  Uiso   1.00
O947   O     0.45181   0.83784   0.81997   0.00000  Uiso   1.00
O948   O     0.54819   0.82883   0.68002   0.00000  Uiso   1.00
O949   O     0.54819   0.82885   0.81217   0.00000  Uiso   1.00
O950   O     0.45181   0.83781   0.68782   0.00000  Uiso   1.00
Zn951  Zn    0.43565   0.83933   0.75521   0.00000  Uiso   1.00
Zn952  Zn    0.56435   0.82734   0.74479   0.00000  Uiso   1.00
C953   C     0.84820   0.93155   0.74940   0.00000  Uiso   1.00
C954   C     0.86547   0.86751   0.90462   0.00000  Uiso   1.00
C955   C     0.83417   0.83815   0.61606   0.00000  Uiso   1.00
C956   C     0.83250   0.82852   0.88394   0.00000  Uiso   1.00
C957   C     0.86732   0.87721   0.59170   0.00000  Uiso   1.00
C958   C     0.79935   0.78945   0.90830   0.00000  Uiso   1.00
C959   C     0.86265   0.87894   0.54491   0.00000  Uiso   1.00
C960   C     0.80402   0.78773   0.95509   0.00000  Uiso   1.00
C961   C     0.83309   0.83542   0.52351   0.00000  Uiso   1.00
C962   C     0.83358   0.83124   0.97648   0.00000  Uiso   1.00
C963   C     0.80281   0.79588   0.54916   0.00000  Uiso   1.00
C964   C     0.81847   0.73511   0.75060   0.00000  Uiso   1.00
C965   C     0.86386   0.87078   0.95084   0.00000  Uiso   1.00
C966   C     0.88667   0.92093   0.51805   0.00000  Uiso   1.00
C967   C     0.78000   0.74573   0.98195   0.00000  Uiso   1.00
C968   C     0.98930   0.76640   0.67109   0.00000  Uiso   1.00
C969   C     0.67737   0.90026   0.82891   0.00000  Uiso   1.00
C970   C     0.88964   0.91488   0.97142   0.00000  Uiso   1.00
C971   C     0.77703   0.75178   0.52858   0.00000  Uiso   1.00
C972   C     0.85346   0.98581   0.75741   0.00000  Uiso   1.00
C973   C     0.81321   0.68086   0.74259   0.00000  Uiso   1.00
C974   C     0.83280   0.83096   0.83629   0.00000  Uiso   1.00
C975   C     0.83386   0.83570   0.66371   0.00000  Uiso   1.00
C976   C     0.80120   0.79915   0.59538   0.00000  Uiso   1.00
H977   H     0.77746   0.76900   0.61543   0.00000  Uiso   1.00
H978   H     0.98407   0.93011   0.84735   0.00000  Uiso   1.00
H979   H     0.72266   0.91611   0.82616   0.00000  Uiso   1.00
H980   H     0.67254   0.86406   0.84859   0.00000  Uiso   1.00
H981   H     0.88921   0.89766   0.88457   0.00000  Uiso   1.00
H982   H     0.90901   0.94663   0.95098   0.00000  Uiso   1.00
H983   H     0.75766   0.72003   0.54902   0.00000  Uiso   1.00
H984   H     0.67030   0.74436   0.73459   0.00000  Uiso   1.00
H985   H     0.68259   0.73656   0.65265   0.00000  Uiso   1.00
H986   H     0.99413   0.80261   0.65141   0.00000  Uiso   1.00
H987   H     0.94401   0.75056   0.67384   0.00000  Uiso   1.00
H988   H     0.99637   0.92231   0.76541   0.00000  Uiso   1.00
I989   I     0.93190   0.92284   0.62561   0.00000  Uiso   1.00
I990   I     0.73477   0.74382   0.87439   0.00000  Uiso   1.00
I991   I     0.90421   0.66729   0.53991   0.00000  Uiso   1.00
I992   I     0.76246   0.99938   0.96009   0.00000  Uiso   1.00
I993   I     0.90923   0.67787   0.80818   0.00000  Uiso   1.00
I994   I     0.75744   0.98879   0.69182   0.00000  Uiso   1.00
N995   N     0.98344   0.81932   0.73783   0.00000  Uiso   1.00
N996   N     0.68322   0.84735   0.76217   0.00000  Uiso   1.00
N997   N     0.67491   0.77718   0.71536   0.00000  Uiso   1.00
N998   N     0.99176   0.88949   0.78464   0.00000  Uiso   1.00
O999   O     0.79642   0.91286   0.75298   0.00000  Uiso   1.00
O1000  O     0.87025   0.75381   0.74701   0.00000  Uiso   1.00
O1001  O     0.89280   0.90387   0.74518   0.00000  Uiso   1.00
O1002  O     0.77387   0.76279   0.75481   0.00000  Uiso   1.00
O1003  O     0.78514   0.83784   0.81997   0.00000  Uiso   1.00
O1004  O     0.88153   0.82883   0.68002   0.00000  Uiso   1.00
O1005  O     0.88152   0.82885   0.81217   0.00000  Uiso   1.00
O1006  O     0.78515   0.83781   0.68782   0.00000  Uiso   1.00
Zn1007 Zn    0.76898   0.83933   0.75521   0.00000  Uiso   1.00
Zn1008 Zn    0.89769   0.82734   0.74479   0.00000  Uiso   1.00
loop_
_geom_bond_atom_site_label_1
_geom_bond_atom_site_label_2
_geom_bond_distance
_geom_bond_site_symmetry_2
_ccdc_geom_bond_type
C1     O49     1.293   .     A
C1     O47     1.273   .     A
C1     C20     1.396   .     S
C2     C4      1.383   .     A
C2     H29     1.086   .     S
C2     C13     1.373   .     A
C3     C24     1.383   .     A
C3     C23     1.423   .     S
C3     C5      1.407   .     A
C4     C6      1.407   .     A
C4     C22     1.423   .     S
C5     I37     2.156   .     S
C5     C7      1.412   .     A
C6     I38     2.156   .     S
C6     C8      1.412   .     A
C7     C14     1.421   .     A
C7     C9      1.432   .     A
C8     C15     1.421   .     A
C8     C10     1.432   .     A
C9     C11     1.406   .     A
C9     C514    1.399   1_554 S
C10    C13     1.406   .     A
C10    C513    1.399   .     S
C11    C19     1.391   .     A
C11    C24     1.373   .     A
C12    O50     1.293   .     A
C12    O48     1.273   .     A
C12    C21     1.396   .     S
C13    C18     1.391   .     A
C14    C522    1.386   1_554 S
C14    I207    2.137   .     S
C15    C523    1.386   .     S
C15    I376    2.137   1_545 S
C16    H35     1.109   .     S
C16    H34     1.111   .     S
C16    H89     1.109   .     S
C16    N101    1.443   .     S
C17    H27     1.109   .     S
C17    H28     1.111   .     S
C17    H138    1.109   1_455 S
C17    N158    1.443   1_455 S
C18    H30     1.085   .     S
C18    C518    1.386   .     S
C19    H31     1.085   .     S
C19    C519    1.386   1_554 S
C20    C189    1.347   .     S
C20    I209    2.149   .     S
C21    C356    1.347   1_545 S
C21    I378    2.149   1_545 S
C22    O53     1.291   .     A
C22    O51     1.288   .     A
C23    O52     1.288   .     A
C23    O54     1.291   .     A
C24    H25     1.086   .     S
H26    C73     1.109   .     S
H32    N45     1.031   .     S
H33    C128    1.109   1_455 S
H36    N46     1.031   .     S
I39    C350    2.137   1_545 S
I40    C183    2.137   .     S
I41    C356    2.149   1_545 S
I42    C189    2.149   .     S
N43    Zn56    2.025   .     S
N43    N100    1.279   .     S
N43    N101    1.373   .     S
N44    Zn55    2.025   .     S
N44    N155    1.279   1_455 S
N44    N158    1.373   1_455 S
N45    N155    1.373   1_455 S
N45    C128    1.443   1_455 S
N46    N100    1.373   .     S
N46    C73     1.443   .     S
O47    Zn55    1.948   .     S
O48    Zn56    1.948   .     S
O49    Zn56    1.966   .     S
O50    Zn55    1.966   .     S
O51    Zn55    2.005   .     S
O52    Zn56    2.005   .     S
O53    Zn56    2.004   .     S
O54    Zn55    2.004   .     S
C57    O105    1.293   .     A
C57    O103    1.273   .     A
C57    C76     1.396   .     S
C58    C60     1.383   .     A
C58    H85     1.086   .     S
C58    C69     1.373   .     A
C59    C80     1.383   .     A
C59    C79     1.423   .     S
C59    C61     1.407   .     A
C60    C62     1.407   .     A
C60    C78     1.423   .     S
C61    I93     2.156   .     S
C61    C63     1.412   .     A
C62    I94     2.156   .     S
C62    C64     1.412   .     A
C63    C70     1.421   .     A
C63    C65     1.432   .     A
C64    C71     1.421   .     A
C64    C66     1.432   .     A
C65    C67     1.406   .     A
C65    C570    1.399   1_554 S
C66    C69     1.406   .     A
C66    C569    1.399   .     S
C67    C75     1.391   .     A
C67    C80     1.373   .     A
C68    O106    1.293   .     A
C68    O104    1.273   .     A
C68    C77     1.396   .     S
C69    C74     1.391   .     A
C70    C578    1.386   1_554 S
C70    I263    2.137   .     S
C71    C579    1.386   .     S
C71    I432    2.137   1_545 S
C72    H91     1.109   .     S
C72    H90     1.111   .     S
C72    H145    1.109   .     S
C72    N157    1.443   .     S
C73    H83     1.109   .     S
C73    H84     1.111   .     S
C74    H86     1.085   .     S
C74    C574    1.386   .     S
C75    H87     1.085   .     S
C75    C575    1.386   1_554 S
C76    C245    1.347   .     S
C76    I265    2.149   .     S
C77    C412    1.347   1_545 S
C77    I434    2.149   1_545 S
C78    O109    1.291   .     A
C78    O107    1.288   .     A
C79    O108    1.288   .     A
C79    O110    1.291   .     A
C80    H81     1.086   .     S
H82    C129    1.109   .     S
H88    N101    1.031   .     S
H92    N102    1.031   .     S
I95    C406    2.137   1_545 S
I96    C239    2.137   .     S
I97    C412    2.149   1_545 S
I98    C245    2.149   .     S
N99    Zn112   2.025   .     S
N99    N156    1.279   .     S
N99    N157    1.373   .     S
N100   Zn111   2.025   .     S
N102   N156    1.373   .     S
N102   C129    1.443   .     S
O103   Zn111   1.948   .     S
O104   Zn112   1.948   .     S
O105   Zn112   1.966   .     S
O106   Zn111   1.966   .     S
O107   Zn111   2.005   .     S
O108   Zn112   2.005   .     S
O109   Zn112   2.004   .     S
O110   Zn111   2.004   .     S
C113   O161    1.293   .     A
C113   O159    1.273   .     A
C113   C132    1.396   .     S
C114   C116    1.383   .     A
C114   H141    1.086   .     S
C114   C125    1.373   .     A
C115   C136    1.383   .     A
C115   C135    1.423   .     S
C115   C117    1.407   .     A
C116   C118    1.407   .     A
C116   C134    1.423   .     S
C117   I149    2.156   .     S
C117   C119    1.412   .     A
C118   I150    2.156   .     S
C118   C120    1.412   .     A
C119   C126    1.421   .     A
C119   C121    1.432   .     A
C120   C127    1.421   .     A
C120   C122    1.432   .     A
C121   C123    1.406   .     A
C121   C626    1.399   1_554 S
C122   C125    1.406   .     A
C122   C625    1.399   .     S
C123   C131    1.391   .     A
C123   C136    1.373   .     A
C124   O162    1.293   .     A
C124   O160    1.273   .     A
C124   C133    1.396   .     S
C125   C130    1.391   .     A
C126   C634    1.386   1_554 S
C126   I319    2.137   .     S
C127   C635    1.386   .     S
C127   I488    2.137   1_545 S
C128   H147    1.109   .     S
C128   H146    1.111   .     S
C128   H33     1.109   1_655 S
C128   N45     1.443   1_655 S
C129   H139    1.109   .     S
C129   H140    1.111   .     S
C130   H142    1.085   .     S
C130   C630    1.386   .     S
C131   H143    1.085   .     S
C131   C631    1.386   1_554 S
C132   C301    1.347   .     S
C132   I321    2.149   .     S
C133   C468    1.347   1_545 S
C133   I490    2.149   1_545 S
C134   O165    1.291   .     A
C134   O163    1.288   .     A
C135   O164    1.288   .     A
C135   O166    1.291   .     A
C136   H137    1.086   .     S
H138   C17     1.109   1_655 S
H144   N157    1.031   .     S
H148   N158    1.031   .     S
I151   C462    2.137   1_545 S
I152   C295    2.137   .     S
I153   C468    2.149   1_545 S
I154   C301    2.149   .     S
N155   Zn168   2.025   .     S
N155   N44     1.279   1_655 S
N155   N45     1.373   1_655 S
N156   Zn167   2.025   .     S
N158   N44     1.373   1_655 S
N158   C17     1.443   1_655 S
O159   Zn167   1.948   .     S
O160   Zn168   1.948   .     S
O161   Zn168   1.966   .     S
O162   Zn167   1.966   .     S
O163   Zn167   2.005   .     S
O164   Zn168   2.005   .     S
O165   Zn168   2.004   .     S
O166   Zn167   2.004   .     S
C169   O217    1.293   .     A
C169   O215    1.273   .     A
C169   C188    1.396   .     S
C170   C172    1.383   .     A
C170   H197    1.086   .     S
C170   C181    1.373   .     A
C171   C192    1.383   .     A
C171   C191    1.423   .     S
C171   C173    1.407   .     A
C172   C174    1.407   .     A
C172   C190    1.423   .     S
C173   I205    2.156   .     S
C173   C175    1.412   .     A
C174   I206    2.156   .     S
C174   C176    1.412   .     A
C175   C182    1.421   .     A
C175   C177    1.432   .     A
C176   C183    1.421   .     A
C176   C178    1.432   .     A
C177   C179    1.406   .     A
C177   C682    1.399   1_554 S
C178   C181    1.406   .     A
C178   C681    1.399   .     S
C179   C187    1.391   .     A
C179   C192    1.373   .     A
C180   O218    1.293   .     A
C180   O216    1.273   .     A
C180   C189    1.396   .     S
C181   C186    1.391   .     A
C182   C690    1.386   1_554 S
C182   I375    2.137   .     S
C183   C691    1.386   .     S
C184   H203    1.109   .     S
C184   H202    1.111   .     S
C184   H257    1.109   .     S
C184   N269    1.443   .     S
C185   H195    1.109   .     S
C185   H196    1.111   .     S
C185   H306    1.109   1_455 S
C185   N326    1.443   1_455 S
C186   H198    1.085   .     S
C186   C686    1.386   .     S
C187   H199    1.085   .     S
C187   C687    1.386   1_554 S
C188   C357    1.347   .     S
C188   I377    2.149   .     S
C190   O221    1.291   .     A
C190   O219    1.288   .     A
C191   O220    1.288   .     A
C191   O222    1.291   .     A
C192   H193    1.086   .     S
H194   C241    1.109   .     S
H200   N213    1.031   .     S
H201   C296    1.109   1_455 S
H204   N214    1.031   .     S
I208   C351    2.137   .     S
I210   C357    2.149   .     S
N211   Zn224   2.025   .     S
N211   N268    1.279   .     S
N211   N269    1.373   .     S
N212   Zn223   2.025   .     S
N212   N323    1.279   1_455 S
N212   N326    1.373   1_455 S
N213   N323    1.373   1_455 S
N213   C296    1.443   1_455 S
N214   N268    1.373   .     S
N214   C241    1.443   .     S
O215   Zn223   1.948   .     S
O216   Zn224   1.948   .     S
O217   Zn224   1.966   .     S
O218   Zn223   1.966   .     S
O219   Zn223   2.005   .     S
O220   Zn224   2.005   .     S
O221   Zn224   2.004   .     S
O222   Zn223   2.004   .     S
C225   O273    1.293   .     A
C225   O271    1.273   .     A
C225   C244    1.396   .     S
C226   C228    1.383   .     A
C226   H253    1.086   .     S
C226   C237    1.373   .     A
C227   C248    1.383   .     A
C227   C247    1.423   .     S
C227   C229    1.407   .     A
C228   C230    1.407   .     A
C228   C246    1.423   .     S
C229   I261    2.156   .     S
C229   C231    1.412   .     A
C230   I262    2.156   .     S
C230   C232    1.412   .     A
C231   C238    1.421   .     A
C231   C233    1.432   .     A
C232   C239    1.421   .     A
C232   C234    1.432   .     A
C233   C235    1.406   .     A
C233   C738    1.399   1_554 S
C234   C237    1.406   .     A
C234   C737    1.399   .     S
C235   C243    1.391   .     A
C235   C248    1.373   .     A
C236   O274    1.293   .     A
C236   O272    1.273   .     A
C236   C245    1.396   .     S
C237   C242    1.391   .     A
C238   C746    1.386   1_554 S
C238   I431    2.137   .     S
C239   C747    1.386   .     S
C240   H259    1.109   .     S
C240   H258    1.111   .     S
C240   H313    1.109   .     S
C240   N325    1.443   .     S
C241   H251    1.109   .     S
C241   H252    1.111   .     S
C242   H254    1.085   .     S
C242   C742    1.386   .     S
C243   H255    1.085   .     S
C243   C743    1.386   1_554 S
C244   C413    1.347   .     S
C244   I433    2.149   .     S
C246   O277    1.291   .     A
C246   O275    1.288   .     A
C247   O276    1.288   .     A
C247   O278    1.291   .     A
C248   H249    1.086   .     S
H250   C297    1.109   .     S
H256   N269    1.031   .     S
H260   N270    1.031   .     S
I264   C407    2.137   .     S
I266   C413    2.149   .     S
N267   Zn280   2.025   .     S
N267   N324    1.279   .     S
N267   N325    1.373   .     S
N268   Zn279   2.025   .     S
N270   N324    1.373   .     S
N270   C297    1.443   .     S
O271   Zn279   1.948   .     S
O272   Zn280   1.948   .     S
O273   Zn280   1.966   .     S
O274   Zn279   1.966   .     S
O275   Zn279   2.005   .     S
O276   Zn280   2.005   .     S
O277   Zn280   2.004   .     S
O278   Zn279   2.004   .     S
C281   O329    1.293   .     A
C281   O327    1.273   .     A
C281   C300    1.396   .     S
C282   C284    1.383   .     A
C282   H309    1.086   .     S
C282   C293    1.373   .     A
C283   C304    1.383   .     A
C283   C303    1.423   .     S
C283   C285    1.407   .     A
C284   C286    1.407   .     A
C284   C302    1.423   .     S
C285   I317    2.156   .     S
C285   C287    1.412   .     A
C286   I318    2.156   .     S
C286   C288    1.412   .     A
C287   C294    1.421   .     A
C287   C289    1.432   .     A
C288   C295    1.421   .     A
C288   C290    1.432   .     A
C289   C291    1.406   .     A
C289   C794    1.399   1_554 S
C290   C293    1.406   .     A
C290   C793    1.399   .     S
C291   C299    1.391   .     A
C291   C304    1.373   .     A
C292   O330    1.293   .     A
C292   O328    1.273   .     A
C292   C301    1.396   .     S
C293   C298    1.391   .     A
C294   C802    1.386   1_554 S
C294   I487    2.137   .     S
C295   C803    1.386   .     S
C296   H315    1.109   .     S
C296   H314    1.111   .     S
C296   H201    1.109   1_655 S
C296   N213    1.443   1_655 S
C297   H307    1.109   .     S
C297   H308    1.111   .     S
C298   H310    1.085   .     S
C298   C798    1.386   .     S
C299   H311    1.085   .     S
C299   C799    1.386   1_554 S
C300   C469    1.347   .     S
C300   I489    2.149   .     S
C302   O333    1.291   .     A
C302   O331    1.288   .     A
C303   O332    1.288   .     A
C303   O334    1.291   .     A
C304   H305    1.086   .     S
H306   C185    1.109   1_655 S
H312   N325    1.031   .     S
H316   N326    1.031   .     S
I320   C463    2.137   .     S
I322   C469    2.149   .     S
N323   Zn336   2.025   .     S
N323   N212    1.279   1_655 S
N323   N213    1.373   1_655 S
N324   Zn335   2.025   .     S
N326   N212    1.373   1_655 S
N326   C185    1.443   1_655 S
O327   Zn335   1.948   .     S
O328   Zn336   1.948   .     S
O329   Zn336   1.966   .     S
O330   Zn335   1.966   .     S
O331   Zn335   2.005   .     S
O332   Zn336   2.005   .     S
O333   Zn336   2.004   .     S
O334   Zn335   2.004   .     S
C337   O385    1.293   .     A
C337   O383    1.273   .     A
C337   C356    1.396   .     S
C338   C340    1.383   .     A
C338   H365    1.086   .     S
C338   C349    1.373   .     A
C339   C360    1.383   .     A
C339   C359    1.423   .     S
C339   C341    1.407   .     A
C340   C342    1.407   .     A
C340   C358    1.423   .     S
C341   I373    2.156   .     S
C341   C343    1.412   .     A
C342   I374    2.156   .     S
C342   C344    1.412   .     A
C343   C350    1.421   .     A
C343   C345    1.432   .     A
C344   C351    1.421   .     A
C344   C346    1.432   .     A
C345   C347    1.406   .     A
C345   C850    1.399   1_554 S
C346   C349    1.406   .     A
C346   C849    1.399   .     S
C347   C355    1.391   .     A
C347   C360    1.373   .     A
C348   O386    1.293   .     A
C348   O384    1.273   .     A
C348   C357    1.396   .     S
C349   C354    1.391   .     A
C350   C858    1.386   1_554 S
C350   I39     2.137   1_565 S
C351   C859    1.386   .     S
C352   H371    1.109   .     S
C352   H370    1.111   .     S
C352   H425    1.109   .     S
C352   N437    1.443   .     S
C353   H363    1.109   .     S
C353   H364    1.111   .     S
C353   H474    1.109   1_455 S
C353   N494    1.443   1_455 S
C354   H366    1.085   .     S
C354   C854    1.386   .     S
C355   H367    1.085   .     S
C355   C855    1.386   1_554 S
C356   C21     1.347   1_565 S
C356   I41     2.149   1_565 S
C358   O389    1.291   .     A
C358   O387    1.288   .     A
C359   O388    1.288   .     A
C359   O390    1.291   .     A
C360   H361    1.086   .     S
H362   C409    1.109   .     S
H368   N381    1.031   .     S
H369   C464    1.109   1_455 S
H372   N382    1.031   .     S
I376   C15     2.137   1_565 S
I378   C21     2.149   1_565 S
N379   Zn392   2.025   .     S
N379   N436    1.279   .     S
N379   N437    1.373   .     S
N380   Zn391   2.025   .     S
N380   N491    1.279   1_455 S
N380   N494    1.373   1_455 S
N381   N491    1.373   1_455 S
N381   C464    1.443   1_455 S
N382   N436    1.373   .     S
N382   C409    1.443   .     S
O383   Zn391   1.948   .     S
O384   Zn392   1.948   .     S
O385   Zn392   1.966   .     S
O386   Zn391   1.966   .     S
O387   Zn391   2.005   .     S
O388   Zn392   2.005   .     S
O389   Zn392   2.004   .     S
O390   Zn391   2.004   .     S
C393   O441    1.293   .     A
C393   O439    1.273   .     A
C393   C412    1.396   .     S
C394   C396    1.383   .     A
C394   H421    1.086   .     S
C394   C405    1.373   .     A
C395   C416    1.383   .     A
C395   C415    1.423   .     S
C395   C397    1.407   .     A
C396   C398    1.407   .     A
C396   C414    1.423   .     S
C397   I429    2.156   .     S
C397   C399    1.412   .     A
C398   I430    2.156   .     S
C398   C400    1.412   .     A
C399   C406    1.421   .     A
C399   C401    1.432   .     A
C400   C407    1.421   .     A
C400   C402    1.432   .     A
C401   C403    1.406   .     A
C401   C906    1.399   1_554 S
C402   C405    1.406   .     A
C402   C905    1.399   .     S
C403   C411    1.391   .     A
C403   C416    1.373   .     A
C404   O442    1.293   .     A
C404   O440    1.273   .     A
C404   C413    1.396   .     S
C405   C410    1.391   .     A
C406   C914    1.386   1_554 S
C406   I95     2.137   1_565 S
C407   C915    1.386   .     S
C408   H427    1.109   .     S
C408   H426    1.111   .     S
C408   H481    1.109   .     S
C408   N493    1.443   .     S
C409   H419    1.109   .     S
C409   H420    1.111   .     S
C410   H422    1.085   .     S
C410   C910    1.386   .     S
C411   H423    1.085   .     S
C411   C911    1.386   1_554 S
C412   C77     1.347   1_565 S
C412   I97     2.149   1_565 S
C414   O445    1.291   .     A
C414   O443    1.288   .     A
C415   O444    1.288   .     A
C415   O446    1.291   .     A
C416   H417    1.086   .     S
H418   C465    1.109   .     S
H424   N437    1.031   .     S
H428   N438    1.031   .     S
I432   C71     2.137   1_565 S
I434   C77     2.149   1_565 S
N435   Zn448   2.025   .     S
N435   N492    1.279   .     S
N435   N493    1.373   .     S
N436   Zn447   2.025   .     S
N438   N492    1.373   .     S
N438   C465    1.443   .     S
O439   Zn447   1.948   .     S
O440   Zn448   1.948   .     S
O441   Zn448   1.966   .     S
O442   Zn447   1.966   .     S
O443   Zn447   2.005   .     S
O444   Zn448   2.005   .     S
O445   Zn448   2.004   .     S
O446   Zn447   2.004   .     S
C449   O497    1.293   .     A
C449   O495    1.273   .     A
C449   C468    1.396   .     S
C450   C452    1.383   .     A
C450   H477    1.086   .     S
C450   C461    1.373   .     A
C451   C472    1.383   .     A
C451   C471    1.423   .     S
C451   C453    1.407   .     A
C452   C454    1.407   .     A
C452   C470    1.423   .     S
C453   I485    2.156   .     S
C453   C455    1.412   .     A
C454   I486    2.156   .     S
C454   C456    1.412   .     A
C455   C462    1.421   .     A
C455   C457    1.432   .     A
C456   C463    1.421   .     A
C456   C458    1.432   .     A
C457   C459    1.406   .     A
C457   C962    1.399   1_554 S
C458   C461    1.406   .     A
C458   C961    1.399   .     S
C459   C467    1.391   .     A
C459   C472    1.373   .     A
C460   O498    1.293   .     A
C460   O496    1.273   .     A
C460   C469    1.396   .     S
C461   C466    1.391   .     A
C462   C970    1.386   1_554 S
C462   I151    2.137   1_565 S
C463   C971    1.386   .     S
C464   H483    1.109   .     S
C464   H482    1.111   .     S
C464   H369    1.109   1_655 S
C464   N381    1.443   1_655 S
C465   H475    1.109   .     S
C465   H476    1.111   .     S
C466   H478    1.085   .     S
C466   C966    1.386   .     S
C467   H479    1.085   .     S
C467   C967    1.386   1_554 S
C468   C133    1.347   1_565 S
C468   I153    2.149   1_565 S
C470   O501    1.291   .     A
C470   O499    1.288   .     A
C471   O500    1.288   .     A
C471   O502    1.291   .     A
C472   H473    1.086   .     S
H474   C353    1.109   1_655 S
H480   N493    1.031   .     S
H484   N494    1.031   .     S
I488   C127    2.137   1_565 S
I490   C133    2.149   1_565 S
N491   Zn504   2.025   .     S
N491   N380    1.279   1_655 S
N491   N381    1.373   1_655 S
N492   Zn503   2.025   .     S
N494   N380    1.373   1_655 S
N494   C353    1.443   1_655 S
O495   Zn503   1.948   .     S
O496   Zn504   1.948   .     S
O497   Zn504   1.966   .     S
O498   Zn503   1.966   .     S
O499   Zn503   2.005   .     S
O500   Zn504   2.005   .     S
O501   Zn504   2.004   .     S
O502   Zn503   2.004   .     S
C505   O553    1.293   .     A
C505   O551    1.273   .     A
C505   C524    1.396   .     S
C506   C508    1.383   .     A
C506   H533    1.086   .     S
C506   C517    1.373   .     A
C507   C528    1.383   .     A
C507   C527    1.423   .     S
C507   C509    1.407   .     A
C508   C510    1.407   .     A
C508   C526    1.423   .     S
C509   I541    2.156   .     S
C509   C511    1.412   .     A
C510   I542    2.156   .     S
C510   C512    1.412   .     A
C511   C518    1.421   .     A
C511   C513    1.432   .     A
C512   C519    1.421   .     A
C512   C514    1.432   .     A
C513   C515    1.406   .     A
C514   C517    1.406   .     A
C514   C9      1.399   1_556 S
C515   C523    1.391   .     A
C515   C528    1.373   .     A
C516   O554    1.293   .     A
C516   O552    1.273   .     A
C516   C525    1.396   .     S
C517   C522    1.391   .     A
C518   I711    2.137   .     S
C519   C19     1.386   1_556 S
C519   I880    2.137   1_545 S
C520   H539    1.109   .     S
C520   H538    1.111   .     S
C520   H593    1.109   .     S
C520   N605    1.443   .     S
C521   H531    1.109   .     S
C521   H532    1.111   .     S
C521   H642    1.109   1_455 S
C521   N662    1.443   1_455 S
C522   H534    1.085   .     S
C522   C14     1.386   1_556 S
C523   H535    1.085   .     S
C524   C693    1.347   .     S
C524   I713    2.149   .     S
C525   C860    1.347   1_545 S
C525   I882    2.149   1_545 S
C526   O557    1.291   .     A
C526   O555    1.288   .     A
C527   O556    1.288   .     A
C527   O558    1.291   .     A
C528   H529    1.086   .     S
H530   C577    1.109   .     S
H536   N549    1.031   .     S
H537   C632    1.109   1_455 S
H540   N550    1.031   .     S
I543   C854    2.137   1_545 S
I544   C687    2.137   .     S
I545   C860    2.149   1_545 S
I546   C693    2.149   .     S
N547   Zn560   2.025   .     S
N547   N604    1.279   .     S
N547   N605    1.373   .     S
N548   Zn559   2.025   .     S
N548   N659    1.279   1_455 S
N548   N662    1.373   1_455 S
N549   N659    1.373   1_455 S
N549   C632    1.443   1_455 S
N550   N604    1.373   .     S
N550   C577    1.443   .     S
O551   Zn559   1.948   .     S
O552   Zn560   1.948   .     S
O553   Zn560   1.966   .     S
O554   Zn559   1.966   .     S
O555   Zn559   2.005   .     S
O556   Zn560   2.005   .     S
O557   Zn560   2.004   .     S
O558   Zn559   2.004   .     S
C561   O609    1.293   .     A
C561   O607    1.273   .     A
C561   C580    1.396   .     S
C562   C564    1.383   .     A
C562   H589    1.086   .     S
C562   C573    1.373   .     A
C563   C584    1.383   .     A
C563   C583    1.423   .     S
C563   C565    1.407   .     A
C564   C566    1.407   .     A
C564   C582    1.423   .     S
C565   I597    2.156   .     S
C565   C567    1.412   .     A
C566   I598    2.156   .     S
C566   C568    1.412   .     A
C567   C574    1.421   .     A
C567   C569    1.432   .     A
C568   C575    1.421   .     A
C568   C570    1.432   .     A
C569   C571    1.406   .     A
C570   C573    1.406   .     A
C570   C65     1.399   1_556 S
C571   C579    1.391   .     A
C571   C584    1.373   .     A
C572   O610    1.293   .     A
C572   O608    1.273   .     A
C572   C581    1.396   .     S
C573   C578    1.391   .     A
C574   I767    2.137   .     S
C575   C75     1.386   1_556 S
C575   I936    2.137   1_545 S
C576   H595    1.109   .     S
C576   H594    1.111   .     S
C576   H649    1.109   .     S
C576   N661    1.443   .     S
C577   H587    1.109   .     S
C577   H588    1.111   .     S
C578   H590    1.085   .     S
C578   C70     1.386   1_556 S
C579   H591    1.085   .     S
C580   C749    1.347   .     S
C580   I769    2.149   .     S
C581   C916    1.347   1_545 S
C581   I938    2.149   1_545 S
C582   O613    1.291   .     A
C582   O611    1.288   .     A
C583   O612    1.288   .     A
C583   O614    1.291   .     A
C584   H585    1.086   .     S
H586   C633    1.109   .     S
H592   N605    1.031   .     S
H596   N606    1.031   .     S
I599   C910    2.137   1_545 S
I600   C743    2.137   .     S
I601   C916    2.149   1_545 S
I602   C749    2.149   .     S
N603   Zn616   2.025   .     S
N603   N660    1.279   .     S
N603   N661    1.373   .     S
N604   Zn615   2.025   .     S
N606   N660    1.373   .     S
N606   C633    1.443   .     S
O607   Zn615   1.948   .     S
O608   Zn616   1.948   .     S
O609   Zn616   1.966   .     S
O610   Zn615   1.966   .     S
O611   Zn615   2.005   .     S
O612   Zn616   2.005   .     S
O613   Zn616   2.004   .     S
O614   Zn615   2.004   .     S
C617   O665    1.293   .     A
C617   O663    1.273   .     A
C617   C636    1.396   .     S
C618   C620    1.383   .     A
C618   H645    1.086   .     S
C618   C629    1.373   .     A
C619   C640    1.383   .     A
C619   C639    1.423   .     S
C619   C621    1.407   .     A
C620   C622    1.407   .     A
C620   C638    1.423   .     S
C621   I653    2.156   .     S
C621   C623    1.412   .     A
C622   I654    2.156   .     S
C622   C624    1.412   .     A
C623   C630    1.421   .     A
C623   C625    1.432   .     A
C624   C631    1.421   .     A
C624   C626    1.432   .     A
C625   C627    1.406   .     A
C626   C629    1.406   .     A
C626   C121    1.399   1_556 S
C627   C635    1.391   .     A
C627   C640    1.373   .     A
C628   O666    1.293   .     A
C628   O664    1.273   .     A
C628   C637    1.396   .     S
C629   C634    1.391   .     A
C630   I823    2.137   .     S
C631   C131    1.386   1_556 S
C631   I992    2.137   1_545 S
C632   H651    1.109   .     S
C632   H650    1.111   .     S
C632   H537    1.109   1_655 S
C632   N549    1.443   1_655 S
C633   H643    1.109   .     S
C633   H644    1.111   .     S
C634   H646    1.085   .     S
C634   C126    1.386   1_556 S
C635   H647    1.085   .     S
C636   C805    1.347   .     S
C636   I825    2.149   .     S
C637   C972    1.347   1_545 S
C637   I994    2.149   1_545 S
C638   O669    1.291   .     A
C638   O667    1.288   .     A
C639   O668    1.288   .     A
C639   O670    1.291   .     A
C640   H641    1.086   .     S
H642   C521    1.109   1_655 S
H648   N661    1.031   .     S
H652   N662    1.031   .     S
I655   C966    2.137   1_545 S
I656   C799    2.137   .     S
I657   C972    2.149   1_545 S
I658   C805    2.149   .     S
N659   Zn672   2.025   .     S
N659   N548    1.279   1_655 S
N659   N549    1.373   1_655 S
N660   Zn671   2.025   .     S
N662   N548    1.373   1_655 S
N662   C521    1.443   1_655 S
O663   Zn671   1.948   .     S
O664   Zn672   1.948   .     S
O665   Zn672   1.966   .     S
O666   Zn671   1.966   .     S
O667   Zn671   2.005   .     S
O668   Zn672   2.005   .     S
O669   Zn672   2.004   .     S
O670   Zn671   2.004   .     S
C673   O721    1.293   .     A
C673   O719    1.273   .     A
C673   C692    1.396   .     S
C674   C676    1.383   .     A
C674   H701    1.086   .     S
C674   C685    1.373   .     A
C675   C696    1.383   .     A
C675   C695    1.423   .     S
C675   C677    1.407   .     A
C676   C678    1.407   .     A
C676   C694    1.423   .     S
C677   I709    2.156   .     S
C677   C679    1.412   .     A
C678   I710    2.156   .     S
C678   C680    1.412   .     A
C679   C686    1.421   .     A
C679   C681    1.432   .     A
C680   C687    1.421   .     A
C680   C682    1.432   .     A
C681   C683    1.406   .     A
C682   C685    1.406   .     A
C682   C177    1.399   1_556 S
C683   C691    1.391   .     A
C683   C696    1.373   .     A
C684   O722    1.293   .     A
C684   O720    1.273   .     A
C684   C693    1.396   .     S
C685   C690    1.391   .     A
C686   I879    2.137   .     S
C687   C187    1.386   1_556 S
C688   H707    1.109   .     S
C688   H706    1.111   .     S
C688   H761    1.109   .     S
C688   N773    1.443   .     S
C689   H699    1.109   .     S
C689   H700    1.111   .     S
C689   H810    1.109   1_455 S
C689   N830    1.443   1_455 S
C690   H702    1.085   .     S
C690   C182    1.386   1_556 S
C691   H703    1.085   .     S
C692   C861    1.347   .     S
C692   I881    2.149   .     S
C694   O725    1.291   .     A
C694   O723    1.288   .     A
C695   O724    1.288   .     A
C695   O726    1.291   .     A
C696   H697    1.086   .     S
H698   C745    1.109   .     S
H704   N717    1.031   .     S
H705   C800    1.109   1_455 S
H708   N718    1.031   .     S
I712   C855    2.137   .     S
I714   C861    2.149   .     S
N715   Zn728   2.025   .     S
N715   N772    1.279   .     S
N715   N773    1.373   .     S
N716   Zn727   2.025   .     S
N716   N827    1.279   1_455 S
N716   N830    1.373   1_455 S
N717   N827    1.373   1_455 S
N717   C800    1.443   1_455 S
N718   N772    1.373   .     S
N718   C745    1.443   .     S
O719   Zn727   1.948   .     S
O720   Zn728   1.948   .     S
O721   Zn728   1.966   .     S
O722   Zn727   1.966   .     S
O723   Zn727   2.005   .     S
O724   Zn728   2.005   .     S
O725   Zn728   2.004   .     S
O726   Zn727   2.004   .     S
C729   O777    1.293   .     A
C729   O775    1.273   .     A
C729   C748    1.396   .     S
C730   C732    1.383   .     A
C730   H757    1.086   .     S
C730   C741    1.373   .     A
C731   C752    1.383   .     A
C731   C751    1.423   .     S
C731   C733    1.407   .     A
C732   C734    1.407   .     A
C732   C750    1.423   .     S
C733   I765    2.156   .     S
C733   C735    1.412   .     A
C734   I766    2.156   .     S
C734   C736    1.412   .     A
C735   C742    1.421   .     A
C735   C737    1.432   .     A
C736   C743    1.421   .     A
C736   C738    1.432   .     A
C737   C739    1.406   .     A
C738   C741    1.406   .     A
C738   C233    1.399   1_556 S
C739   C747    1.391   .     A
C739   C752    1.373   .     A
C740   O778    1.293   .     A
C740   O776    1.273   .     A
C740   C749    1.396   .     S
C741   C746    1.391   .     A
C742   I935    2.137   .     S
C743   C243    1.386   1_556 S
C744   H763    1.109   .     S
C744   H762    1.111   .     S
C744   H817    1.109   .     S
C744   N829    1.443   .     S
C745   H755    1.109   .     S
C745   H756    1.111   .     S
C746   H758    1.085   .     S
C746   C238    1.386   1_556 S
C747   H759    1.085   .     S
C748   C917    1.347   .     S
C748   I937    2.149   .     S
C750   O781    1.291   .     A
C750   O779    1.288   .     A
C751   O780    1.288   .     A
C751   O782    1.291   .     A
C752   H753    1.086   .     S
H754   C801    1.109   .     S
H760   N773    1.031   .     S
H764   N774    1.031   .     S
I768   C911    2.137   .     S
I770   C917    2.149   .     S
N771   Zn784   2.025   .     S
N771   N828    1.279   .     S
N771   N829    1.373   .     S
N772   Zn783   2.025   .     S
N774   N828    1.373   .     S
N774   C801    1.443   .     S
O775   Zn783   1.948   .     S
O776   Zn784   1.948   .     S
O777   Zn784   1.966   .     S
O778   Zn783   1.966   .     S
O779   Zn783   2.005   .     S
O780   Zn784   2.005   .     S
O781   Zn784   2.004   .     S
O782   Zn783   2.004   .     S
C785   O833    1.293   .     A
C785   O831    1.273   .     A
C785   C804    1.396   .     S
C786   C788    1.383   .     A
C786   H813    1.086   .     S
C786   C797    1.373   .     A
C787   C808    1.383   .     A
C787   C807    1.423   .     S
C787   C789    1.407   .     A
C788   C790    1.407   .     A
C788   C806    1.423   .     S
C789   I821    2.156   .     S
C789   C791    1.412   .     A
C790   I822    2.156   .     S
C790   C792    1.412   .     A
C791   C798    1.421   .     A
C791   C793    1.432   .     A
C792   C799    1.421   .     A
C792   C794    1.432   .     A
C793   C795    1.406   .     A
C794   C797    1.406   .     A
C794   C289    1.399   1_556 S
C795   C803    1.391   .     A
C795   C808    1.373   .     A
C796   O834    1.293   .     A
C796   O832    1.273   .     A
C796   C805    1.396   .     S
C797   C802    1.391   .     A
C798   I991    2.137   .     S
C799   C299    1.386   1_556 S
C800   H819    1.109   .     S
C800   H818    1.111   .     S
C800   H705    1.109   1_655 S
C800   N717    1.443   1_655 S
C801   H811    1.109   .     S
C801   H812    1.111   .     S
C802   H814    1.085   .     S
C802   C294    1.386   1_556 S
C803   H815    1.085   .     S
C804   C973    1.347   .     S
C804   I993    2.149   .     S
C806   O837    1.291   .     A
C806   O835    1.288   .     A
C807   O836    1.288   .     A
C807   O838    1.291   .     A
C808   H809    1.086   .     S
H810   C689    1.109   1_655 S
H816   N829    1.031   .     S
H820   N830    1.031   .     S
I824   C967    2.137   .     S
I826   C973    2.149   .     S
N827   Zn840   2.025   .     S
N827   N716    1.279   1_655 S
N827   N717    1.373   1_655 S
N828   Zn839   2.025   .     S
N830   N716    1.373   1_655 S
N830   C689    1.443   1_655 S
O831   Zn839   1.948   .     S
O832   Zn840   1.948   .     S
O833   Zn840   1.966   .     S
O834   Zn839   1.966   .     S
O835   Zn839   2.005   .     S
O836   Zn840   2.005   .     S
O837   Zn840   2.004   .     S
O838   Zn839   2.004   .     S
C841   O889    1.293   .     A
C841   O887    1.273   .     A
C841   C860    1.396   .     S
C842   C844    1.383   .     A
C842   H869    1.086   .     S
C842   C853    1.373   .     A
C843   C864    1.383   .     A
C843   C863    1.423   .     S
C843   C845    1.407   .     A
C844   C846    1.407   .     A
C844   C862    1.423   .     S
C845   I877    2.156   .     S
C845   C847    1.412   .     A
C846   I878    2.156   .     S
C846   C848    1.412   .     A
C847   C854    1.421   .     A
C847   C849    1.432   .     A
C848   C855    1.421   .     A
C848   C850    1.432   .     A
C849   C851    1.406   .     A
C850   C853    1.406   .     A
C850   C345    1.399   1_556 S
C851   C859    1.391   .     A
C851   C864    1.373   .     A
C852   O890    1.293   .     A
C852   O888    1.273   .     A
C852   C861    1.396   .     S
C853   C858    1.391   .     A
C854   I543    2.137   1_565 S
C855   C355    1.386   1_556 S
C856   H875    1.109   .     S
C856   H874    1.111   .     S
C856   H929    1.109   .     S
C856   N941    1.443   .     S
C857   H867    1.109   .     S
C857   H868    1.111   .     S
C857   H978    1.109   1_455 S
C857   N998    1.443   1_455 S
C858   H870    1.085   .     S
C858   C350    1.386   1_556 S
C859   H871    1.085   .     S
C860   C525    1.347   1_565 S
C860   I545    2.149   1_565 S
C862   O893    1.291   .     A
C862   O891    1.288   .     A
C863   O892    1.288   .     A
C863   O894    1.291   .     A
C864   H865    1.086   .     S
H866   C913    1.109   .     S
H872   N885    1.031   .     S
H873   C968    1.109   1_455 S
H876   N886    1.031   .     S
I880   C519    2.137   1_565 S
I882   C525    2.149   1_565 S
N883   Zn896   2.025   .     S
N883   N940    1.279   .     S
N883   N941    1.373   .     S
N884   Zn895   2.025   .     S
N884   N995    1.279   1_455 S
N884   N998    1.373   1_455 S
N885   N995    1.373   1_455 S
N885   C968    1.443   1_455 S
N886   N940    1.373   .     S
N886   C913    1.443   .     S
O887   Zn895   1.948   .     S
O888   Zn896   1.948   .     S
O889   Zn896   1.966   .     S
O890   Zn895   1.966   .     S
O891   Zn895   2.005   .     S
O892   Zn896   2.005   .     S
O893   Zn896   2.004   .     S
O894   Zn895   2.004   .     S
C897   O945    1.293   .     A
C897   O943    1.273   .     A
C897   C916    1.396   .     S
C898   C900    1.383   .     A
C898   H925    1.086   .     S
C898   C909    1.373   .     A
C899   C920    1.383   .     A
C899   C919    1.423   .     S
C899   C901    1.407   .     A
C900   C902    1.407   .     A
C900   C918    1.423   .     S
C901   I933    2.156   .     S
C901   C903    1.412   .     A
C902   I934    2.156   .     S
C902   C904    1.412   .     A
C903   C910    1.421   .     A
C903   C905    1.432   .     A
C904   C911    1.421   .     A
C904   C906    1.432   .     A
C905   C907    1.406   .     A
C906   C909    1.406   .     A
C906   C401    1.399   1_556 S
C907   C915    1.391   .     A
C907   C920    1.373   .     A
C908   O946    1.293   .     A
C908   O944    1.273   .     A
C908   C917    1.396   .     S
C909   C914    1.391   .     A
C910   I599    2.137   1_565 S
C911   C411    1.386   1_556 S
C912   H931    1.109   .     S
C912   H930    1.111   .     S
C912   H985    1.109   .     S
C912   N997    1.443   .     S
C913   H923    1.109   .     S
C913   H924    1.111   .     S
C914   H926    1.085   .     S
C914   C406    1.386   1_556 S
C915   H927    1.085   .     S
C916   C581    1.347   1_565 S
C916   I601    2.149   1_565 S
C918   O949    1.291   .     A
C918   O947    1.288   .     A
C919   O948    1.288   .     A
C919   O950    1.291   .     A
C920   H921    1.086   .     S
H922   C969    1.109   .     S
H928   N941    1.031   .     S
H932   N942    1.031   .     S
I936   C575    2.137   1_565 S
I938   C581    2.149   1_565 S
N939   Zn952   2.025   .     S
N939   N996    1.279   .     S
N939   N997    1.373   .     S
N940   Zn951   2.025   .     S
N942   N996    1.373   .     S
N942   C969    1.443   .     S
O943   Zn951   1.948   .     S
O944   Zn952   1.948   .     S
O945   Zn952   1.966   .     S
O946   Zn951   1.966   .     S
O947   Zn951   2.005   .     S
O948   Zn952   2.005   .     S
O949   Zn952   2.004   .     S
O950   Zn951   2.004   .     S
C953   O1001   1.293   .     A
C953   O999    1.273   .     A
C953   C972    1.396   .     S
C954   C956    1.383   .     A
C954   H981    1.086   .     S
C954   C965    1.373   .     A
C955   C976    1.383   .     A
C955   C975    1.423   .     S
C955   C957    1.407   .     A
C956   C958    1.407   .     A
C956   C974    1.423   .     S
C957   I989    2.156   .     S
C957   C959    1.412   .     A
C958   I990    2.156   .     S
C958   C960    1.412   .     A
C959   C966    1.421   .     A
C959   C961    1.432   .     A
C960   C967    1.421   .     A
C960   C962    1.432   .     A
C961   C963    1.406   .     A
C962   C965    1.406   .     A
C962   C457    1.399   1_556 S
C963   C971    1.391   .     A
C963   C976    1.373   .     A
C964   O1002   1.293   .     A
C964   O1000   1.273   .     A
C964   C973    1.396   .     S
C965   C970    1.391   .     A
C966   I655    2.137   1_565 S
C967   C467    1.386   1_556 S
C968   H987    1.109   .     S
C968   H986    1.111   .     S
C968   H873    1.109   1_655 S
C968   N885    1.443   1_655 S
C969   H979    1.109   .     S
C969   H980    1.111   .     S
C970   H982    1.085   .     S
C970   C462    1.386   1_556 S
C971   H983    1.085   .     S
C972   C637    1.347   1_565 S
C972   I657    2.149   1_565 S
C974   O1005   1.291   .     A
C974   O1003   1.288   .     A
C975   O1004   1.288   .     A
C975   O1006   1.291   .     A
C976   H977    1.086   .     S
H978   C857    1.109   1_655 S
H984   N997    1.031   .     S
H988   N998    1.031   .     S
I992   C631    2.137   1_565 S
I994   C637    2.149   1_565 S
N995   Zn1008  2.025   .     S
N995   N884    1.279   1_655 S
N995   N885    1.373   1_655 S
N996   Zn1007  2.025   .     S
N998   N884    1.373   1_655 S
N998   C857    1.443   1_655 S
O999   Zn1007  1.948   .     S
O1000  Zn1008  1.948   .     S
O1001  Zn1008  1.966   .     S
O1002  Zn1007  1.966   .     S
O1003  Zn1007  2.005   .     S
O1004  Zn1008  2.005   .     S
O1005  Zn1008  2.004   .     S
O1006  Zn1007  2.004   .     S
