data_str_m3_o1_o2_pcu_sym.84
_audit_creation_date              2020-01-03
_audit_creation_method            'Materials Studio'
_symmetry_space_group_name_H-M    'P1'
_symmetry_Int_Tables_number       1
_symmetry_cell_setting            triclinic
loop_
_symmetry_equiv_pos_as_xyz
  x,y,z
_cell_length_a                    32.1639
_cell_length_b                    29.8164
_cell_length_c                    30.0071
_cell_angle_alpha                 90.0000
_cell_angle_beta                  92.2031
_cell_angle_gamma                 90.0001
loop_
_atom_site_label
_atom_site_type_symbol
_atom_site_fract_x
_atom_site_fract_y
_atom_site_fract_z
_atom_site_U_iso_or_equiv
_atom_site_adp_type
_atom_site_occupancy
C1     C     0.08672   0.16668   0.24995   0.00000  Uiso   1.00
C2     C     0.31204   0.20764   0.25006   0.00000  Uiso   1.00
C3     C     0.31205   0.12585   0.24990   0.00000  Uiso   1.00
C4     C     0.02129   0.20764   0.24995   0.00000  Uiso   1.00
C5     C     0.18085   0.20467   0.04775   0.00000  Uiso   1.00
C6     C     0.18116   0.12913   0.45357   0.00000  Uiso   1.00
C7     C     0.15246   0.20466   0.45225   0.00000  Uiso   1.00
C8     C     0.15218   0.12912   0.04643   0.00000  Uiso   1.00
C9     C     0.18055   0.20471   0.09374   0.00000  Uiso   1.00
C10    C     0.18094   0.12893   0.40756   0.00000  Uiso   1.00
C11    C     0.15276   0.20470   0.40626   0.00000  Uiso   1.00
C12    C     0.24661   0.16668   0.25006   0.00000  Uiso   1.00
C13    C     0.15241   0.12892   0.09244   0.00000  Uiso   1.00
C14    C     0.16650   0.16676   0.11610   0.00000  Uiso   1.00
C15    C     0.16683   0.16676   0.38390   0.00000  Uiso   1.00
C16    C     0.16657   0.16692   0.02407   0.00000  Uiso   1.00
C17    C     0.16675   0.16692   0.47593   0.00000  Uiso   1.00
C18    C     0.29082   0.16673   0.25000   0.00000  Uiso   1.00
C19    C     0.04251   0.16673   0.25000   0.00000  Uiso   1.00
C20    C     0.22795   0.04784   0.30240   0.00000  Uiso   1.00
C21    C     0.11901   0.28516   0.18364   0.00000  Uiso   1.00
C22    C     0.10539   0.04784   0.19760   0.00000  Uiso   1.00
C23    C     0.16655   0.16668   0.16403   0.00000  Uiso   1.00
C24    C     0.21432   0.28516   0.31636   0.00000  Uiso   1.00
C25    C     0.16678   0.16668   0.33597   0.00000  Uiso   1.00
C26    C     0.19413   0.02390   0.27725   0.00000  Uiso   1.00
C27    C     0.14177   0.30934   0.22012   0.00000  Uiso   1.00
C28    C     0.13920   0.02390   0.22275   0.00000  Uiso   1.00
C29    C     0.19156   0.30934   0.27988   0.00000  Uiso   1.00
C30    C     0.02128   0.12585   0.25010   0.00000  Uiso   1.00
H31    H     0.22324   0.08049   0.31641   0.00000  Uiso   1.00
H32    H     0.19222   0.09952   0.39062   0.00000  Uiso   1.00
H33    H     0.14146   0.23402   0.38823   0.00000  Uiso   1.00
H34    H     0.14114   0.09951   0.10938   0.00000  Uiso   1.00
H35    H     0.03737   0.09395   0.25036   0.00000  Uiso   1.00
H36    H     0.29592   0.23955   0.25013   0.00000  Uiso   1.00
H37    H     0.29596   0.09395   0.24963   0.00000  Uiso   1.00
H38    H     0.03742   0.23955   0.24988   0.00000  Uiso   1.00
H39    H     0.10336   0.25396   0.18951   0.00000  Uiso   1.00
H40    H     0.11010   0.08049   0.18359   0.00000  Uiso   1.00
H41    H     0.22997   0.25395   0.31049   0.00000  Uiso   1.00
H42    H     0.19259   0.23381   0.03072   0.00000  Uiso   1.00
H43    H     0.19287   0.10004   0.47169   0.00000  Uiso   1.00
H44    H     0.14071   0.23379   0.46928   0.00000  Uiso   1.00
H45    H     0.14049   0.10003   0.02831   0.00000  Uiso   1.00
H46    H     0.19185   0.23404   0.11177   0.00000  Uiso   1.00
N47    N     0.16667   0.28573   0.25000   0.00000  Uiso   1.00
N48    N     0.16667   0.04760   0.25000   0.00000  Uiso   1.00
O49    O     0.10559   0.20487   0.25000   0.00000  Uiso   1.00
O50    O     0.11809   0.30000   0.14568   0.00000  Uiso   1.00
O51    O     0.07078   0.03123   0.19299   0.00000  Uiso   1.00
O52    O     0.21525   0.30001   0.35432   0.00000  Uiso   1.00
O53    O     0.22774   0.12846   0.25001   0.00000  Uiso   1.00
O54    O     0.22774   0.20487   0.25001   0.00000  Uiso   1.00
O55    O     0.10559   0.12846   0.25000   0.00000  Uiso   1.00
O56    O     0.16666   0.20489   0.18453   0.00000  Uiso   1.00
O57    O     0.16667   0.12845   0.31547   0.00000  Uiso   1.00
O58    O     0.16667   0.20489   0.31547   0.00000  Uiso   1.00
O59    O     0.16666   0.12845   0.18453   0.00000  Uiso   1.00
O60    O     0.26256   0.03124   0.30701   0.00000  Uiso   1.00
Zn61   Zn    0.16667   0.21771   0.25000   0.00000  Uiso   1.00
Zn62   Zn    0.16667   0.11563   0.25000   0.00000  Uiso   1.00
C63    C     0.42005   0.16668   0.24995   0.00000  Uiso   1.00
C64    C     0.64537   0.20764   0.25006   0.00000  Uiso   1.00
C65    C     0.64538   0.12585   0.24990   0.00000  Uiso   1.00
C66    C     0.35463   0.20764   0.24995   0.00000  Uiso   1.00
C67    C     0.51418   0.20467   0.04775   0.00000  Uiso   1.00
C68    C     0.51450   0.12913   0.45357   0.00000  Uiso   1.00
C69    C     0.48579   0.20466   0.45225   0.00000  Uiso   1.00
C70    C     0.48551   0.12912   0.04643   0.00000  Uiso   1.00
C71    C     0.51389   0.20471   0.09374   0.00000  Uiso   1.00
C72    C     0.51427   0.12893   0.40756   0.00000  Uiso   1.00
C73    C     0.48609   0.20470   0.40626   0.00000  Uiso   1.00
C74    C     0.57995   0.16668   0.25006   0.00000  Uiso   1.00
C75    C     0.48574   0.12892   0.09244   0.00000  Uiso   1.00
C76    C     0.49983   0.16676   0.11610   0.00000  Uiso   1.00
C77    C     0.50017   0.16676   0.38390   0.00000  Uiso   1.00
C78    C     0.49991   0.16692   0.02407   0.00000  Uiso   1.00
C79    C     0.50009   0.16692   0.47593   0.00000  Uiso   1.00
C80    C     0.62415   0.16673   0.25000   0.00000  Uiso   1.00
C81    C     0.37585   0.16673   0.25000   0.00000  Uiso   1.00
C82    C     0.56128   0.04784   0.30240   0.00000  Uiso   1.00
C83    C     0.45235   0.28516   0.18364   0.00000  Uiso   1.00
C84    C     0.43872   0.04784   0.19760   0.00000  Uiso   1.00
C85    C     0.49989   0.16668   0.16403   0.00000  Uiso   1.00
C86    C     0.54765   0.28516   0.31636   0.00000  Uiso   1.00
C87    C     0.50011   0.16668   0.33597   0.00000  Uiso   1.00
C88    C     0.52747   0.02390   0.27725   0.00000  Uiso   1.00
C89    C     0.47511   0.30934   0.22012   0.00000  Uiso   1.00
C90    C     0.47253   0.02390   0.22275   0.00000  Uiso   1.00
C91    C     0.52489   0.30934   0.27988   0.00000  Uiso   1.00
C92    C     0.35462   0.12585   0.25010   0.00000  Uiso   1.00
H93    H     0.55657   0.08049   0.31641   0.00000  Uiso   1.00
H94    H     0.52555   0.09952   0.39062   0.00000  Uiso   1.00
H95    H     0.47479   0.23402   0.38823   0.00000  Uiso   1.00
H96    H     0.47447   0.09951   0.10938   0.00000  Uiso   1.00
H97    H     0.37070   0.09395   0.25036   0.00000  Uiso   1.00
H98    H     0.62925   0.23955   0.25013   0.00000  Uiso   1.00
H99    H     0.62930   0.09395   0.24963   0.00000  Uiso   1.00
H100   H     0.37075   0.23955   0.24988   0.00000  Uiso   1.00
H101   H     0.43669   0.25396   0.18951   0.00000  Uiso   1.00
H102   H     0.44343   0.08049   0.18359   0.00000  Uiso   1.00
H103   H     0.56330   0.25395   0.31049   0.00000  Uiso   1.00
H104   H     0.52592   0.23381   0.03072   0.00000  Uiso   1.00
H105   H     0.52620   0.10004   0.47169   0.00000  Uiso   1.00
H106   H     0.47404   0.23379   0.46928   0.00000  Uiso   1.00
H107   H     0.47382   0.10003   0.02831   0.00000  Uiso   1.00
H108   H     0.52518   0.23404   0.11177   0.00000  Uiso   1.00
N109   N     0.50000   0.28573   0.25000   0.00000  Uiso   1.00
N110   N     0.50000   0.04760   0.25000   0.00000  Uiso   1.00
O111   O     0.43892   0.20487   0.25000   0.00000  Uiso   1.00
O112   O     0.45142   0.30000   0.14568   0.00000  Uiso   1.00
O113   O     0.40411   0.03123   0.19299   0.00000  Uiso   1.00
O114   O     0.54858   0.30001   0.35432   0.00000  Uiso   1.00
O115   O     0.56108   0.12846   0.25001   0.00000  Uiso   1.00
O116   O     0.56108   0.20487   0.25001   0.00000  Uiso   1.00
O117   O     0.43892   0.12846   0.25000   0.00000  Uiso   1.00
O118   O     0.50000   0.20489   0.18453   0.00000  Uiso   1.00
O119   O     0.50000   0.12845   0.31547   0.00000  Uiso   1.00
O120   O     0.50000   0.20489   0.31547   0.00000  Uiso   1.00
O121   O     0.50000   0.12845   0.18453   0.00000  Uiso   1.00
O122   O     0.59589   0.03124   0.30701   0.00000  Uiso   1.00
Zn123  Zn    0.50000   0.21771   0.25000   0.00000  Uiso   1.00
Zn124  Zn    0.50000   0.11563   0.25000   0.00000  Uiso   1.00
C125   C     0.75339   0.16668   0.24995   0.00000  Uiso   1.00
C126   C     0.97871   0.20764   0.25006   0.00000  Uiso   1.00
C127   C     0.97872   0.12585   0.24990   0.00000  Uiso   1.00
C128   C     0.68796   0.20764   0.24995   0.00000  Uiso   1.00
C129   C     0.84752   0.20467   0.04775   0.00000  Uiso   1.00
C130   C     0.84783   0.12913   0.45357   0.00000  Uiso   1.00
C131   C     0.81913   0.20466   0.45225   0.00000  Uiso   1.00
C132   C     0.81885   0.12912   0.04643   0.00000  Uiso   1.00
C133   C     0.84722   0.20471   0.09374   0.00000  Uiso   1.00
C134   C     0.84760   0.12893   0.40756   0.00000  Uiso   1.00
C135   C     0.81942   0.20470   0.40626   0.00000  Uiso   1.00
C136   C     0.91328   0.16668   0.25006   0.00000  Uiso   1.00
C137   C     0.81908   0.12892   0.09244   0.00000  Uiso   1.00
C138   C     0.83316   0.16676   0.11610   0.00000  Uiso   1.00
C139   C     0.83350   0.16676   0.38390   0.00000  Uiso   1.00
C140   C     0.83324   0.16692   0.02407   0.00000  Uiso   1.00
C141   C     0.83342   0.16692   0.47593   0.00000  Uiso   1.00
C142   C     0.95749   0.16673   0.25000   0.00000  Uiso   1.00
C143   C     0.70918   0.16673   0.25000   0.00000  Uiso   1.00
C144   C     0.89461   0.04784   0.30240   0.00000  Uiso   1.00
C145   C     0.78568   0.28516   0.18364   0.00000  Uiso   1.00
C146   C     0.77205   0.04784   0.19760   0.00000  Uiso   1.00
C147   C     0.83322   0.16668   0.16403   0.00000  Uiso   1.00
C148   C     0.88099   0.28516   0.31636   0.00000  Uiso   1.00
C149   C     0.83345   0.16668   0.33597   0.00000  Uiso   1.00
C150   C     0.86080   0.02390   0.27725   0.00000  Uiso   1.00
C151   C     0.80844   0.30934   0.22012   0.00000  Uiso   1.00
C152   C     0.80587   0.02390   0.22275   0.00000  Uiso   1.00
C153   C     0.85823   0.30934   0.27988   0.00000  Uiso   1.00
C154   C     0.68795   0.12585   0.25010   0.00000  Uiso   1.00
H155   H     0.88990   0.08049   0.31641   0.00000  Uiso   1.00
H156   H     0.85889   0.09952   0.39062   0.00000  Uiso   1.00
H157   H     0.80812   0.23402   0.38823   0.00000  Uiso   1.00
H158   H     0.80781   0.09951   0.10938   0.00000  Uiso   1.00
H159   H     0.70404   0.09395   0.25036   0.00000  Uiso   1.00
H160   H     0.96258   0.23955   0.25013   0.00000  Uiso   1.00
H161   H     0.96263   0.09395   0.24963   0.00000  Uiso   1.00
H162   H     0.70408   0.23955   0.24988   0.00000  Uiso   1.00
H163   H     0.77003   0.25396   0.18951   0.00000  Uiso   1.00
H164   H     0.77676   0.08049   0.18359   0.00000  Uiso   1.00
H165   H     0.89664   0.25395   0.31049   0.00000  Uiso   1.00
H166   H     0.85926   0.23381   0.03072   0.00000  Uiso   1.00
H167   H     0.85953   0.10004   0.47169   0.00000  Uiso   1.00
H168   H     0.80737   0.23379   0.46928   0.00000  Uiso   1.00
H169   H     0.80716   0.10003   0.02831   0.00000  Uiso   1.00
H170   H     0.85851   0.23404   0.11177   0.00000  Uiso   1.00
N171   N     0.83333   0.28573   0.25000   0.00000  Uiso   1.00
N172   N     0.83333   0.04760   0.25000   0.00000  Uiso   1.00
O173   O     0.77226   0.20487   0.25000   0.00000  Uiso   1.00
O174   O     0.78476   0.30000   0.14568   0.00000  Uiso   1.00
O175   O     0.73745   0.03123   0.19299   0.00000  Uiso   1.00
O176   O     0.88191   0.30001   0.35432   0.00000  Uiso   1.00
O177   O     0.89441   0.12846   0.25001   0.00000  Uiso   1.00
O178   O     0.89441   0.20487   0.25001   0.00000  Uiso   1.00
O179   O     0.77226   0.12846   0.25000   0.00000  Uiso   1.00
O180   O     0.83333   0.20489   0.18453   0.00000  Uiso   1.00
O181   O     0.83334   0.12845   0.31547   0.00000  Uiso   1.00
O182   O     0.83334   0.20489   0.31547   0.00000  Uiso   1.00
O183   O     0.83333   0.12845   0.18453   0.00000  Uiso   1.00
O184   O     0.92922   0.03124   0.30701   0.00000  Uiso   1.00
Zn185  Zn    0.83333   0.21771   0.25000   0.00000  Uiso   1.00
Zn186  Zn    0.83333   0.11563   0.25000   0.00000  Uiso   1.00
C187   C     0.08672   0.50001   0.24995   0.00000  Uiso   1.00
C188   C     0.31204   0.54097   0.25006   0.00000  Uiso   1.00
C189   C     0.31205   0.45918   0.24990   0.00000  Uiso   1.00
C190   C     0.02129   0.54097   0.24995   0.00000  Uiso   1.00
C191   C     0.18085   0.53800   0.04775   0.00000  Uiso   1.00
C192   C     0.18116   0.46247   0.45357   0.00000  Uiso   1.00
C193   C     0.15246   0.53799   0.45225   0.00000  Uiso   1.00
C194   C     0.15218   0.46246   0.04643   0.00000  Uiso   1.00
C195   C     0.18055   0.53804   0.09374   0.00000  Uiso   1.00
C196   C     0.18094   0.46226   0.40756   0.00000  Uiso   1.00
C197   C     0.15276   0.53803   0.40626   0.00000  Uiso   1.00
C198   C     0.24661   0.50001   0.25006   0.00000  Uiso   1.00
C199   C     0.15241   0.46225   0.09244   0.00000  Uiso   1.00
C200   C     0.16650   0.50009   0.11610   0.00000  Uiso   1.00
C201   C     0.16683   0.50009   0.38390   0.00000  Uiso   1.00
C202   C     0.16657   0.50025   0.02407   0.00000  Uiso   1.00
C203   C     0.16675   0.50025   0.47593   0.00000  Uiso   1.00
C204   C     0.29082   0.50006   0.25000   0.00000  Uiso   1.00
C205   C     0.04251   0.50006   0.25000   0.00000  Uiso   1.00
C206   C     0.22795   0.38118   0.30240   0.00000  Uiso   1.00
C207   C     0.11901   0.61850   0.18364   0.00000  Uiso   1.00
C208   C     0.10539   0.38118   0.19760   0.00000  Uiso   1.00
C209   C     0.16655   0.50001   0.16403   0.00000  Uiso   1.00
C210   C     0.21432   0.61850   0.31636   0.00000  Uiso   1.00
C211   C     0.16678   0.50001   0.33597   0.00000  Uiso   1.00
C212   C     0.19413   0.35723   0.27725   0.00000  Uiso   1.00
C213   C     0.14177   0.64268   0.22012   0.00000  Uiso   1.00
C214   C     0.13920   0.35723   0.22275   0.00000  Uiso   1.00
C215   C     0.19156   0.64268   0.27988   0.00000  Uiso   1.00
C216   C     0.02128   0.45918   0.25010   0.00000  Uiso   1.00
H217   H     0.22324   0.41383   0.31641   0.00000  Uiso   1.00
H218   H     0.19222   0.43286   0.39062   0.00000  Uiso   1.00
H219   H     0.14146   0.56736   0.38823   0.00000  Uiso   1.00
H220   H     0.14114   0.43284   0.10938   0.00000  Uiso   1.00
H221   H     0.03737   0.42728   0.25036   0.00000  Uiso   1.00
H222   H     0.29592   0.57288   0.25013   0.00000  Uiso   1.00
H223   H     0.29596   0.42728   0.24963   0.00000  Uiso   1.00
H224   H     0.03742   0.57288   0.24988   0.00000  Uiso   1.00
H225   H     0.10336   0.58729   0.18951   0.00000  Uiso   1.00
H226   H     0.11010   0.41383   0.18359   0.00000  Uiso   1.00
H227   H     0.22997   0.58729   0.31049   0.00000  Uiso   1.00
H228   H     0.19259   0.56714   0.03072   0.00000  Uiso   1.00
H229   H     0.19287   0.43338   0.47169   0.00000  Uiso   1.00
H230   H     0.14071   0.56713   0.46928   0.00000  Uiso   1.00
H231   H     0.14049   0.43336   0.02831   0.00000  Uiso   1.00
H232   H     0.19185   0.56737   0.11177   0.00000  Uiso   1.00
N233   N     0.16667   0.61907   0.25000   0.00000  Uiso   1.00
N234   N     0.16667   0.38093   0.25000   0.00000  Uiso   1.00
O235   O     0.10559   0.53821   0.25000   0.00000  Uiso   1.00
O236   O     0.11809   0.63334   0.14568   0.00000  Uiso   1.00
O237   O     0.07078   0.36457   0.19299   0.00000  Uiso   1.00
O238   O     0.21525   0.63334   0.35432   0.00000  Uiso   1.00
O239   O     0.22774   0.46179   0.25001   0.00000  Uiso   1.00
O240   O     0.22774   0.53821   0.25001   0.00000  Uiso   1.00
O241   O     0.10559   0.46179   0.25000   0.00000  Uiso   1.00
O242   O     0.16666   0.53822   0.18453   0.00000  Uiso   1.00
O243   O     0.16667   0.46178   0.31547   0.00000  Uiso   1.00
O244   O     0.16667   0.53822   0.31547   0.00000  Uiso   1.00
O245   O     0.16666   0.46178   0.18453   0.00000  Uiso   1.00
O246   O     0.26256   0.36457   0.30701   0.00000  Uiso   1.00
Zn247  Zn    0.16667   0.55104   0.25000   0.00000  Uiso   1.00
Zn248  Zn    0.16667   0.44896   0.25000   0.00000  Uiso   1.00
C249   C     0.42005   0.50001   0.24995   0.00000  Uiso   1.00
C250   C     0.64537   0.54097   0.25006   0.00000  Uiso   1.00
C251   C     0.64538   0.45918   0.24990   0.00000  Uiso   1.00
C252   C     0.35463   0.54097   0.24995   0.00000  Uiso   1.00
C253   C     0.51418   0.53800   0.04775   0.00000  Uiso   1.00
C254   C     0.51450   0.46247   0.45357   0.00000  Uiso   1.00
C255   C     0.48579   0.53799   0.45225   0.00000  Uiso   1.00
C256   C     0.48551   0.46246   0.04643   0.00000  Uiso   1.00
C257   C     0.51389   0.53804   0.09374   0.00000  Uiso   1.00
C258   C     0.51427   0.46226   0.40756   0.00000  Uiso   1.00
C259   C     0.48609   0.53803   0.40626   0.00000  Uiso   1.00
C260   C     0.57995   0.50001   0.25006   0.00000  Uiso   1.00
C261   C     0.48574   0.46225   0.09244   0.00000  Uiso   1.00
C262   C     0.49983   0.50009   0.11610   0.00000  Uiso   1.00
C263   C     0.50017   0.50009   0.38390   0.00000  Uiso   1.00
C264   C     0.49991   0.50025   0.02407   0.00000  Uiso   1.00
C265   C     0.50009   0.50025   0.47593   0.00000  Uiso   1.00
C266   C     0.62415   0.50006   0.25000   0.00000  Uiso   1.00
C267   C     0.37585   0.50006   0.25000   0.00000  Uiso   1.00
C268   C     0.56128   0.38118   0.30240   0.00000  Uiso   1.00
C269   C     0.45235   0.61850   0.18364   0.00000  Uiso   1.00
C270   C     0.43872   0.38118   0.19760   0.00000  Uiso   1.00
C271   C     0.49989   0.50001   0.16403   0.00000  Uiso   1.00
C272   C     0.54765   0.61850   0.31636   0.00000  Uiso   1.00
C273   C     0.50011   0.50001   0.33597   0.00000  Uiso   1.00
C274   C     0.52747   0.35723   0.27725   0.00000  Uiso   1.00
C275   C     0.47511   0.64268   0.22012   0.00000  Uiso   1.00
C276   C     0.47253   0.35723   0.22275   0.00000  Uiso   1.00
C277   C     0.52489   0.64268   0.27988   0.00000  Uiso   1.00
C278   C     0.35462   0.45918   0.25010   0.00000  Uiso   1.00
H279   H     0.55657   0.41383   0.31641   0.00000  Uiso   1.00
H280   H     0.52555   0.43286   0.39062   0.00000  Uiso   1.00
H281   H     0.47479   0.56736   0.38823   0.00000  Uiso   1.00
H282   H     0.47447   0.43284   0.10938   0.00000  Uiso   1.00
H283   H     0.37070   0.42728   0.25036   0.00000  Uiso   1.00
H284   H     0.62925   0.57288   0.25013   0.00000  Uiso   1.00
H285   H     0.62930   0.42728   0.24963   0.00000  Uiso   1.00
H286   H     0.37075   0.57288   0.24988   0.00000  Uiso   1.00
H287   H     0.43669   0.58729   0.18951   0.00000  Uiso   1.00
H288   H     0.44343   0.41383   0.18359   0.00000  Uiso   1.00
H289   H     0.56330   0.58729   0.31049   0.00000  Uiso   1.00
H290   H     0.52592   0.56714   0.03072   0.00000  Uiso   1.00
H291   H     0.52620   0.43338   0.47169   0.00000  Uiso   1.00
H292   H     0.47404   0.56713   0.46928   0.00000  Uiso   1.00
H293   H     0.47382   0.43336   0.02831   0.00000  Uiso   1.00
H294   H     0.52518   0.56737   0.11177   0.00000  Uiso   1.00
N295   N     0.50000   0.61907   0.25000   0.00000  Uiso   1.00
N296   N     0.50000   0.38093   0.25000   0.00000  Uiso   1.00
O297   O     0.43892   0.53821   0.25000   0.00000  Uiso   1.00
O298   O     0.45142   0.63334   0.14568   0.00000  Uiso   1.00
O299   O     0.40411   0.36457   0.19299   0.00000  Uiso   1.00
O300   O     0.54858   0.63334   0.35432   0.00000  Uiso   1.00
O301   O     0.56108   0.46179   0.25001   0.00000  Uiso   1.00
O302   O     0.56108   0.53821   0.25001   0.00000  Uiso   1.00
O303   O     0.43892   0.46179   0.25000   0.00000  Uiso   1.00
O304   O     0.50000   0.53822   0.18453   0.00000  Uiso   1.00
O305   O     0.50000   0.46178   0.31547   0.00000  Uiso   1.00
O306   O     0.50000   0.53822   0.31547   0.00000  Uiso   1.00
O307   O     0.50000   0.46178   0.18453   0.00000  Uiso   1.00
O308   O     0.59589   0.36457   0.30701   0.00000  Uiso   1.00
Zn309  Zn    0.50000   0.55104   0.25000   0.00000  Uiso   1.00
Zn310  Zn    0.50000   0.44896   0.25000   0.00000  Uiso   1.00
C311   C     0.75339   0.50001   0.24995   0.00000  Uiso   1.00
C312   C     0.97871   0.54097   0.25006   0.00000  Uiso   1.00
C313   C     0.97872   0.45918   0.24990   0.00000  Uiso   1.00
C314   C     0.68796   0.54097   0.24995   0.00000  Uiso   1.00
C315   C     0.84752   0.53800   0.04775   0.00000  Uiso   1.00
C316   C     0.84783   0.46247   0.45357   0.00000  Uiso   1.00
C317   C     0.81913   0.53799   0.45225   0.00000  Uiso   1.00
C318   C     0.81885   0.46246   0.04643   0.00000  Uiso   1.00
C319   C     0.84722   0.53804   0.09374   0.00000  Uiso   1.00
C320   C     0.84760   0.46226   0.40756   0.00000  Uiso   1.00
C321   C     0.81942   0.53803   0.40626   0.00000  Uiso   1.00
C322   C     0.91328   0.50001   0.25006   0.00000  Uiso   1.00
C323   C     0.81908   0.46225   0.09244   0.00000  Uiso   1.00
C324   C     0.83316   0.50009   0.11610   0.00000  Uiso   1.00
C325   C     0.83350   0.50009   0.38390   0.00000  Uiso   1.00
C326   C     0.83324   0.50025   0.02407   0.00000  Uiso   1.00
C327   C     0.83342   0.50025   0.47593   0.00000  Uiso   1.00
C328   C     0.95749   0.50006   0.25000   0.00000  Uiso   1.00
C329   C     0.70918   0.50006   0.25000   0.00000  Uiso   1.00
C330   C     0.89461   0.38118   0.30240   0.00000  Uiso   1.00
C331   C     0.78568   0.61850   0.18364   0.00000  Uiso   1.00
C332   C     0.77205   0.38118   0.19760   0.00000  Uiso   1.00
C333   C     0.83322   0.50001   0.16403   0.00000  Uiso   1.00
C334   C     0.88099   0.61850   0.31636   0.00000  Uiso   1.00
C335   C     0.83345   0.50001   0.33597   0.00000  Uiso   1.00
C336   C     0.86080   0.35723   0.27725   0.00000  Uiso   1.00
C337   C     0.80844   0.64268   0.22012   0.00000  Uiso   1.00
C338   C     0.80587   0.35723   0.22275   0.00000  Uiso   1.00
C339   C     0.85823   0.64268   0.27988   0.00000  Uiso   1.00
C340   C     0.68795   0.45918   0.25010   0.00000  Uiso   1.00
H341   H     0.88990   0.41383   0.31641   0.00000  Uiso   1.00
H342   H     0.85889   0.43286   0.39062   0.00000  Uiso   1.00
H343   H     0.80812   0.56736   0.38823   0.00000  Uiso   1.00
H344   H     0.80781   0.43284   0.10938   0.00000  Uiso   1.00
H345   H     0.70404   0.42728   0.25036   0.00000  Uiso   1.00
H346   H     0.96258   0.57288   0.25013   0.00000  Uiso   1.00
H347   H     0.96263   0.42728   0.24963   0.00000  Uiso   1.00
H348   H     0.70408   0.57288   0.24988   0.00000  Uiso   1.00
H349   H     0.77003   0.58729   0.18951   0.00000  Uiso   1.00
H350   H     0.77676   0.41383   0.18359   0.00000  Uiso   1.00
H351   H     0.89664   0.58729   0.31049   0.00000  Uiso   1.00
H352   H     0.85926   0.56714   0.03072   0.00000  Uiso   1.00
H353   H     0.85953   0.43338   0.47169   0.00000  Uiso   1.00
H354   H     0.80737   0.56713   0.46928   0.00000  Uiso   1.00
H355   H     0.80716   0.43336   0.02831   0.00000  Uiso   1.00
H356   H     0.85851   0.56737   0.11177   0.00000  Uiso   1.00
N357   N     0.83333   0.61907   0.25000   0.00000  Uiso   1.00
N358   N     0.83333   0.38093   0.25000   0.00000  Uiso   1.00
O359   O     0.77226   0.53821   0.25000   0.00000  Uiso   1.00
O360   O     0.78476   0.63334   0.14568   0.00000  Uiso   1.00
O361   O     0.73745   0.36457   0.19299   0.00000  Uiso   1.00
O362   O     0.88191   0.63334   0.35432   0.00000  Uiso   1.00
O363   O     0.89441   0.46179   0.25001   0.00000  Uiso   1.00
O364   O     0.89441   0.53821   0.25001   0.00000  Uiso   1.00
O365   O     0.77226   0.46179   0.25000   0.00000  Uiso   1.00
O366   O     0.83333   0.53822   0.18453   0.00000  Uiso   1.00
O367   O     0.83334   0.46178   0.31547   0.00000  Uiso   1.00
O368   O     0.83334   0.53822   0.31547   0.00000  Uiso   1.00
O369   O     0.83333   0.46178   0.18453   0.00000  Uiso   1.00
O370   O     0.92922   0.36457   0.30701   0.00000  Uiso   1.00
Zn371  Zn    0.83333   0.55104   0.25000   0.00000  Uiso   1.00
Zn372  Zn    0.83333   0.44896   0.25000   0.00000  Uiso   1.00
C373   C     0.08672   0.83334   0.24995   0.00000  Uiso   1.00
C374   C     0.31204   0.87431   0.25006   0.00000  Uiso   1.00
C375   C     0.31205   0.79252   0.24990   0.00000  Uiso   1.00
C376   C     0.02129   0.87431   0.24995   0.00000  Uiso   1.00
C377   C     0.18085   0.87133   0.04775   0.00000  Uiso   1.00
C378   C     0.18116   0.79580   0.45357   0.00000  Uiso   1.00
C379   C     0.15246   0.87133   0.45225   0.00000  Uiso   1.00
C380   C     0.15218   0.79579   0.04643   0.00000  Uiso   1.00
C381   C     0.18055   0.87137   0.09374   0.00000  Uiso   1.00
C382   C     0.18094   0.79559   0.40756   0.00000  Uiso   1.00
C383   C     0.15276   0.87137   0.40626   0.00000  Uiso   1.00
C384   C     0.24661   0.83334   0.25006   0.00000  Uiso   1.00
C385   C     0.15241   0.79559   0.09244   0.00000  Uiso   1.00
C386   C     0.16650   0.83342   0.11610   0.00000  Uiso   1.00
C387   C     0.16683   0.83342   0.38390   0.00000  Uiso   1.00
C388   C     0.16657   0.83358   0.02407   0.00000  Uiso   1.00
C389   C     0.16675   0.83358   0.47593   0.00000  Uiso   1.00
C390   C     0.29082   0.83339   0.25000   0.00000  Uiso   1.00
C391   C     0.04251   0.83339   0.25000   0.00000  Uiso   1.00
C392   C     0.22795   0.71451   0.30240   0.00000  Uiso   1.00
C393   C     0.11901   0.95183   0.18364   0.00000  Uiso   1.00
C394   C     0.10539   0.71451   0.19760   0.00000  Uiso   1.00
C395   C     0.16655   0.83334   0.16403   0.00000  Uiso   1.00
C396   C     0.21432   0.95183   0.31636   0.00000  Uiso   1.00
C397   C     0.16678   0.83334   0.33597   0.00000  Uiso   1.00
C398   C     0.19413   0.69057   0.27725   0.00000  Uiso   1.00
C399   C     0.14177   0.97601   0.22012   0.00000  Uiso   1.00
C400   C     0.13920   0.69057   0.22275   0.00000  Uiso   1.00
C401   C     0.19156   0.97601   0.27988   0.00000  Uiso   1.00
C402   C     0.02128   0.79252   0.25010   0.00000  Uiso   1.00
H403   H     0.22324   0.74716   0.31641   0.00000  Uiso   1.00
H404   H     0.19222   0.76619   0.39062   0.00000  Uiso   1.00
H405   H     0.14146   0.90069   0.38823   0.00000  Uiso   1.00
H406   H     0.14114   0.76618   0.10938   0.00000  Uiso   1.00
H407   H     0.03737   0.76062   0.25036   0.00000  Uiso   1.00
H408   H     0.29592   0.90622   0.25013   0.00000  Uiso   1.00
H409   H     0.29596   0.76062   0.24963   0.00000  Uiso   1.00
H410   H     0.03742   0.90622   0.24988   0.00000  Uiso   1.00
H411   H     0.10336   0.92062   0.18951   0.00000  Uiso   1.00
H412   H     0.11010   0.74716   0.18359   0.00000  Uiso   1.00
H413   H     0.22997   0.92062   0.31049   0.00000  Uiso   1.00
H414   H     0.19259   0.90048   0.03072   0.00000  Uiso   1.00
H415   H     0.19287   0.76671   0.47169   0.00000  Uiso   1.00
H416   H     0.14071   0.90046   0.46928   0.00000  Uiso   1.00
H417   H     0.14049   0.76670   0.02831   0.00000  Uiso   1.00
H418   H     0.19185   0.90070   0.11177   0.00000  Uiso   1.00
N419   N     0.16667   0.95240   0.25000   0.00000  Uiso   1.00
N420   N     0.16667   0.71427   0.25000   0.00000  Uiso   1.00
O421   O     0.10559   0.87154   0.25000   0.00000  Uiso   1.00
O422   O     0.11809   0.96667   0.14568   0.00000  Uiso   1.00
O423   O     0.07078   0.69790   0.19299   0.00000  Uiso   1.00
O424   O     0.21525   0.96667   0.35432   0.00000  Uiso   1.00
O425   O     0.22774   0.79513   0.25001   0.00000  Uiso   1.00
O426   O     0.22774   0.87154   0.25001   0.00000  Uiso   1.00
O427   O     0.10559   0.79513   0.25000   0.00000  Uiso   1.00
O428   O     0.16666   0.87155   0.18453   0.00000  Uiso   1.00
O429   O     0.16667   0.79511   0.31547   0.00000  Uiso   1.00
O430   O     0.16667   0.87155   0.31547   0.00000  Uiso   1.00
O431   O     0.16666   0.79511   0.18453   0.00000  Uiso   1.00
O432   O     0.26256   0.69790   0.30701   0.00000  Uiso   1.00
Zn433  Zn    0.16667   0.88437   0.25000   0.00000  Uiso   1.00
Zn434  Zn    0.16667   0.78229   0.25000   0.00000  Uiso   1.00
C435   C     0.42005   0.83334   0.24995   0.00000  Uiso   1.00
C436   C     0.64537   0.87431   0.25006   0.00000  Uiso   1.00
C437   C     0.64538   0.79252   0.24990   0.00000  Uiso   1.00
C438   C     0.35463   0.87431   0.24995   0.00000  Uiso   1.00
C439   C     0.51418   0.87133   0.04775   0.00000  Uiso   1.00
C440   C     0.51450   0.79580   0.45357   0.00000  Uiso   1.00
C441   C     0.48579   0.87133   0.45225   0.00000  Uiso   1.00
C442   C     0.48551   0.79579   0.04643   0.00000  Uiso   1.00
C443   C     0.51389   0.87137   0.09374   0.00000  Uiso   1.00
C444   C     0.51427   0.79559   0.40756   0.00000  Uiso   1.00
C445   C     0.48609   0.87137   0.40626   0.00000  Uiso   1.00
C446   C     0.57995   0.83334   0.25006   0.00000  Uiso   1.00
C447   C     0.48574   0.79559   0.09244   0.00000  Uiso   1.00
C448   C     0.49983   0.83342   0.11610   0.00000  Uiso   1.00
C449   C     0.50017   0.83342   0.38390   0.00000  Uiso   1.00
C450   C     0.49991   0.83358   0.02407   0.00000  Uiso   1.00
C451   C     0.50009   0.83358   0.47593   0.00000  Uiso   1.00
C452   C     0.62415   0.83339   0.25000   0.00000  Uiso   1.00
C453   C     0.37585   0.83339   0.25000   0.00000  Uiso   1.00
C454   C     0.56128   0.71451   0.30240   0.00000  Uiso   1.00
C455   C     0.45235   0.95183   0.18364   0.00000  Uiso   1.00
C456   C     0.43872   0.71451   0.19760   0.00000  Uiso   1.00
C457   C     0.49989   0.83334   0.16403   0.00000  Uiso   1.00
C458   C     0.54765   0.95183   0.31636   0.00000  Uiso   1.00
C459   C     0.50011   0.83334   0.33597   0.00000  Uiso   1.00
C460   C     0.52747   0.69057   0.27725   0.00000  Uiso   1.00
C461   C     0.47511   0.97601   0.22012   0.00000  Uiso   1.00
C462   C     0.47253   0.69057   0.22275   0.00000  Uiso   1.00
C463   C     0.52489   0.97601   0.27988   0.00000  Uiso   1.00
C464   C     0.35462   0.79252   0.25010   0.00000  Uiso   1.00
H465   H     0.55657   0.74716   0.31641   0.00000  Uiso   1.00
H466   H     0.52555   0.76619   0.39062   0.00000  Uiso   1.00
H467   H     0.47479   0.90069   0.38823   0.00000  Uiso   1.00
H468   H     0.47447   0.76618   0.10938   0.00000  Uiso   1.00
H469   H     0.37070   0.76062   0.25036   0.00000  Uiso   1.00
H470   H     0.62925   0.90622   0.25013   0.00000  Uiso   1.00
H471   H     0.62930   0.76062   0.24963   0.00000  Uiso   1.00
H472   H     0.37075   0.90622   0.24988   0.00000  Uiso   1.00
H473   H     0.43669   0.92062   0.18951   0.00000  Uiso   1.00
H474   H     0.44343   0.74716   0.18359   0.00000  Uiso   1.00
H475   H     0.56330   0.92062   0.31049   0.00000  Uiso   1.00
H476   H     0.52592   0.90048   0.03072   0.00000  Uiso   1.00
H477   H     0.52620   0.76671   0.47169   0.00000  Uiso   1.00
H478   H     0.47404   0.90046   0.46928   0.00000  Uiso   1.00
H479   H     0.47382   0.76670   0.02831   0.00000  Uiso   1.00
H480   H     0.52518   0.90070   0.11177   0.00000  Uiso   1.00
N481   N     0.50000   0.95240   0.25000   0.00000  Uiso   1.00
N482   N     0.50000   0.71427   0.25000   0.00000  Uiso   1.00
O483   O     0.43892   0.87154   0.25000   0.00000  Uiso   1.00
O484   O     0.45142   0.96667   0.14568   0.00000  Uiso   1.00
O485   O     0.40411   0.69790   0.19299   0.00000  Uiso   1.00
O486   O     0.54858   0.96667   0.35432   0.00000  Uiso   1.00
O487   O     0.56108   0.79513   0.25001   0.00000  Uiso   1.00
O488   O     0.56108   0.87154   0.25001   0.00000  Uiso   1.00
O489   O     0.43892   0.79513   0.25000   0.00000  Uiso   1.00
O490   O     0.50000   0.87155   0.18453   0.00000  Uiso   1.00
O491   O     0.50000   0.79511   0.31547   0.00000  Uiso   1.00
O492   O     0.50000   0.87155   0.31547   0.00000  Uiso   1.00
O493   O     0.50000   0.79511   0.18453   0.00000  Uiso   1.00
O494   O     0.59589   0.69790   0.30701   0.00000  Uiso   1.00
Zn495  Zn    0.50000   0.88437   0.25000   0.00000  Uiso   1.00
Zn496  Zn    0.50000   0.78229   0.25000   0.00000  Uiso   1.00
C497   C     0.75339   0.83334   0.24995   0.00000  Uiso   1.00
C498   C     0.97871   0.87431   0.25006   0.00000  Uiso   1.00
C499   C     0.97872   0.79252   0.24990   0.00000  Uiso   1.00
C500   C     0.68796   0.87431   0.24995   0.00000  Uiso   1.00
C501   C     0.84752   0.87133   0.04775   0.00000  Uiso   1.00
C502   C     0.84783   0.79580   0.45357   0.00000  Uiso   1.00
C503   C     0.81913   0.87133   0.45225   0.00000  Uiso   1.00
C504   C     0.81885   0.79579   0.04643   0.00000  Uiso   1.00
C505   C     0.84722   0.87137   0.09374   0.00000  Uiso   1.00
C506   C     0.84760   0.79559   0.40756   0.00000  Uiso   1.00
C507   C     0.81942   0.87137   0.40626   0.00000  Uiso   1.00
C508   C     0.91328   0.83334   0.25006   0.00000  Uiso   1.00
C509   C     0.81908   0.79559   0.09244   0.00000  Uiso   1.00
C510   C     0.83316   0.83342   0.11610   0.00000  Uiso   1.00
C511   C     0.83350   0.83342   0.38390   0.00000  Uiso   1.00
C512   C     0.83324   0.83358   0.02407   0.00000  Uiso   1.00
C513   C     0.83342   0.83358   0.47593   0.00000  Uiso   1.00
C514   C     0.95749   0.83339   0.25000   0.00000  Uiso   1.00
C515   C     0.70918   0.83339   0.25000   0.00000  Uiso   1.00
C516   C     0.89461   0.71451   0.30240   0.00000  Uiso   1.00
C517   C     0.78568   0.95183   0.18364   0.00000  Uiso   1.00
C518   C     0.77205   0.71451   0.19760   0.00000  Uiso   1.00
C519   C     0.83322   0.83334   0.16403   0.00000  Uiso   1.00
C520   C     0.88099   0.95183   0.31636   0.00000  Uiso   1.00
C521   C     0.83345   0.83334   0.33597   0.00000  Uiso   1.00
C522   C     0.86080   0.69057   0.27725   0.00000  Uiso   1.00
C523   C     0.80844   0.97601   0.22012   0.00000  Uiso   1.00
C524   C     0.80587   0.69057   0.22275   0.00000  Uiso   1.00
C525   C     0.85823   0.97601   0.27988   0.00000  Uiso   1.00
C526   C     0.68795   0.79252   0.25010   0.00000  Uiso   1.00
H527   H     0.88990   0.74716   0.31641   0.00000  Uiso   1.00
H528   H     0.85889   0.76619   0.39062   0.00000  Uiso   1.00
H529   H     0.80812   0.90069   0.38823   0.00000  Uiso   1.00
H530   H     0.80781   0.76618   0.10938   0.00000  Uiso   1.00
H531   H     0.70404   0.76062   0.25036   0.00000  Uiso   1.00
H532   H     0.96258   0.90622   0.25013   0.00000  Uiso   1.00
H533   H     0.96263   0.76062   0.24963   0.00000  Uiso   1.00
H534   H     0.70408   0.90622   0.24988   0.00000  Uiso   1.00
H535   H     0.77003   0.92062   0.18951   0.00000  Uiso   1.00
H536   H     0.77676   0.74716   0.18359   0.00000  Uiso   1.00
H537   H     0.89664   0.92062   0.31049   0.00000  Uiso   1.00
H538   H     0.85926   0.90048   0.03072   0.00000  Uiso   1.00
H539   H     0.85953   0.76671   0.47169   0.00000  Uiso   1.00
H540   H     0.80737   0.90046   0.46928   0.00000  Uiso   1.00
H541   H     0.80716   0.76670   0.02831   0.00000  Uiso   1.00
H542   H     0.85851   0.90070   0.11177   0.00000  Uiso   1.00
N543   N     0.83333   0.95240   0.25000   0.00000  Uiso   1.00
N544   N     0.83333   0.71427   0.25000   0.00000  Uiso   1.00
O545   O     0.77226   0.87154   0.25000   0.00000  Uiso   1.00
O546   O     0.78476   0.96667   0.14568   0.00000  Uiso   1.00
O547   O     0.73745   0.69790   0.19299   0.00000  Uiso   1.00
O548   O     0.88191   0.96667   0.35432   0.00000  Uiso   1.00
O549   O     0.89441   0.79513   0.25001   0.00000  Uiso   1.00
O550   O     0.89441   0.87154   0.25001   0.00000  Uiso   1.00
O551   O     0.77226   0.79513   0.25000   0.00000  Uiso   1.00
O552   O     0.83333   0.87155   0.18453   0.00000  Uiso   1.00
O553   O     0.83334   0.79511   0.31547   0.00000  Uiso   1.00
O554   O     0.83334   0.87155   0.31547   0.00000  Uiso   1.00
O555   O     0.83333   0.79511   0.18453   0.00000  Uiso   1.00
O556   O     0.92922   0.69790   0.30701   0.00000  Uiso   1.00
Zn557  Zn    0.83333   0.88437   0.25000   0.00000  Uiso   1.00
Zn558  Zn    0.83333   0.78229   0.25000   0.00000  Uiso   1.00
C559   C     0.08672   0.16668   0.74995   0.00000  Uiso   1.00
C560   C     0.31204   0.20764   0.75006   0.00000  Uiso   1.00
C561   C     0.31205   0.12585   0.74990   0.00000  Uiso   1.00
C562   C     0.02129   0.20764   0.74995   0.00000  Uiso   1.00
C563   C     0.18085   0.20467   0.54775   0.00000  Uiso   1.00
C564   C     0.18116   0.12913   0.95357   0.00000  Uiso   1.00
C565   C     0.15246   0.20466   0.95225   0.00000  Uiso   1.00
C566   C     0.15218   0.12912   0.54643   0.00000  Uiso   1.00
C567   C     0.18055   0.20471   0.59374   0.00000  Uiso   1.00
C568   C     0.18094   0.12893   0.90756   0.00000  Uiso   1.00
C569   C     0.15276   0.20470   0.90626   0.00000  Uiso   1.00
C570   C     0.24661   0.16668   0.75006   0.00000  Uiso   1.00
C571   C     0.15241   0.12892   0.59244   0.00000  Uiso   1.00
C572   C     0.16650   0.16676   0.61610   0.00000  Uiso   1.00
C573   C     0.16683   0.16676   0.88390   0.00000  Uiso   1.00
C574   C     0.16657   0.16692   0.52407   0.00000  Uiso   1.00
C575   C     0.16675   0.16692   0.97593   0.00000  Uiso   1.00
C576   C     0.29082   0.16673   0.75000   0.00000  Uiso   1.00
C577   C     0.04251   0.16673   0.75000   0.00000  Uiso   1.00
C578   C     0.22795   0.04784   0.80240   0.00000  Uiso   1.00
C579   C     0.11901   0.28516   0.68364   0.00000  Uiso   1.00
C580   C     0.10539   0.04784   0.69760   0.00000  Uiso   1.00
C581   C     0.16655   0.16668   0.66403   0.00000  Uiso   1.00
C582   C     0.21432   0.28516   0.81636   0.00000  Uiso   1.00
C583   C     0.16678   0.16668   0.83597   0.00000  Uiso   1.00
C584   C     0.19413   0.02390   0.77725   0.00000  Uiso   1.00
C585   C     0.14177   0.30934   0.72012   0.00000  Uiso   1.00
C586   C     0.13920   0.02390   0.72275   0.00000  Uiso   1.00
C587   C     0.19156   0.30934   0.77988   0.00000  Uiso   1.00
C588   C     0.02128   0.12585   0.75010   0.00000  Uiso   1.00
H589   H     0.22324   0.08049   0.81641   0.00000  Uiso   1.00
H590   H     0.19222   0.09952   0.89062   0.00000  Uiso   1.00
H591   H     0.14146   0.23402   0.88823   0.00000  Uiso   1.00
H592   H     0.14114   0.09951   0.60938   0.00000  Uiso   1.00
H593   H     0.03737   0.09395   0.75036   0.00000  Uiso   1.00
H594   H     0.29592   0.23955   0.75013   0.00000  Uiso   1.00
H595   H     0.29596   0.09395   0.74963   0.00000  Uiso   1.00
H596   H     0.03742   0.23955   0.74988   0.00000  Uiso   1.00
H597   H     0.10336   0.25396   0.68951   0.00000  Uiso   1.00
H598   H     0.11010   0.08049   0.68359   0.00000  Uiso   1.00
H599   H     0.22997   0.25395   0.81049   0.00000  Uiso   1.00
H600   H     0.19259   0.23381   0.53072   0.00000  Uiso   1.00
H601   H     0.19287   0.10004   0.97169   0.00000  Uiso   1.00
H602   H     0.14071   0.23379   0.96928   0.00000  Uiso   1.00
H603   H     0.14049   0.10003   0.52831   0.00000  Uiso   1.00
H604   H     0.19185   0.23404   0.61177   0.00000  Uiso   1.00
N605   N     0.16667   0.28573   0.75000   0.00000  Uiso   1.00
N606   N     0.16667   0.04760   0.75000   0.00000  Uiso   1.00
O607   O     0.10559   0.20487   0.75000   0.00000  Uiso   1.00
O608   O     0.11809   0.30000   0.64568   0.00000  Uiso   1.00
O609   O     0.07078   0.03123   0.69299   0.00000  Uiso   1.00
O610   O     0.21525   0.30001   0.85432   0.00000  Uiso   1.00
O611   O     0.22774   0.12846   0.75001   0.00000  Uiso   1.00
O612   O     0.22774   0.20487   0.75001   0.00000  Uiso   1.00
O613   O     0.10559   0.12846   0.75000   0.00000  Uiso   1.00
O614   O     0.16666   0.20489   0.68453   0.00000  Uiso   1.00
O615   O     0.16667   0.12845   0.81547   0.00000  Uiso   1.00
O616   O     0.16667   0.20489   0.81547   0.00000  Uiso   1.00
O617   O     0.16666   0.12845   0.68453   0.00000  Uiso   1.00
O618   O     0.26256   0.03124   0.80701   0.00000  Uiso   1.00
Zn619  Zn    0.16667   0.21771   0.75000   0.00000  Uiso   1.00
Zn620  Zn    0.16667   0.11563   0.75000   0.00000  Uiso   1.00
C621   C     0.42005   0.16668   0.74995   0.00000  Uiso   1.00
C622   C     0.64537   0.20764   0.75006   0.00000  Uiso   1.00
C623   C     0.64538   0.12585   0.74990   0.00000  Uiso   1.00
C624   C     0.35463   0.20764   0.74995   0.00000  Uiso   1.00
C625   C     0.51418   0.20467   0.54775   0.00000  Uiso   1.00
C626   C     0.51450   0.12913   0.95357   0.00000  Uiso   1.00
C627   C     0.48579   0.20466   0.95225   0.00000  Uiso   1.00
C628   C     0.48551   0.12912   0.54643   0.00000  Uiso   1.00
C629   C     0.51389   0.20471   0.59374   0.00000  Uiso   1.00
C630   C     0.51427   0.12893   0.90756   0.00000  Uiso   1.00
C631   C     0.48609   0.20470   0.90626   0.00000  Uiso   1.00
C632   C     0.57995   0.16668   0.75006   0.00000  Uiso   1.00
C633   C     0.48574   0.12892   0.59244   0.00000  Uiso   1.00
C634   C     0.49983   0.16676   0.61610   0.00000  Uiso   1.00
C635   C     0.50017   0.16676   0.88390   0.00000  Uiso   1.00
C636   C     0.49991   0.16692   0.52407   0.00000  Uiso   1.00
C637   C     0.50009   0.16692   0.97593   0.00000  Uiso   1.00
C638   C     0.62415   0.16673   0.75000   0.00000  Uiso   1.00
C639   C     0.37585   0.16673   0.75000   0.00000  Uiso   1.00
C640   C     0.56128   0.04784   0.80240   0.00000  Uiso   1.00
C641   C     0.45235   0.28516   0.68364   0.00000  Uiso   1.00
C642   C     0.43872   0.04784   0.69760   0.00000  Uiso   1.00
C643   C     0.49989   0.16668   0.66403   0.00000  Uiso   1.00
C644   C     0.54765   0.28516   0.81636   0.00000  Uiso   1.00
C645   C     0.50011   0.16668   0.83597   0.00000  Uiso   1.00
C646   C     0.52747   0.02390   0.77725   0.00000  Uiso   1.00
C647   C     0.47511   0.30934   0.72012   0.00000  Uiso   1.00
C648   C     0.47253   0.02390   0.72275   0.00000  Uiso   1.00
C649   C     0.52489   0.30934   0.77988   0.00000  Uiso   1.00
C650   C     0.35462   0.12585   0.75010   0.00000  Uiso   1.00
H651   H     0.55657   0.08049   0.81641   0.00000  Uiso   1.00
H652   H     0.52555   0.09952   0.89062   0.00000  Uiso   1.00
H653   H     0.47479   0.23402   0.88823   0.00000  Uiso   1.00
H654   H     0.47447   0.09951   0.60938   0.00000  Uiso   1.00
H655   H     0.37070   0.09395   0.75036   0.00000  Uiso   1.00
H656   H     0.62925   0.23955   0.75013   0.00000  Uiso   1.00
H657   H     0.62930   0.09395   0.74963   0.00000  Uiso   1.00
H658   H     0.37075   0.23955   0.74988   0.00000  Uiso   1.00
H659   H     0.43669   0.25396   0.68951   0.00000  Uiso   1.00
H660   H     0.44343   0.08049   0.68359   0.00000  Uiso   1.00
H661   H     0.56330   0.25395   0.81049   0.00000  Uiso   1.00
H662   H     0.52592   0.23381   0.53072   0.00000  Uiso   1.00
H663   H     0.52620   0.10004   0.97169   0.00000  Uiso   1.00
H664   H     0.47404   0.23379   0.96928   0.00000  Uiso   1.00
H665   H     0.47382   0.10003   0.52831   0.00000  Uiso   1.00
H666   H     0.52518   0.23404   0.61177   0.00000  Uiso   1.00
N667   N     0.50000   0.28573   0.75000   0.00000  Uiso   1.00
N668   N     0.50000   0.04760   0.75000   0.00000  Uiso   1.00
O669   O     0.43892   0.20487   0.75000   0.00000  Uiso   1.00
O670   O     0.45142   0.30000   0.64568   0.00000  Uiso   1.00
O671   O     0.40411   0.03123   0.69299   0.00000  Uiso   1.00
O672   O     0.54858   0.30001   0.85432   0.00000  Uiso   1.00
O673   O     0.56108   0.12846   0.75001   0.00000  Uiso   1.00
O674   O     0.56108   0.20487   0.75001   0.00000  Uiso   1.00
O675   O     0.43892   0.12846   0.75000   0.00000  Uiso   1.00
O676   O     0.50000   0.20489   0.68453   0.00000  Uiso   1.00
O677   O     0.50000   0.12845   0.81547   0.00000  Uiso   1.00
O678   O     0.50000   0.20489   0.81547   0.00000  Uiso   1.00
O679   O     0.50000   0.12845   0.68453   0.00000  Uiso   1.00
O680   O     0.59589   0.03124   0.80701   0.00000  Uiso   1.00
Zn681  Zn    0.50000   0.21771   0.75000   0.00000  Uiso   1.00
Zn682  Zn    0.50000   0.11563   0.75000   0.00000  Uiso   1.00
C683   C     0.75339   0.16668   0.74995   0.00000  Uiso   1.00
C684   C     0.97871   0.20764   0.75006   0.00000  Uiso   1.00
C685   C     0.97872   0.12585   0.74990   0.00000  Uiso   1.00
C686   C     0.68796   0.20764   0.74995   0.00000  Uiso   1.00
C687   C     0.84752   0.20467   0.54775   0.00000  Uiso   1.00
C688   C     0.84783   0.12913   0.95357   0.00000  Uiso   1.00
C689   C     0.81913   0.20466   0.95225   0.00000  Uiso   1.00
C690   C     0.81885   0.12912   0.54643   0.00000  Uiso   1.00
C691   C     0.84722   0.20471   0.59374   0.00000  Uiso   1.00
C692   C     0.84760   0.12893   0.90756   0.00000  Uiso   1.00
C693   C     0.81942   0.20470   0.90626   0.00000  Uiso   1.00
C694   C     0.91328   0.16668   0.75006   0.00000  Uiso   1.00
C695   C     0.81908   0.12892   0.59244   0.00000  Uiso   1.00
C696   C     0.83316   0.16676   0.61610   0.00000  Uiso   1.00
C697   C     0.83350   0.16676   0.88390   0.00000  Uiso   1.00
C698   C     0.83324   0.16692   0.52407   0.00000  Uiso   1.00
C699   C     0.83342   0.16692   0.97593   0.00000  Uiso   1.00
C700   C     0.95749   0.16673   0.75000   0.00000  Uiso   1.00
C701   C     0.70918   0.16673   0.75000   0.00000  Uiso   1.00
C702   C     0.89461   0.04784   0.80240   0.00000  Uiso   1.00
C703   C     0.78568   0.28516   0.68364   0.00000  Uiso   1.00
C704   C     0.77205   0.04784   0.69760   0.00000  Uiso   1.00
C705   C     0.83322   0.16668   0.66403   0.00000  Uiso   1.00
C706   C     0.88099   0.28516   0.81636   0.00000  Uiso   1.00
C707   C     0.83345   0.16668   0.83597   0.00000  Uiso   1.00
C708   C     0.86080   0.02390   0.77725   0.00000  Uiso   1.00
C709   C     0.80844   0.30934   0.72012   0.00000  Uiso   1.00
C710   C     0.80587   0.02390   0.72275   0.00000  Uiso   1.00
C711   C     0.85823   0.30934   0.77988   0.00000  Uiso   1.00
C712   C     0.68795   0.12585   0.75010   0.00000  Uiso   1.00
H713   H     0.88990   0.08049   0.81641   0.00000  Uiso   1.00
H714   H     0.85889   0.09952   0.89062   0.00000  Uiso   1.00
H715   H     0.80812   0.23402   0.88823   0.00000  Uiso   1.00
H716   H     0.80781   0.09951   0.60938   0.00000  Uiso   1.00
H717   H     0.70404   0.09395   0.75036   0.00000  Uiso   1.00
H718   H     0.96258   0.23955   0.75013   0.00000  Uiso   1.00
H719   H     0.96263   0.09395   0.74963   0.00000  Uiso   1.00
H720   H     0.70408   0.23955   0.74988   0.00000  Uiso   1.00
H721   H     0.77003   0.25396   0.68951   0.00000  Uiso   1.00
H722   H     0.77676   0.08049   0.68359   0.00000  Uiso   1.00
H723   H     0.89664   0.25395   0.81049   0.00000  Uiso   1.00
H724   H     0.85926   0.23381   0.53072   0.00000  Uiso   1.00
H725   H     0.85953   0.10004   0.97169   0.00000  Uiso   1.00
H726   H     0.80737   0.23379   0.96928   0.00000  Uiso   1.00
H727   H     0.80716   0.10003   0.52831   0.00000  Uiso   1.00
H728   H     0.85851   0.23404   0.61177   0.00000  Uiso   1.00
N729   N     0.83333   0.28573   0.75000   0.00000  Uiso   1.00
N730   N     0.83333   0.04760   0.75000   0.00000  Uiso   1.00
O731   O     0.77226   0.20487   0.75000   0.00000  Uiso   1.00
O732   O     0.78476   0.30000   0.64568   0.00000  Uiso   1.00
O733   O     0.73745   0.03123   0.69299   0.00000  Uiso   1.00
O734   O     0.88191   0.30001   0.85432   0.00000  Uiso   1.00
O735   O     0.89441   0.12846   0.75001   0.00000  Uiso   1.00
O736   O     0.89441   0.20487   0.75001   0.00000  Uiso   1.00
O737   O     0.77226   0.12846   0.75000   0.00000  Uiso   1.00
O738   O     0.83333   0.20489   0.68453   0.00000  Uiso   1.00
O739   O     0.83334   0.12845   0.81547   0.00000  Uiso   1.00
O740   O     0.83334   0.20489   0.81547   0.00000  Uiso   1.00
O741   O     0.83333   0.12845   0.68453   0.00000  Uiso   1.00
O742   O     0.92922   0.03124   0.80701   0.00000  Uiso   1.00
Zn743  Zn    0.83333   0.21771   0.75000   0.00000  Uiso   1.00
Zn744  Zn    0.83333   0.11563   0.75000   0.00000  Uiso   1.00
C745   C     0.08672   0.50001   0.74995   0.00000  Uiso   1.00
C746   C     0.31204   0.54097   0.75006   0.00000  Uiso   1.00
C747   C     0.31205   0.45918   0.74990   0.00000  Uiso   1.00
C748   C     0.02129   0.54097   0.74995   0.00000  Uiso   1.00
C749   C     0.18085   0.53800   0.54775   0.00000  Uiso   1.00
C750   C     0.18116   0.46247   0.95357   0.00000  Uiso   1.00
C751   C     0.15246   0.53799   0.95225   0.00000  Uiso   1.00
C752   C     0.15218   0.46246   0.54643   0.00000  Uiso   1.00
C753   C     0.18055   0.53804   0.59374   0.00000  Uiso   1.00
C754   C     0.18094   0.46226   0.90756   0.00000  Uiso   1.00
C755   C     0.15276   0.53803   0.90626   0.00000  Uiso   1.00
C756   C     0.24661   0.50001   0.75006   0.00000  Uiso   1.00
C757   C     0.15241   0.46225   0.59244   0.00000  Uiso   1.00
C758   C     0.16650   0.50009   0.61610   0.00000  Uiso   1.00
C759   C     0.16683   0.50009   0.88390   0.00000  Uiso   1.00
C760   C     0.16657   0.50025   0.52407   0.00000  Uiso   1.00
C761   C     0.16675   0.50025   0.97593   0.00000  Uiso   1.00
C762   C     0.29082   0.50006   0.75000   0.00000  Uiso   1.00
C763   C     0.04251   0.50006   0.75000   0.00000  Uiso   1.00
C764   C     0.22795   0.38118   0.80240   0.00000  Uiso   1.00
C765   C     0.11901   0.61850   0.68364   0.00000  Uiso   1.00
C766   C     0.10539   0.38118   0.69760   0.00000  Uiso   1.00
C767   C     0.16655   0.50001   0.66403   0.00000  Uiso   1.00
C768   C     0.21432   0.61850   0.81636   0.00000  Uiso   1.00
C769   C     0.16678   0.50001   0.83597   0.00000  Uiso   1.00
C770   C     0.19413   0.35723   0.77725   0.00000  Uiso   1.00
C771   C     0.14177   0.64268   0.72012   0.00000  Uiso   1.00
C772   C     0.13920   0.35723   0.72275   0.00000  Uiso   1.00
C773   C     0.19156   0.64268   0.77988   0.00000  Uiso   1.00
C774   C     0.02128   0.45918   0.75010   0.00000  Uiso   1.00
H775   H     0.22324   0.41383   0.81641   0.00000  Uiso   1.00
H776   H     0.19222   0.43286   0.89062   0.00000  Uiso   1.00
H777   H     0.14146   0.56736   0.88823   0.00000  Uiso   1.00
H778   H     0.14114   0.43284   0.60938   0.00000  Uiso   1.00
H779   H     0.03737   0.42728   0.75036   0.00000  Uiso   1.00
H780   H     0.29592   0.57288   0.75013   0.00000  Uiso   1.00
H781   H     0.29596   0.42728   0.74963   0.00000  Uiso   1.00
H782   H     0.03742   0.57288   0.74988   0.00000  Uiso   1.00
H783   H     0.10336   0.58729   0.68951   0.00000  Uiso   1.00
H784   H     0.11010   0.41383   0.68359   0.00000  Uiso   1.00
H785   H     0.22997   0.58729   0.81049   0.00000  Uiso   1.00
H786   H     0.19259   0.56714   0.53072   0.00000  Uiso   1.00
H787   H     0.19287   0.43338   0.97169   0.00000  Uiso   1.00
H788   H     0.14071   0.56713   0.96928   0.00000  Uiso   1.00
H789   H     0.14049   0.43336   0.52831   0.00000  Uiso   1.00
H790   H     0.19185   0.56737   0.61177   0.00000  Uiso   1.00
N791   N     0.16667   0.61907   0.75000   0.00000  Uiso   1.00
N792   N     0.16667   0.38093   0.75000   0.00000  Uiso   1.00
O793   O     0.10559   0.53821   0.75000   0.00000  Uiso   1.00
O794   O     0.11809   0.63334   0.64568   0.00000  Uiso   1.00
O795   O     0.07078   0.36457   0.69299   0.00000  Uiso   1.00
O796   O     0.21525   0.63334   0.85432   0.00000  Uiso   1.00
O797   O     0.22774   0.46179   0.75001   0.00000  Uiso   1.00
O798   O     0.22774   0.53821   0.75001   0.00000  Uiso   1.00
O799   O     0.10559   0.46179   0.75000   0.00000  Uiso   1.00
O800   O     0.16666   0.53822   0.68453   0.00000  Uiso   1.00
O801   O     0.16667   0.46178   0.81547   0.00000  Uiso   1.00
O802   O     0.16667   0.53822   0.81547   0.00000  Uiso   1.00
O803   O     0.16666   0.46178   0.68453   0.00000  Uiso   1.00
O804   O     0.26256   0.36457   0.80701   0.00000  Uiso   1.00
Zn805  Zn    0.16667   0.55104   0.75000   0.00000  Uiso   1.00
Zn806  Zn    0.16667   0.44896   0.75000   0.00000  Uiso   1.00
C807   C     0.42005   0.50001   0.74995   0.00000  Uiso   1.00
C808   C     0.64537   0.54097   0.75006   0.00000  Uiso   1.00
C809   C     0.64538   0.45918   0.74990   0.00000  Uiso   1.00
C810   C     0.35463   0.54097   0.74995   0.00000  Uiso   1.00
C811   C     0.51418   0.53800   0.54775   0.00000  Uiso   1.00
C812   C     0.51450   0.46247   0.95357   0.00000  Uiso   1.00
C813   C     0.48579   0.53799   0.95225   0.00000  Uiso   1.00
C814   C     0.48551   0.46246   0.54643   0.00000  Uiso   1.00
C815   C     0.51389   0.53804   0.59374   0.00000  Uiso   1.00
C816   C     0.51427   0.46226   0.90756   0.00000  Uiso   1.00
C817   C     0.48609   0.53803   0.90626   0.00000  Uiso   1.00
C818   C     0.57995   0.50001   0.75006   0.00000  Uiso   1.00
C819   C     0.48574   0.46225   0.59244   0.00000  Uiso   1.00
C820   C     0.49983   0.50009   0.61610   0.00000  Uiso   1.00
C821   C     0.50017   0.50009   0.88390   0.00000  Uiso   1.00
C822   C     0.49991   0.50025   0.52407   0.00000  Uiso   1.00
C823   C     0.50009   0.50025   0.97593   0.00000  Uiso   1.00
C824   C     0.62415   0.50006   0.75000   0.00000  Uiso   1.00
C825   C     0.37585   0.50006   0.75000   0.00000  Uiso   1.00
C826   C     0.56128   0.38118   0.80240   0.00000  Uiso   1.00
C827   C     0.45235   0.61850   0.68364   0.00000  Uiso   1.00
C828   C     0.43872   0.38118   0.69760   0.00000  Uiso   1.00
C829   C     0.49989   0.50001   0.66403   0.00000  Uiso   1.00
C830   C     0.54765   0.61850   0.81636   0.00000  Uiso   1.00
C831   C     0.50011   0.50001   0.83597   0.00000  Uiso   1.00
C832   C     0.52747   0.35723   0.77725   0.00000  Uiso   1.00
C833   C     0.47511   0.64268   0.72012   0.00000  Uiso   1.00
C834   C     0.47253   0.35723   0.72275   0.00000  Uiso   1.00
C835   C     0.52489   0.64268   0.77988   0.00000  Uiso   1.00
C836   C     0.35462   0.45918   0.75010   0.00000  Uiso   1.00
H837   H     0.55657   0.41383   0.81641   0.00000  Uiso   1.00
H838   H     0.52555   0.43286   0.89062   0.00000  Uiso   1.00
H839   H     0.47479   0.56736   0.88823   0.00000  Uiso   1.00
H840   H     0.47447   0.43284   0.60938   0.00000  Uiso   1.00
H841   H     0.37070   0.42728   0.75036   0.00000  Uiso   1.00
H842   H     0.62925   0.57288   0.75013   0.00000  Uiso   1.00
H843   H     0.62930   0.42728   0.74963   0.00000  Uiso   1.00
H844   H     0.37075   0.57288   0.74988   0.00000  Uiso   1.00
H845   H     0.43669   0.58729   0.68951   0.00000  Uiso   1.00
H846   H     0.44343   0.41383   0.68359   0.00000  Uiso   1.00
H847   H     0.56330   0.58729   0.81049   0.00000  Uiso   1.00
H848   H     0.52592   0.56714   0.53072   0.00000  Uiso   1.00
H849   H     0.52620   0.43338   0.97169   0.00000  Uiso   1.00
H850   H     0.47404   0.56713   0.96928   0.00000  Uiso   1.00
H851   H     0.47382   0.43336   0.52831   0.00000  Uiso   1.00
H852   H     0.52518   0.56737   0.61177   0.00000  Uiso   1.00
N853   N     0.50000   0.61907   0.75000   0.00000  Uiso   1.00
N854   N     0.50000   0.38093   0.75000   0.00000  Uiso   1.00
O855   O     0.43892   0.53821   0.75000   0.00000  Uiso   1.00
O856   O     0.45142   0.63334   0.64568   0.00000  Uiso   1.00
O857   O     0.40411   0.36457   0.69299   0.00000  Uiso   1.00
O858   O     0.54858   0.63334   0.85432   0.00000  Uiso   1.00
O859   O     0.56108   0.46179   0.75001   0.00000  Uiso   1.00
O860   O     0.56108   0.53821   0.75001   0.00000  Uiso   1.00
O861   O     0.43892   0.46179   0.75000   0.00000  Uiso   1.00
O862   O     0.50000   0.53822   0.68453   0.00000  Uiso   1.00
O863   O     0.50000   0.46178   0.81547   0.00000  Uiso   1.00
O864   O     0.50000   0.53822   0.81547   0.00000  Uiso   1.00
O865   O     0.50000   0.46178   0.68453   0.00000  Uiso   1.00
O866   O     0.59589   0.36457   0.80701   0.00000  Uiso   1.00
Zn867  Zn    0.50000   0.55104   0.75000   0.00000  Uiso   1.00
Zn868  Zn    0.50000   0.44896   0.75000   0.00000  Uiso   1.00
C869   C     0.75339   0.50001   0.74995   0.00000  Uiso   1.00
C870   C     0.97871   0.54097   0.75006   0.00000  Uiso   1.00
C871   C     0.97872   0.45918   0.74990   0.00000  Uiso   1.00
C872   C     0.68796   0.54097   0.74995   0.00000  Uiso   1.00
C873   C     0.84752   0.53800   0.54775   0.00000  Uiso   1.00
C874   C     0.84783   0.46247   0.95357   0.00000  Uiso   1.00
C875   C     0.81913   0.53799   0.95225   0.00000  Uiso   1.00
C876   C     0.81885   0.46246   0.54643   0.00000  Uiso   1.00
C877   C     0.84722   0.53804   0.59374   0.00000  Uiso   1.00
C878   C     0.84760   0.46226   0.90756   0.00000  Uiso   1.00
C879   C     0.81942   0.53803   0.90626   0.00000  Uiso   1.00
C880   C     0.91328   0.50001   0.75006   0.00000  Uiso   1.00
C881   C     0.81908   0.46225   0.59244   0.00000  Uiso   1.00
C882   C     0.83316   0.50009   0.61610   0.00000  Uiso   1.00
C883   C     0.83350   0.50009   0.88390   0.00000  Uiso   1.00
C884   C     0.83324   0.50025   0.52407   0.00000  Uiso   1.00
C885   C     0.83342   0.50025   0.97593   0.00000  Uiso   1.00
C886   C     0.95749   0.50006   0.75000   0.00000  Uiso   1.00
C887   C     0.70918   0.50006   0.75000   0.00000  Uiso   1.00
C888   C     0.89461   0.38118   0.80240   0.00000  Uiso   1.00
C889   C     0.78568   0.61850   0.68364   0.00000  Uiso   1.00
C890   C     0.77205   0.38118   0.69760   0.00000  Uiso   1.00
C891   C     0.83322   0.50001   0.66403   0.00000  Uiso   1.00
C892   C     0.88099   0.61850   0.81636   0.00000  Uiso   1.00
C893   C     0.83345   0.50001   0.83597   0.00000  Uiso   1.00
C894   C     0.86080   0.35723   0.77725   0.00000  Uiso   1.00
C895   C     0.80844   0.64268   0.72012   0.00000  Uiso   1.00
C896   C     0.80587   0.35723   0.72275   0.00000  Uiso   1.00
C897   C     0.85823   0.64268   0.77988   0.00000  Uiso   1.00
C898   C     0.68795   0.45918   0.75010   0.00000  Uiso   1.00
H899   H     0.88990   0.41383   0.81641   0.00000  Uiso   1.00
H900   H     0.85889   0.43286   0.89062   0.00000  Uiso   1.00
H901   H     0.80812   0.56736   0.88823   0.00000  Uiso   1.00
H902   H     0.80781   0.43284   0.60938   0.00000  Uiso   1.00
H903   H     0.70404   0.42728   0.75036   0.00000  Uiso   1.00
H904   H     0.96258   0.57288   0.75013   0.00000  Uiso   1.00
H905   H     0.96263   0.42728   0.74963   0.00000  Uiso   1.00
H906   H     0.70408   0.57288   0.74988   0.00000  Uiso   1.00
H907   H     0.77003   0.58729   0.68951   0.00000  Uiso   1.00
H908   H     0.77676   0.41383   0.68359   0.00000  Uiso   1.00
H909   H     0.89664   0.58729   0.81049   0.00000  Uiso   1.00
H910   H     0.85926   0.56714   0.53072   0.00000  Uiso   1.00
H911   H     0.85953   0.43338   0.97169   0.00000  Uiso   1.00
H912   H     0.80737   0.56713   0.96928   0.00000  Uiso   1.00
H913   H     0.80716   0.43336   0.52831   0.00000  Uiso   1.00
H914   H     0.85851   0.56737   0.61177   0.00000  Uiso   1.00
N915   N     0.83333   0.61907   0.75000   0.00000  Uiso   1.00
N916   N     0.83333   0.38093   0.75000   0.00000  Uiso   1.00
O917   O     0.77226   0.53821   0.75000   0.00000  Uiso   1.00
O918   O     0.78476   0.63334   0.64568   0.00000  Uiso   1.00
O919   O     0.73745   0.36457   0.69299   0.00000  Uiso   1.00
O920   O     0.88191   0.63334   0.85432   0.00000  Uiso   1.00
O921   O     0.89441   0.46179   0.75001   0.00000  Uiso   1.00
O922   O     0.89441   0.53821   0.75001   0.00000  Uiso   1.00
O923   O     0.77226   0.46179   0.75000   0.00000  Uiso   1.00
O924   O     0.83333   0.53822   0.68453   0.00000  Uiso   1.00
O925   O     0.83334   0.46178   0.81547   0.00000  Uiso   1.00
O926   O     0.83334   0.53822   0.81547   0.00000  Uiso   1.00
O927   O     0.83333   0.46178   0.68453   0.00000  Uiso   1.00
O928   O     0.92922   0.36457   0.80701   0.00000  Uiso   1.00
Zn929  Zn    0.83333   0.55104   0.75000   0.00000  Uiso   1.00
Zn930  Zn    0.83333   0.44896   0.75000   0.00000  Uiso   1.00
C931   C     0.08672   0.83334   0.74995   0.00000  Uiso   1.00
C932   C     0.31204   0.87431   0.75006   0.00000  Uiso   1.00
C933   C     0.31205   0.79252   0.74990   0.00000  Uiso   1.00
C934   C     0.02129   0.87431   0.74995   0.00000  Uiso   1.00
C935   C     0.18085   0.87133   0.54775   0.00000  Uiso   1.00
C936   C     0.18116   0.79580   0.95357   0.00000  Uiso   1.00
C937   C     0.15246   0.87133   0.95225   0.00000  Uiso   1.00
C938   C     0.15218   0.79579   0.54643   0.00000  Uiso   1.00
C939   C     0.18055   0.87137   0.59374   0.00000  Uiso   1.00
C940   C     0.18094   0.79559   0.90756   0.00000  Uiso   1.00
C941   C     0.15276   0.87137   0.90626   0.00000  Uiso   1.00
C942   C     0.24661   0.83334   0.75006   0.00000  Uiso   1.00
C943   C     0.15241   0.79559   0.59244   0.00000  Uiso   1.00
C944   C     0.16650   0.83342   0.61610   0.00000  Uiso   1.00
C945   C     0.16683   0.83342   0.88390   0.00000  Uiso   1.00
C946   C     0.16657   0.83358   0.52407   0.00000  Uiso   1.00
C947   C     0.16675   0.83358   0.97593   0.00000  Uiso   1.00
C948   C     0.29082   0.83339   0.75000   0.00000  Uiso   1.00
C949   C     0.04251   0.83339   0.75000   0.00000  Uiso   1.00
C950   C     0.22795   0.71451   0.80240   0.00000  Uiso   1.00
C951   C     0.11901   0.95183   0.68364   0.00000  Uiso   1.00
C952   C     0.10539   0.71451   0.69760   0.00000  Uiso   1.00
C953   C     0.16655   0.83334   0.66403   0.00000  Uiso   1.00
C954   C     0.21432   0.95183   0.81636   0.00000  Uiso   1.00
C955   C     0.16678   0.83334   0.83597   0.00000  Uiso   1.00
C956   C     0.19413   0.69057   0.77725   0.00000  Uiso   1.00
C957   C     0.14177   0.97601   0.72012   0.00000  Uiso   1.00
C958   C     0.13920   0.69057   0.72275   0.00000  Uiso   1.00
C959   C     0.19156   0.97601   0.77988   0.00000  Uiso   1.00
C960   C     0.02128   0.79252   0.75010   0.00000  Uiso   1.00
H961   H     0.22324   0.74716   0.81641   0.00000  Uiso   1.00
H962   H     0.19222   0.76619   0.89062   0.00000  Uiso   1.00
H963   H     0.14146   0.90069   0.88823   0.00000  Uiso   1.00
H964   H     0.14114   0.76618   0.60938   0.00000  Uiso   1.00
H965   H     0.03737   0.76062   0.75036   0.00000  Uiso   1.00
H966   H     0.29592   0.90622   0.75013   0.00000  Uiso   1.00
H967   H     0.29596   0.76062   0.74963   0.00000  Uiso   1.00
H968   H     0.03742   0.90622   0.74988   0.00000  Uiso   1.00
H969   H     0.10336   0.92062   0.68951   0.00000  Uiso   1.00
H970   H     0.11010   0.74716   0.68359   0.00000  Uiso   1.00
H971   H     0.22997   0.92062   0.81049   0.00000  Uiso   1.00
H972   H     0.19259   0.90048   0.53072   0.00000  Uiso   1.00
H973   H     0.19287   0.76671   0.97169   0.00000  Uiso   1.00
H974   H     0.14071   0.90046   0.96928   0.00000  Uiso   1.00
H975   H     0.14049   0.76670   0.52831   0.00000  Uiso   1.00
H976   H     0.19185   0.90070   0.61177   0.00000  Uiso   1.00
N977   N     0.16667   0.95240   0.75000   0.00000  Uiso   1.00
N978   N     0.16667   0.71427   0.75000   0.00000  Uiso   1.00
O979   O     0.10559   0.87154   0.75000   0.00000  Uiso   1.00
O980   O     0.11809   0.96667   0.64568   0.00000  Uiso   1.00
O981   O     0.07078   0.69790   0.69299   0.00000  Uiso   1.00
O982   O     0.21525   0.96667   0.85432   0.00000  Uiso   1.00
O983   O     0.22774   0.79513   0.75001   0.00000  Uiso   1.00
O984   O     0.22774   0.87154   0.75001   0.00000  Uiso   1.00
O985   O     0.10559   0.79513   0.75000   0.00000  Uiso   1.00
O986   O     0.16666   0.87155   0.68453   0.00000  Uiso   1.00
O987   O     0.16667   0.79511   0.81547   0.00000  Uiso   1.00
O988   O     0.16667   0.87155   0.81547   0.00000  Uiso   1.00
O989   O     0.16666   0.79511   0.68453   0.00000  Uiso   1.00
O990   O     0.26256   0.69790   0.80701   0.00000  Uiso   1.00
Zn991  Zn    0.16667   0.88437   0.75000   0.00000  Uiso   1.00
Zn992  Zn    0.16667   0.78229   0.75000   0.00000  Uiso   1.00
C993   C     0.42005   0.83334   0.74995   0.00000  Uiso   1.00
C994   C     0.64537   0.87431   0.75006   0.00000  Uiso   1.00
C995   C     0.64538   0.79252   0.74990   0.00000  Uiso   1.00
C996   C     0.35463   0.87431   0.74995   0.00000  Uiso   1.00
C997   C     0.51418   0.87133   0.54775   0.00000  Uiso   1.00
C998   C     0.51450   0.79580   0.95357   0.00000  Uiso   1.00
C999   C     0.48579   0.87133   0.95225   0.00000  Uiso   1.00
C1000  C     0.48551   0.79579   0.54643   0.00000  Uiso   1.00
C1001  C     0.51389   0.87137   0.59374   0.00000  Uiso   1.00
C1002  C     0.51427   0.79559   0.90756   0.00000  Uiso   1.00
C1003  C     0.48609   0.87137   0.90626   0.00000  Uiso   1.00
C1004  C     0.57995   0.83334   0.75006   0.00000  Uiso   1.00
C1005  C     0.48574   0.79559   0.59244   0.00000  Uiso   1.00
C1006  C     0.49983   0.83342   0.61610   0.00000  Uiso   1.00
C1007  C     0.50017   0.83342   0.88390   0.00000  Uiso   1.00
C1008  C     0.49991   0.83358   0.52407   0.00000  Uiso   1.00
C1009  C     0.50009   0.83358   0.97593   0.00000  Uiso   1.00
C1010  C     0.62415   0.83339   0.75000   0.00000  Uiso   1.00
C1011  C     0.37585   0.83339   0.75000   0.00000  Uiso   1.00
C1012  C     0.56128   0.71451   0.80240   0.00000  Uiso   1.00
C1013  C     0.45235   0.95183   0.68364   0.00000  Uiso   1.00
C1014  C     0.43872   0.71451   0.69760   0.00000  Uiso   1.00
C1015  C     0.49989   0.83334   0.66403   0.00000  Uiso   1.00
C1016  C     0.54765   0.95183   0.81636   0.00000  Uiso   1.00
C1017  C     0.50011   0.83334   0.83597   0.00000  Uiso   1.00
C1018  C     0.52747   0.69057   0.77725   0.00000  Uiso   1.00
C1019  C     0.47511   0.97601   0.72012   0.00000  Uiso   1.00
C1020  C     0.47253   0.69057   0.72275   0.00000  Uiso   1.00
C1021  C     0.52489   0.97601   0.77988   0.00000  Uiso   1.00
C1022  C     0.35462   0.79252   0.75010   0.00000  Uiso   1.00
H1023  H     0.55657   0.74716   0.81641   0.00000  Uiso   1.00
H1024  H     0.52555   0.76619   0.89062   0.00000  Uiso   1.00
H1025  H     0.47479   0.90069   0.88823   0.00000  Uiso   1.00
H1026  H     0.47447   0.76618   0.60938   0.00000  Uiso   1.00
H1027  H     0.37070   0.76062   0.75036   0.00000  Uiso   1.00
H1028  H     0.62925   0.90622   0.75013   0.00000  Uiso   1.00
H1029  H     0.62930   0.76062   0.74963   0.00000  Uiso   1.00
H1030  H     0.37075   0.90622   0.74988   0.00000  Uiso   1.00
H1031  H     0.43669   0.92062   0.68951   0.00000  Uiso   1.00
H1032  H     0.44343   0.74716   0.68359   0.00000  Uiso   1.00
H1033  H     0.56330   0.92062   0.81049   0.00000  Uiso   1.00
H1034  H     0.52592   0.90048   0.53072   0.00000  Uiso   1.00
H1035  H     0.52620   0.76671   0.97169   0.00000  Uiso   1.00
H1036  H     0.47404   0.90046   0.96928   0.00000  Uiso   1.00
H1037  H     0.47382   0.76670   0.52831   0.00000  Uiso   1.00
H1038  H     0.52518   0.90070   0.61177   0.00000  Uiso   1.00
N1039  N     0.50000   0.95240   0.75000   0.00000  Uiso   1.00
N1040  N     0.50000   0.71427   0.75000   0.00000  Uiso   1.00
O1041  O     0.43892   0.87154   0.75000   0.00000  Uiso   1.00
O1042  O     0.45142   0.96667   0.64568   0.00000  Uiso   1.00
O1043  O     0.40411   0.69790   0.69299   0.00000  Uiso   1.00
O1044  O     0.54858   0.96667   0.85432   0.00000  Uiso   1.00
O1045  O     0.56108   0.79513   0.75001   0.00000  Uiso   1.00
O1046  O     0.56108   0.87154   0.75001   0.00000  Uiso   1.00
O1047  O     0.43892   0.79513   0.75000   0.00000  Uiso   1.00
O1048  O     0.50000   0.87155   0.68453   0.00000  Uiso   1.00
O1049  O     0.50000   0.79511   0.81547   0.00000  Uiso   1.00
O1050  O     0.50000   0.87155   0.81547   0.00000  Uiso   1.00
O1051  O     0.50000   0.79511   0.68453   0.00000  Uiso   1.00
O1052  O     0.59589   0.69790   0.80701   0.00000  Uiso   1.00
Zn1053 Zn    0.50000   0.88437   0.75000   0.00000  Uiso   1.00
Zn1054 Zn    0.50000   0.78229   0.75000   0.00000  Uiso   1.00
C1055  C     0.75339   0.83334   0.74995   0.00000  Uiso   1.00
C1056  C     0.97871   0.87431   0.75006   0.00000  Uiso   1.00
C1057  C     0.97872   0.79252   0.74990   0.00000  Uiso   1.00
C1058  C     0.68796   0.87431   0.74995   0.00000  Uiso   1.00
C1059  C     0.84752   0.87133   0.54775   0.00000  Uiso   1.00
C1060  C     0.84783   0.79580   0.95357   0.00000  Uiso   1.00
C1061  C     0.81913   0.87133   0.95225   0.00000  Uiso   1.00
C1062  C     0.81885   0.79579   0.54643   0.00000  Uiso   1.00
C1063  C     0.84722   0.87137   0.59374   0.00000  Uiso   1.00
C1064  C     0.84760   0.79559   0.90756   0.00000  Uiso   1.00
C1065  C     0.81942   0.87137   0.90626   0.00000  Uiso   1.00
C1066  C     0.91328   0.83334   0.75006   0.00000  Uiso   1.00
C1067  C     0.81908   0.79559   0.59244   0.00000  Uiso   1.00
C1068  C     0.83316   0.83342   0.61610   0.00000  Uiso   1.00
C1069  C     0.83350   0.83342   0.88390   0.00000  Uiso   1.00
C1070  C     0.83324   0.83358   0.52407   0.00000  Uiso   1.00
C1071  C     0.83342   0.83358   0.97593   0.00000  Uiso   1.00
C1072  C     0.95749   0.83339   0.75000   0.00000  Uiso   1.00
C1073  C     0.70918   0.83339   0.75000   0.00000  Uiso   1.00
C1074  C     0.89461   0.71451   0.80240   0.00000  Uiso   1.00
C1075  C     0.78568   0.95183   0.68364   0.00000  Uiso   1.00
C1076  C     0.77205   0.71451   0.69760   0.00000  Uiso   1.00
C1077  C     0.83322   0.83334   0.66403   0.00000  Uiso   1.00
C1078  C     0.88099   0.95183   0.81636   0.00000  Uiso   1.00
C1079  C     0.83345   0.83334   0.83597   0.00000  Uiso   1.00
C1080  C     0.86080   0.69057   0.77725   0.00000  Uiso   1.00
C1081  C     0.80844   0.97601   0.72012   0.00000  Uiso   1.00
C1082  C     0.80587   0.69057   0.72275   0.00000  Uiso   1.00
C1083  C     0.85823   0.97601   0.77988   0.00000  Uiso   1.00
C1084  C     0.68795   0.79252   0.75010   0.00000  Uiso   1.00
H1085  H     0.88990   0.74716   0.81641   0.00000  Uiso   1.00
H1086  H     0.85889   0.76619   0.89062   0.00000  Uiso   1.00
H1087  H     0.80812   0.90069   0.88823   0.00000  Uiso   1.00
H1088  H     0.80781   0.76618   0.60938   0.00000  Uiso   1.00
H1089  H     0.70404   0.76062   0.75036   0.00000  Uiso   1.00
H1090  H     0.96258   0.90622   0.75013   0.00000  Uiso   1.00
H1091  H     0.96263   0.76062   0.74963   0.00000  Uiso   1.00
H1092  H     0.70408   0.90622   0.74988   0.00000  Uiso   1.00
H1093  H     0.77003   0.92062   0.68951   0.00000  Uiso   1.00
H1094  H     0.77676   0.74716   0.68359   0.00000  Uiso   1.00
H1095  H     0.89664   0.92062   0.81049   0.00000  Uiso   1.00
H1096  H     0.85926   0.90048   0.53072   0.00000  Uiso   1.00
H1097  H     0.85953   0.76671   0.97169   0.00000  Uiso   1.00
H1098  H     0.80737   0.90046   0.96928   0.00000  Uiso   1.00
H1099  H     0.80716   0.76670   0.52831   0.00000  Uiso   1.00
H1100  H     0.85851   0.90070   0.61177   0.00000  Uiso   1.00
N1101  N     0.83333   0.95240   0.75000   0.00000  Uiso   1.00
N1102  N     0.83333   0.71427   0.75000   0.00000  Uiso   1.00
O1103  O     0.77226   0.87154   0.75000   0.00000  Uiso   1.00
O1104  O     0.78476   0.96667   0.64568   0.00000  Uiso   1.00
O1105  O     0.73745   0.69790   0.69299   0.00000  Uiso   1.00
O1106  O     0.88191   0.96667   0.85432   0.00000  Uiso   1.00
O1107  O     0.89441   0.79513   0.75001   0.00000  Uiso   1.00
O1108  O     0.89441   0.87154   0.75001   0.00000  Uiso   1.00
O1109  O     0.77226   0.79513   0.75000   0.00000  Uiso   1.00
O1110  O     0.83333   0.87155   0.68453   0.00000  Uiso   1.00
O1111  O     0.83334   0.79511   0.81547   0.00000  Uiso   1.00
O1112  O     0.83334   0.87155   0.81547   0.00000  Uiso   1.00
O1113  O     0.83333   0.79511   0.68453   0.00000  Uiso   1.00
O1114  O     0.92922   0.69790   0.80701   0.00000  Uiso   1.00
Zn1115 Zn    0.83333   0.88437   0.75000   0.00000  Uiso   1.00
Zn1116 Zn    0.83333   0.78229   0.75000   0.00000  Uiso   1.00
loop_
_geom_bond_atom_site_label_1
_geom_bond_atom_site_label_2
_geom_bond_distance
_geom_bond_site_symmetry_2
_ccdc_geom_bond_type
C1     O55     1.291   .     A
C1     O49     1.290   .     A
C1     C19     1.422   .     S
C2     C18     1.398   .     A
C2     H36     1.084   .     S
C2     C66     1.370   .     S
C3     H37     1.083   .     S
C3     C18     1.397   .     A
C3     C92     1.369   .     S
C4     H38     1.084   .     S
C4     C19     1.398   .     A
C4     C126    1.370   1_455 S
C5     H42     1.083   .     S
C5     C9      1.380   .     A
C5     C16     1.399   .     A
C6     C10     1.380   .     A
C6     H43     1.083   .     S
C6     C17     1.399   .     A
C7     H44     1.083   .     S
C7     C11     1.380   .     A
C7     C17     1.399   .     A
C8     C13     1.380   .     A
C8     C16     1.399   .     A
C8     H45     1.083   .     S
C9     C14     1.399   .     A
C9     H46     1.084   .     S
C10    H32     1.083   .     S
C10    C15     1.399   .     A
C11    H33     1.084   .     S
C11    C15     1.399   .     A
C12    O53     1.291   .     A
C12    C18     1.422   .     S
C12    O54     1.290   .     A
C13    C14     1.399   .     A
C13    H34     1.083   .     S
C14    C23     1.438   .     S
C15    C25     1.438   .     S
C16    C575    1.445   1_554 S
C17    C574    1.445   .     S
C19    C30     1.397   .     A
C20    C26     1.483   .     S
C20    O60     1.221   .     D
C20    H31     1.073   .     S
C21    H39     1.076   .     S
C21    O50     1.221   .     D
C21    C27     1.481   .     S
C22    H40     1.073   .     S
C22    C28     1.483   .     S
C22    O51     1.221   .     D
C23    O56     1.295   .     A
C23    O59     1.295   .     A
C24    H41     1.076   .     S
C24    O52     1.221   .     D
C24    C29     1.481   .     S
C25    O58     1.295   .     A
C25    O57     1.295   .     A
C26    N48     1.376   .     A
C26    C401    1.433   1_545 S
C27    N47     1.373   .     A
C27    C214    1.433   .     S
C28    N48     1.376   .     A
C28    C399    1.433   1_545 S
C29    N47     1.373   .     A
C29    C212    1.433   .     S
C30    H35     1.083   .     S
C30    C127    1.369   1_455 S
N47    Zn61    2.028   .     S
N48    Zn62    2.028   .     S
O49    Zn61    2.001   .     S
O53    Zn62    2.001   .     S
O54    Zn61    2.001   .     S
O55    Zn62    2.001   .     S
O56    Zn61    2.001   .     S
O57    Zn62    2.001   .     S
O58    Zn61    2.001   .     S
O59    Zn62    2.001   .     S
C63    O117    1.291   .     A
C63    O111    1.290   .     A
C63    C81     1.422   .     S
C64    C80     1.398   .     A
C64    H98     1.084   .     S
C64    C128    1.370   .     S
C65    H99     1.083   .     S
C65    C80     1.397   .     A
C65    C154    1.369   .     S
C66    H100    1.084   .     S
C66    C81     1.398   .     A
C67    H104    1.083   .     S
C67    C71     1.380   .     A
C67    C78     1.399   .     A
C68    C72     1.380   .     A
C68    H105    1.083   .     S
C68    C79     1.399   .     A
C69    H106    1.083   .     S
C69    C73     1.380   .     A
C69    C79     1.399   .     A
C70    C75     1.380   .     A
C70    C78     1.399   .     A
C70    H107    1.083   .     S
C71    C76     1.399   .     A
C71    H108    1.084   .     S
C72    H94     1.083   .     S
C72    C77     1.399   .     A
C73    H95     1.084   .     S
C73    C77     1.399   .     A
C74    O115    1.291   .     A
C74    C80     1.422   .     S
C74    O116    1.290   .     A
C75    C76     1.399   .     A
C75    H96     1.083   .     S
C76    C85     1.438   .     S
C77    C87     1.438   .     S
C78    C637    1.445   1_554 S
C79    C636    1.445   .     S
C81    C92     1.397   .     A
C82    C88     1.483   .     S
C82    O122    1.221   .     D
C82    H93     1.073   .     S
C83    H101    1.076   .     S
C83    O112    1.221   .     D
C83    C89     1.481   .     S
C84    H102    1.073   .     S
C84    C90     1.483   .     S
C84    O113    1.221   .     D
C85    O118    1.295   .     A
C85    O121    1.295   .     A
C86    H103    1.076   .     S
C86    O114    1.221   .     D
C86    C91     1.481   .     S
C87    O120    1.295   .     A
C87    O119    1.295   .     A
C88    N110    1.376   .     A
C88    C463    1.433   1_545 S
C89    N109    1.373   .     A
C89    C276    1.433   .     S
C90    N110    1.376   .     A
C90    C461    1.433   1_545 S
C91    N109    1.373   .     A
C91    C274    1.433   .     S
C92    H97     1.083   .     S
N109   Zn123   2.028   .     S
N110   Zn124   2.028   .     S
O111   Zn123   2.001   .     S
O115   Zn124   2.001   .     S
O116   Zn123   2.001   .     S
O117   Zn124   2.001   .     S
O118   Zn123   2.001   .     S
O119   Zn124   2.001   .     S
O120   Zn123   2.001   .     S
O121   Zn124   2.001   .     S
C125   O179    1.291   .     A
C125   O173    1.290   .     A
C125   C143    1.422   .     S
C126   C142    1.398   .     A
C126   H160    1.084   .     S
C126   C4      1.370   1_655 S
C127   H161    1.083   .     S
C127   C142    1.397   .     A
C127   C30     1.369   1_655 S
C128   H162    1.084   .     S
C128   C143    1.398   .     A
C129   H166    1.083   .     S
C129   C133    1.380   .     A
C129   C140    1.399   .     A
C130   C134    1.380   .     A
C130   H167    1.083   .     S
C130   C141    1.399   .     A
C131   H168    1.083   .     S
C131   C135    1.380   .     A
C131   C141    1.399   .     A
C132   C137    1.380   .     A
C132   C140    1.399   .     A
C132   H169    1.083   .     S
C133   C138    1.399   .     A
C133   H170    1.084   .     S
C134   H156    1.083   .     S
C134   C139    1.399   .     A
C135   H157    1.084   .     S
C135   C139    1.399   .     A
C136   O177    1.291   .     A
C136   C142    1.422   .     S
C136   O178    1.290   .     A
C137   C138    1.399   .     A
C137   H158    1.083   .     S
C138   C147    1.438   .     S
C139   C149    1.438   .     S
C140   C699    1.445   1_554 S
C141   C698    1.445   .     S
C143   C154    1.397   .     A
C144   C150    1.483   .     S
C144   O184    1.221   .     D
C144   H155    1.073   .     S
C145   H163    1.076   .     S
C145   O174    1.221   .     D
C145   C151    1.481   .     S
C146   H164    1.073   .     S
C146   C152    1.483   .     S
C146   O175    1.221   .     D
C147   O180    1.295   .     A
C147   O183    1.295   .     A
C148   H165    1.076   .     S
C148   O176    1.221   .     D
C148   C153    1.481   .     S
C149   O182    1.295   .     A
C149   O181    1.295   .     A
C150   N172    1.376   .     A
C150   C525    1.433   1_545 S
C151   N171    1.373   .     A
C151   C338    1.433   .     S
C152   N172    1.376   .     A
C152   C523    1.433   1_545 S
C153   N171    1.373   .     A
C153   C336    1.433   .     S
C154   H159    1.083   .     S
N171   Zn185   2.028   .     S
N172   Zn186   2.028   .     S
O173   Zn185   2.001   .     S
O177   Zn186   2.001   .     S
O178   Zn185   2.001   .     S
O179   Zn186   2.001   .     S
O180   Zn185   2.001   .     S
O181   Zn186   2.001   .     S
O182   Zn185   2.001   .     S
O183   Zn186   2.001   .     S
C187   O241    1.291   .     A
C187   O235    1.290   .     A
C187   C205    1.422   .     S
C188   C204    1.398   .     A
C188   H222    1.084   .     S
C188   C252    1.370   .     S
C189   H223    1.083   .     S
C189   C204    1.397   .     A
C189   C278    1.369   .     S
C190   H224    1.084   .     S
C190   C205    1.398   .     A
C190   C312    1.370   1_455 S
C191   H228    1.083   .     S
C191   C195    1.380   .     A
C191   C202    1.399   .     A
C192   C196    1.380   .     A
C192   H229    1.083   .     S
C192   C203    1.399   .     A
C193   H230    1.083   .     S
C193   C197    1.380   .     A
C193   C203    1.399   .     A
C194   C199    1.380   .     A
C194   C202    1.399   .     A
C194   H231    1.083   .     S
C195   C200    1.399   .     A
C195   H232    1.084   .     S
C196   H218    1.083   .     S
C196   C201    1.399   .     A
C197   H219    1.084   .     S
C197   C201    1.399   .     A
C198   O239    1.291   .     A
C198   C204    1.422   .     S
C198   O240    1.290   .     A
C199   C200    1.399   .     A
C199   H220    1.083   .     S
C200   C209    1.438   .     S
C201   C211    1.438   .     S
C202   C761    1.445   1_554 S
C203   C760    1.445   .     S
C205   C216    1.397   .     A
C206   C212    1.483   .     S
C206   O246    1.221   .     D
C206   H217    1.073   .     S
C207   H225    1.076   .     S
C207   O236    1.221   .     D
C207   C213    1.481   .     S
C208   H226    1.073   .     S
C208   C214    1.483   .     S
C208   O237    1.221   .     D
C209   O242    1.295   .     A
C209   O245    1.295   .     A
C210   H227    1.076   .     S
C210   O238    1.221   .     D
C210   C215    1.481   .     S
C211   O244    1.295   .     A
C211   O243    1.295   .     A
C212   N234    1.376   .     A
C213   N233    1.373   .     A
C213   C400    1.433   .     S
C214   N234    1.376   .     A
C215   N233    1.373   .     A
C215   C398    1.433   .     S
C216   H221    1.083   .     S
C216   C313    1.369   1_455 S
N233   Zn247   2.028   .     S
N234   Zn248   2.028   .     S
O235   Zn247   2.001   .     S
O239   Zn248   2.001   .     S
O240   Zn247   2.001   .     S
O241   Zn248   2.001   .     S
O242   Zn247   2.001   .     S
O243   Zn248   2.001   .     S
O244   Zn247   2.001   .     S
O245   Zn248   2.001   .     S
C249   O303    1.291   .     A
C249   O297    1.290   .     A
C249   C267    1.422   .     S
C250   C266    1.398   .     A
C250   H284    1.084   .     S
C250   C314    1.370   .     S
C251   H285    1.083   .     S
C251   C266    1.397   .     A
C251   C340    1.369   .     S
C252   H286    1.084   .     S
C252   C267    1.398   .     A
C253   H290    1.083   .     S
C253   C257    1.380   .     A
C253   C264    1.399   .     A
C254   C258    1.380   .     A
C254   H291    1.083   .     S
C254   C265    1.399   .     A
C255   H292    1.083   .     S
C255   C259    1.380   .     A
C255   C265    1.399   .     A
C256   C261    1.380   .     A
C256   C264    1.399   .     A
C256   H293    1.083   .     S
C257   C262    1.399   .     A
C257   H294    1.084   .     S
C258   H280    1.083   .     S
C258   C263    1.399   .     A
C259   H281    1.084   .     S
C259   C263    1.399   .     A
C260   O301    1.291   .     A
C260   C266    1.422   .     S
C260   O302    1.290   .     A
C261   C262    1.399   .     A
C261   H282    1.083   .     S
C262   C271    1.438   .     S
C263   C273    1.438   .     S
C264   C823    1.445   1_554 S
C265   C822    1.445   .     S
C267   C278    1.397   .     A
C268   C274    1.483   .     S
C268   O308    1.221   .     D
C268   H279    1.073   .     S
C269   H287    1.076   .     S
C269   O298    1.221   .     D
C269   C275    1.481   .     S
C270   H288    1.073   .     S
C270   C276    1.483   .     S
C270   O299    1.221   .     D
C271   O304    1.295   .     A
C271   O307    1.295   .     A
C272   H289    1.076   .     S
C272   O300    1.221   .     D
C272   C277    1.481   .     S
C273   O306    1.295   .     A
C273   O305    1.295   .     A
C274   N296    1.376   .     A
C275   N295    1.373   .     A
C275   C462    1.433   .     S
C276   N296    1.376   .     A
C277   N295    1.373   .     A
C277   C460    1.433   .     S
C278   H283    1.083   .     S
N295   Zn309   2.028   .     S
N296   Zn310   2.028   .     S
O297   Zn309   2.001   .     S
O301   Zn310   2.001   .     S
O302   Zn309   2.001   .     S
O303   Zn310   2.001   .     S
O304   Zn309   2.001   .     S
O305   Zn310   2.001   .     S
O306   Zn309   2.001   .     S
O307   Zn310   2.001   .     S
C311   O365    1.291   .     A
C311   O359    1.290   .     A
C311   C329    1.422   .     S
C312   C328    1.398   .     A
C312   H346    1.084   .     S
C312   C190    1.370   1_655 S
C313   H347    1.083   .     S
C313   C328    1.397   .     A
C313   C216    1.369   1_655 S
C314   H348    1.084   .     S
C314   C329    1.398   .     A
C315   H352    1.083   .     S
C315   C319    1.380   .     A
C315   C326    1.399   .     A
C316   C320    1.380   .     A
C316   H353    1.083   .     S
C316   C327    1.399   .     A
C317   H354    1.083   .     S
C317   C321    1.380   .     A
C317   C327    1.399   .     A
C318   C323    1.380   .     A
C318   C326    1.399   .     A
C318   H355    1.083   .     S
C319   C324    1.399   .     A
C319   H356    1.084   .     S
C320   H342    1.083   .     S
C320   C325    1.399   .     A
C321   H343    1.084   .     S
C321   C325    1.399   .     A
C322   O363    1.291   .     A
C322   C328    1.422   .     S
C322   O364    1.290   .     A
C323   C324    1.399   .     A
C323   H344    1.083   .     S
C324   C333    1.438   .     S
C325   C335    1.438   .     S
C326   C885    1.445   1_554 S
C327   C884    1.445   .     S
C329   C340    1.397   .     A
C330   C336    1.483   .     S
C330   O370    1.221   .     D
C330   H341    1.073   .     S
C331   H349    1.076   .     S
C331   O360    1.221   .     D
C331   C337    1.481   .     S
C332   H350    1.073   .     S
C332   C338    1.483   .     S
C332   O361    1.221   .     D
C333   O366    1.295   .     A
C333   O369    1.295   .     A
C334   H351    1.076   .     S
C334   O362    1.221   .     D
C334   C339    1.481   .     S
C335   O368    1.295   .     A
C335   O367    1.295   .     A
C336   N358    1.376   .     A
C337   N357    1.373   .     A
C337   C524    1.433   .     S
C338   N358    1.376   .     A
C339   N357    1.373   .     A
C339   C522    1.433   .     S
C340   H345    1.083   .     S
N357   Zn371   2.028   .     S
N358   Zn372   2.028   .     S
O359   Zn371   2.001   .     S
O363   Zn372   2.001   .     S
O364   Zn371   2.001   .     S
O365   Zn372   2.001   .     S
O366   Zn371   2.001   .     S
O367   Zn372   2.001   .     S
O368   Zn371   2.001   .     S
O369   Zn372   2.001   .     S
C373   O427    1.291   .     A
C373   O421    1.290   .     A
C373   C391    1.422   .     S
C374   C390    1.398   .     A
C374   H408    1.084   .     S
C374   C438    1.370   .     S
C375   H409    1.083   .     S
C375   C390    1.397   .     A
C375   C464    1.369   .     S
C376   H410    1.084   .     S
C376   C391    1.398   .     A
C376   C498    1.370   1_455 S
C377   H414    1.083   .     S
C377   C381    1.380   .     A
C377   C388    1.399   .     A
C378   C382    1.380   .     A
C378   H415    1.083   .     S
C378   C389    1.399   .     A
C379   H416    1.083   .     S
C379   C383    1.380   .     A
C379   C389    1.399   .     A
C380   C385    1.380   .     A
C380   C388    1.399   .     A
C380   H417    1.083   .     S
C381   C386    1.399   .     A
C381   H418    1.084   .     S
C382   H404    1.083   .     S
C382   C387    1.399   .     A
C383   H405    1.084   .     S
C383   C387    1.399   .     A
C384   O425    1.291   .     A
C384   C390    1.422   .     S
C384   O426    1.290   .     A
C385   C386    1.399   .     A
C385   H406    1.083   .     S
C386   C395    1.438   .     S
C387   C397    1.438   .     S
C388   C947    1.445   1_554 S
C389   C946    1.445   .     S
C391   C402    1.397   .     A
C392   C398    1.483   .     S
C392   O432    1.221   .     D
C392   H403    1.073   .     S
C393   H411    1.076   .     S
C393   O422    1.221   .     D
C393   C399    1.481   .     S
C394   H412    1.073   .     S
C394   C400    1.483   .     S
C394   O423    1.221   .     D
C395   O428    1.295   .     A
C395   O431    1.295   .     A
C396   H413    1.076   .     S
C396   O424    1.221   .     D
C396   C401    1.481   .     S
C397   O430    1.295   .     A
C397   O429    1.295   .     A
C398   N420    1.376   .     A
C399   N419    1.373   .     A
C399   C28     1.433   1_565 S
C400   N420    1.376   .     A
C401   N419    1.373   .     A
C401   C26     1.433   1_565 S
C402   H407    1.083   .     S
C402   C499    1.369   1_455 S
N419   Zn433   2.028   .     S
N420   Zn434   2.028   .     S
O421   Zn433   2.001   .     S
O425   Zn434   2.001   .     S
O426   Zn433   2.001   .     S
O427   Zn434   2.001   .     S
O428   Zn433   2.001   .     S
O429   Zn434   2.001   .     S
O430   Zn433   2.001   .     S
O431   Zn434   2.001   .     S
C435   O489    1.291   .     A
C435   O483    1.290   .     A
C435   C453    1.422   .     S
C436   C452    1.398   .     A
C436   H470    1.084   .     S
C436   C500    1.370   .     S
C437   H471    1.083   .     S
C437   C452    1.397   .     A
C437   C526    1.369   .     S
C438   H472    1.084   .     S
C438   C453    1.398   .     A
C439   H476    1.083   .     S
C439   C443    1.380   .     A
C439   C450    1.399   .     A
C440   C444    1.380   .     A
C440   H477    1.083   .     S
C440   C451    1.399   .     A
C441   H478    1.083   .     S
C441   C445    1.380   .     A
C441   C451    1.399   .     A
C442   C447    1.380   .     A
C442   C450    1.399   .     A
C442   H479    1.083   .     S
C443   C448    1.399   .     A
C443   H480    1.084   .     S
C444   H466    1.083   .     S
C444   C449    1.399   .     A
C445   H467    1.084   .     S
C445   C449    1.399   .     A
C446   O487    1.291   .     A
C446   C452    1.422   .     S
C446   O488    1.290   .     A
C447   C448    1.399   .     A
C447   H468    1.083   .     S
C448   C457    1.438   .     S
C449   C459    1.438   .     S
C450   C1009   1.445   1_554 S
C451   C1008   1.445   .     S
C453   C464    1.397   .     A
C454   C460    1.483   .     S
C454   O494    1.221   .     D
C454   H465    1.073   .     S
C455   H473    1.076   .     S
C455   O484    1.221   .     D
C455   C461    1.481   .     S
C456   H474    1.073   .     S
C456   C462    1.483   .     S
C456   O485    1.221   .     D
C457   O490    1.295   .     A
C457   O493    1.295   .     A
C458   H475    1.076   .     S
C458   O486    1.221   .     D
C458   C463    1.481   .     S
C459   O492    1.295   .     A
C459   O491    1.295   .     A
C460   N482    1.376   .     A
C461   N481    1.373   .     A
C461   C90     1.433   1_565 S
C462   N482    1.376   .     A
C463   N481    1.373   .     A
C463   C88     1.433   1_565 S
C464   H469    1.083   .     S
N481   Zn495   2.028   .     S
N482   Zn496   2.028   .     S
O483   Zn495   2.001   .     S
O487   Zn496   2.001   .     S
O488   Zn495   2.001   .     S
O489   Zn496   2.001   .     S
O490   Zn495   2.001   .     S
O491   Zn496   2.001   .     S
O492   Zn495   2.001   .     S
O493   Zn496   2.001   .     S
C497   O551    1.291   .     A
C497   O545    1.290   .     A
C497   C515    1.422   .     S
C498   C514    1.398   .     A
C498   H532    1.084   .     S
C498   C376    1.370   1_655 S
C499   H533    1.083   .     S
C499   C514    1.397   .     A
C499   C402    1.369   1_655 S
C500   H534    1.084   .     S
C500   C515    1.398   .     A
C501   H538    1.083   .     S
C501   C505    1.380   .     A
C501   C512    1.399   .     A
C502   C506    1.380   .     A
C502   H539    1.083   .     S
C502   C513    1.399   .     A
C503   H540    1.083   .     S
C503   C507    1.380   .     A
C503   C513    1.399   .     A
C504   C509    1.380   .     A
C504   C512    1.399   .     A
C504   H541    1.083   .     S
C505   C510    1.399   .     A
C505   H542    1.084   .     S
C506   H528    1.083   .     S
C506   C511    1.399   .     A
C507   H529    1.084   .     S
C507   C511    1.399   .     A
C508   O549    1.291   .     A
C508   C514    1.422   .     S
C508   O550    1.290   .     A
C509   C510    1.399   .     A
C509   H530    1.083   .     S
C510   C519    1.438   .     S
C511   C521    1.438   .     S
C512   C1071   1.445   1_554 S
C513   C1070   1.445   .     S
C515   C526    1.397   .     A
C516   C522    1.483   .     S
C516   O556    1.221   .     D
C516   H527    1.073   .     S
C517   H535    1.076   .     S
C517   O546    1.221   .     D
C517   C523    1.481   .     S
C518   H536    1.073   .     S
C518   C524    1.483   .     S
C518   O547    1.221   .     D
C519   O552    1.295   .     A
C519   O555    1.295   .     A
C520   H537    1.076   .     S
C520   O548    1.221   .     D
C520   C525    1.481   .     S
C521   O554    1.295   .     A
C521   O553    1.295   .     A
C522   N544    1.376   .     A
C523   N543    1.373   .     A
C523   C152    1.433   1_565 S
C524   N544    1.376   .     A
C525   N543    1.373   .     A
C525   C150    1.433   1_565 S
C526   H531    1.083   .     S
N543   Zn557   2.028   .     S
N544   Zn558   2.028   .     S
O545   Zn557   2.001   .     S
O549   Zn558   2.001   .     S
O550   Zn557   2.001   .     S
O551   Zn558   2.001   .     S
O552   Zn557   2.001   .     S
O553   Zn558   2.001   .     S
O554   Zn557   2.001   .     S
O555   Zn558   2.001   .     S
C559   O613    1.291   .     A
C559   O607    1.290   .     A
C559   C577    1.422   .     S
C560   C576    1.398   .     A
C560   H594    1.084   .     S
C560   C624    1.370   .     S
C561   H595    1.083   .     S
C561   C576    1.397   .     A
C561   C650    1.369   .     S
C562   H596    1.084   .     S
C562   C577    1.398   .     A
C562   C684    1.370   1_455 S
C563   H600    1.083   .     S
C563   C567    1.380   .     A
C563   C574    1.399   .     A
C564   C568    1.380   .     A
C564   H601    1.083   .     S
C564   C575    1.399   .     A
C565   H602    1.083   .     S
C565   C569    1.380   .     A
C565   C575    1.399   .     A
C566   C571    1.380   .     A
C566   C574    1.399   .     A
C566   H603    1.083   .     S
C567   C572    1.399   .     A
C567   H604    1.084   .     S
C568   H590    1.083   .     S
C568   C573    1.399   .     A
C569   H591    1.084   .     S
C569   C573    1.399   .     A
C570   O611    1.291   .     A
C570   C576    1.422   .     S
C570   O612    1.290   .     A
C571   C572    1.399   .     A
C571   H592    1.083   .     S
C572   C581    1.438   .     S
C573   C583    1.438   .     S
C575   C16     1.445   1_556 S
C577   C588    1.397   .     A
C578   C584    1.483   .     S
C578   O618    1.221   .     D
C578   H589    1.073   .     S
C579   H597    1.076   .     S
C579   O608    1.221   .     D
C579   C585    1.481   .     S
C580   H598    1.073   .     S
C580   C586    1.483   .     S
C580   O609    1.221   .     D
C581   O614    1.295   .     A
C581   O617    1.295   .     A
C582   H599    1.076   .     S
C582   O610    1.221   .     D
C582   C587    1.481   .     S
C583   O616    1.295   .     A
C583   O615    1.295   .     A
C584   N606    1.376   .     A
C584   C959    1.433   1_545 S
C585   N605    1.373   .     A
C585   C772    1.433   .     S
C586   N606    1.376   .     A
C586   C957    1.433   1_545 S
C587   N605    1.373   .     A
C587   C770    1.433   .     S
C588   H593    1.083   .     S
C588   C685    1.369   1_455 S
N605   Zn619   2.028   .     S
N606   Zn620   2.028   .     S
O607   Zn619   2.001   .     S
O611   Zn620   2.001   .     S
O612   Zn619   2.001   .     S
O613   Zn620   2.001   .     S
O614   Zn619   2.001   .     S
O615   Zn620   2.001   .     S
O616   Zn619   2.001   .     S
O617   Zn620   2.001   .     S
C621   O675    1.291   .     A
C621   O669    1.290   .     A
C621   C639    1.422   .     S
C622   C638    1.398   .     A
C622   H656    1.084   .     S
C622   C686    1.370   .     S
C623   H657    1.083   .     S
C623   C638    1.397   .     A
C623   C712    1.369   .     S
C624   H658    1.084   .     S
C624   C639    1.398   .     A
C625   H662    1.083   .     S
C625   C629    1.380   .     A
C625   C636    1.399   .     A
C626   C630    1.380   .     A
C626   H663    1.083   .     S
C626   C637    1.399   .     A
C627   H664    1.083   .     S
C627   C631    1.380   .     A
C627   C637    1.399   .     A
C628   C633    1.380   .     A
C628   C636    1.399   .     A
C628   H665    1.083   .     S
C629   C634    1.399   .     A
C629   H666    1.084   .     S
C630   H652    1.083   .     S
C630   C635    1.399   .     A
C631   H653    1.084   .     S
C631   C635    1.399   .     A
C632   O673    1.291   .     A
C632   C638    1.422   .     S
C632   O674    1.290   .     A
C633   C634    1.399   .     A
C633   H654    1.083   .     S
C634   C643    1.438   .     S
C635   C645    1.438   .     S
C637   C78     1.445   1_556 S
C639   C650    1.397   .     A
C640   C646    1.483   .     S
C640   O680    1.221   .     D
C640   H651    1.073   .     S
C641   H659    1.076   .     S
C641   O670    1.221   .     D
C641   C647    1.481   .     S
C642   H660    1.073   .     S
C642   C648    1.483   .     S
C642   O671    1.221   .     D
C643   O676    1.295   .     A
C643   O679    1.295   .     A
C644   H661    1.076   .     S
C644   O672    1.221   .     D
C644   C649    1.481   .     S
C645   O678    1.295   .     A
C645   O677    1.295   .     A
C646   N668    1.376   .     A
C646   C1021   1.433   1_545 S
C647   N667    1.373   .     A
C647   C834    1.433   .     S
C648   N668    1.376   .     A
C648   C1019   1.433   1_545 S
C649   N667    1.373   .     A
C649   C832    1.433   .     S
C650   H655    1.083   .     S
N667   Zn681   2.028   .     S
N668   Zn682   2.028   .     S
O669   Zn681   2.001   .     S
O673   Zn682   2.001   .     S
O674   Zn681   2.001   .     S
O675   Zn682   2.001   .     S
O676   Zn681   2.001   .     S
O677   Zn682   2.001   .     S
O678   Zn681   2.001   .     S
O679   Zn682   2.001   .     S
C683   O737    1.291   .     A
C683   O731    1.290   .     A
C683   C701    1.422   .     S
C684   C700    1.398   .     A
C684   H718    1.084   .     S
C684   C562    1.370   1_655 S
C685   H719    1.083   .     S
C685   C700    1.397   .     A
C685   C588    1.369   1_655 S
C686   H720    1.084   .     S
C686   C701    1.398   .     A
C687   H724    1.083   .     S
C687   C691    1.380   .     A
C687   C698    1.399   .     A
C688   C692    1.380   .     A
C688   H725    1.083   .     S
C688   C699    1.399   .     A
C689   H726    1.083   .     S
C689   C693    1.380   .     A
C689   C699    1.399   .     A
C690   C695    1.380   .     A
C690   C698    1.399   .     A
C690   H727    1.083   .     S
C691   C696    1.399   .     A
C691   H728    1.084   .     S
C692   H714    1.083   .     S
C692   C697    1.399   .     A
C693   H715    1.084   .     S
C693   C697    1.399   .     A
C694   O735    1.291   .     A
C694   C700    1.422   .     S
C694   O736    1.290   .     A
C695   C696    1.399   .     A
C695   H716    1.083   .     S
C696   C705    1.438   .     S
C697   C707    1.438   .     S
C699   C140    1.445   1_556 S
C701   C712    1.397   .     A
C702   C708    1.483   .     S
C702   O742    1.221   .     D
C702   H713    1.073   .     S
C703   H721    1.076   .     S
C703   O732    1.221   .     D
C703   C709    1.481   .     S
C704   H722    1.073   .     S
C704   C710    1.483   .     S
C704   O733    1.221   .     D
C705   O738    1.295   .     A
C705   O741    1.295   .     A
C706   H723    1.076   .     S
C706   O734    1.221   .     D
C706   C711    1.481   .     S
C707   O740    1.295   .     A
C707   O739    1.295   .     A
C708   N730    1.376   .     A
C708   C1083   1.433   1_545 S
C709   N729    1.373   .     A
C709   C896    1.433   .     S
C710   N730    1.376   .     A
C710   C1081   1.433   1_545 S
C711   N729    1.373   .     A
C711   C894    1.433   .     S
C712   H717    1.083   .     S
N729   Zn743   2.028   .     S
N730   Zn744   2.028   .     S
O731   Zn743   2.001   .     S
O735   Zn744   2.001   .     S
O736   Zn743   2.001   .     S
O737   Zn744   2.001   .     S
O738   Zn743   2.001   .     S
O739   Zn744   2.001   .     S
O740   Zn743   2.001   .     S
O741   Zn744   2.001   .     S
C745   O799    1.291   .     A
C745   O793    1.290   .     A
C745   C763    1.422   .     S
C746   C762    1.398   .     A
C746   H780    1.084   .     S
C746   C810    1.370   .     S
C747   H781    1.083   .     S
C747   C762    1.397   .     A
C747   C836    1.369   .     S
C748   H782    1.084   .     S
C748   C763    1.398   .     A
C748   C870    1.370   1_455 S
C749   H786    1.083   .     S
C749   C753    1.380   .     A
C749   C760    1.399   .     A
C750   C754    1.380   .     A
C750   H787    1.083   .     S
C750   C761    1.399   .     A
C751   H788    1.083   .     S
C751   C755    1.380   .     A
C751   C761    1.399   .     A
C752   C757    1.380   .     A
C752   C760    1.399   .     A
C752   H789    1.083   .     S
C753   C758    1.399   .     A
C753   H790    1.084   .     S
C754   H776    1.083   .     S
C754   C759    1.399   .     A
C755   H777    1.084   .     S
C755   C759    1.399   .     A
C756   O797    1.291   .     A
C756   C762    1.422   .     S
C756   O798    1.290   .     A
C757   C758    1.399   .     A
C757   H778    1.083   .     S
C758   C767    1.438   .     S
C759   C769    1.438   .     S
C761   C202    1.445   1_556 S
C763   C774    1.397   .     A
C764   C770    1.483   .     S
C764   O804    1.221   .     D
C764   H775    1.073   .     S
C765   H783    1.076   .     S
C765   O794    1.221   .     D
C765   C771    1.481   .     S
C766   H784    1.073   .     S
C766   C772    1.483   .     S
C766   O795    1.221   .     D
C767   O800    1.295   .     A
C767   O803    1.295   .     A
C768   H785    1.076   .     S
C768   O796    1.221   .     D
C768   C773    1.481   .     S
C769   O802    1.295   .     A
C769   O801    1.295   .     A
C770   N792    1.376   .     A
C771   N791    1.373   .     A
C771   C958    1.433   .     S
C772   N792    1.376   .     A
C773   N791    1.373   .     A
C773   C956    1.433   .     S
C774   H779    1.083   .     S
C774   C871    1.369   1_455 S
N791   Zn805   2.028   .     S
N792   Zn806   2.028   .     S
O793   Zn805   2.001   .     S
O797   Zn806   2.001   .     S
O798   Zn805   2.001   .     S
O799   Zn806   2.001   .     S
O800   Zn805   2.001   .     S
O801   Zn806   2.001   .     S
O802   Zn805   2.001   .     S
O803   Zn806   2.001   .     S
C807   O861    1.291   .     A
C807   O855    1.290   .     A
C807   C825    1.422   .     S
C808   C824    1.398   .     A
C808   H842    1.084   .     S
C808   C872    1.370   .     S
C809   H843    1.083   .     S
C809   C824    1.397   .     A
C809   C898    1.369   .     S
C810   H844    1.084   .     S
C810   C825    1.398   .     A
C811   H848    1.083   .     S
C811   C815    1.380   .     A
C811   C822    1.399   .     A
C812   C816    1.380   .     A
C812   H849    1.083   .     S
C812   C823    1.399   .     A
C813   H850    1.083   .     S
C813   C817    1.380   .     A
C813   C823    1.399   .     A
C814   C819    1.380   .     A
C814   C822    1.399   .     A
C814   H851    1.083   .     S
C815   C820    1.399   .     A
C815   H852    1.084   .     S
C816   H838    1.083   .     S
C816   C821    1.399   .     A
C817   H839    1.084   .     S
C817   C821    1.399   .     A
C818   O859    1.291   .     A
C818   C824    1.422   .     S
C818   O860    1.290   .     A
C819   C820    1.399   .     A
C819   H840    1.083   .     S
C820   C829    1.438   .     S
C821   C831    1.438   .     S
C823   C264    1.445   1_556 S
C825   C836    1.397   .     A
C826   C832    1.483   .     S
C826   O866    1.221   .     D
C826   H837    1.073   .     S
C827   H845    1.076   .     S
C827   O856    1.221   .     D
C827   C833    1.481   .     S
C828   H846    1.073   .     S
C828   C834    1.483   .     S
C828   O857    1.221   .     D
C829   O862    1.295   .     A
C829   O865    1.295   .     A
C830   H847    1.076   .     S
C830   O858    1.221   .     D
C830   C835    1.481   .     S
C831   O864    1.295   .     A
C831   O863    1.295   .     A
C832   N854    1.376   .     A
C833   N853    1.373   .     A
C833   C1020   1.433   .     S
C834   N854    1.376   .     A
C835   N853    1.373   .     A
C835   C1018   1.433   .     S
C836   H841    1.083   .     S
N853   Zn867   2.028   .     S
N854   Zn868   2.028   .     S
O855   Zn867   2.001   .     S
O859   Zn868   2.001   .     S
O860   Zn867   2.001   .     S
O861   Zn868   2.001   .     S
O862   Zn867   2.001   .     S
O863   Zn868   2.001   .     S
O864   Zn867   2.001   .     S
O865   Zn868   2.001   .     S
C869   O923    1.291   .     A
C869   O917    1.290   .     A
C869   C887    1.422   .     S
C870   C886    1.398   .     A
C870   H904    1.084   .     S
C870   C748    1.370   1_655 S
C871   H905    1.083   .     S
C871   C886    1.397   .     A
C871   C774    1.369   1_655 S
C872   H906    1.084   .     S
C872   C887    1.398   .     A
C873   H910    1.083   .     S
C873   C877    1.380   .     A
C873   C884    1.399   .     A
C874   C878    1.380   .     A
C874   H911    1.083   .     S
C874   C885    1.399   .     A
C875   H912    1.083   .     S
C875   C879    1.380   .     A
C875   C885    1.399   .     A
C876   C881    1.380   .     A
C876   C884    1.399   .     A
C876   H913    1.083   .     S
C877   C882    1.399   .     A
C877   H914    1.084   .     S
C878   H900    1.083   .     S
C878   C883    1.399   .     A
C879   H901    1.084   .     S
C879   C883    1.399   .     A
C880   O921    1.291   .     A
C880   C886    1.422   .     S
C880   O922    1.290   .     A
C881   C882    1.399   .     A
C881   H902    1.083   .     S
C882   C891    1.438   .     S
C883   C893    1.438   .     S
C885   C326    1.445   1_556 S
C887   C898    1.397   .     A
C888   C894    1.483   .     S
C888   O928    1.221   .     D
C888   H899    1.073   .     S
C889   H907    1.076   .     S
C889   O918    1.221   .     D
C889   C895    1.481   .     S
C890   H908    1.073   .     S
C890   C896    1.483   .     S
C890   O919    1.221   .     D
C891   O924    1.295   .     A
C891   O927    1.295   .     A
C892   H909    1.076   .     S
C892   O920    1.221   .     D
C892   C897    1.481   .     S
C893   O926    1.295   .     A
C893   O925    1.295   .     A
C894   N916    1.376   .     A
C895   N915    1.373   .     A
C895   C1082   1.433   .     S
C896   N916    1.376   .     A
C897   N915    1.373   .     A
C897   C1080   1.433   .     S
C898   H903    1.083   .     S
N915   Zn929   2.028   .     S
N916   Zn930   2.028   .     S
O917   Zn929   2.001   .     S
O921   Zn930   2.001   .     S
O922   Zn929   2.001   .     S
O923   Zn930   2.001   .     S
O924   Zn929   2.001   .     S
O925   Zn930   2.001   .     S
O926   Zn929   2.001   .     S
O927   Zn930   2.001   .     S
C931   O985    1.291   .     A
C931   O979    1.290   .     A
C931   C949    1.422   .     S
C932   C948    1.398   .     A
C932   H966    1.084   .     S
C932   C996    1.370   .     S
C933   H967    1.083   .     S
C933   C948    1.397   .     A
C933   C1022   1.369   .     S
C934   H968    1.084   .     S
C934   C949    1.398   .     A
C934   C1056   1.370   1_455 S
C935   H972    1.083   .     S
C935   C939    1.380   .     A
C935   C946    1.399   .     A
C936   C940    1.380   .     A
C936   H973    1.083   .     S
C936   C947    1.399   .     A
C937   H974    1.083   .     S
C937   C941    1.380   .     A
C937   C947    1.399   .     A
C938   C943    1.380   .     A
C938   C946    1.399   .     A
C938   H975    1.083   .     S
C939   C944    1.399   .     A
C939   H976    1.084   .     S
C940   H962    1.083   .     S
C940   C945    1.399   .     A
C941   H963    1.084   .     S
C941   C945    1.399   .     A
C942   O983    1.291   .     A
C942   C948    1.422   .     S
C942   O984    1.290   .     A
C943   C944    1.399   .     A
C943   H964    1.083   .     S
C944   C953    1.438   .     S
C945   C955    1.438   .     S
C947   C388    1.445   1_556 S
C949   C960    1.397   .     A
C950   C956    1.483   .     S
C950   O990    1.221   .     D
C950   H961    1.073   .     S
C951   H969    1.076   .     S
C951   O980    1.221   .     D
C951   C957    1.481   .     S
C952   H970    1.073   .     S
C952   C958    1.483   .     S
C952   O981    1.221   .     D
C953   O986    1.295   .     A
C953   O989    1.295   .     A
C954   H971    1.076   .     S
C954   O982    1.221   .     D
C954   C959    1.481   .     S
C955   O988    1.295   .     A
C955   O987    1.295   .     A
C956   N978    1.376   .     A
C957   N977    1.373   .     A
C957   C586    1.433   1_565 S
C958   N978    1.376   .     A
C959   N977    1.373   .     A
C959   C584    1.433   1_565 S
C960   H965    1.083   .     S
C960   C1057   1.369   1_455 S
N977   Zn991   2.028   .     S
N978   Zn992   2.028   .     S
O979   Zn991   2.001   .     S
O983   Zn992   2.001   .     S
O984   Zn991   2.001   .     S
O985   Zn992   2.001   .     S
O986   Zn991   2.001   .     S
O987   Zn992   2.001   .     S
O988   Zn991   2.001   .     S
O989   Zn992   2.001   .     S
C993   O1047   1.291   .     A
C993   O1041   1.290   .     A
C993   C1011   1.422   .     S
C994   C1010   1.398   .     A
C994   H1028   1.084   .     S
C994   C1058   1.370   .     S
C995   H1029   1.083   .     S
C995   C1010   1.397   .     A
C995   C1084   1.369   .     S
C996   H1030   1.084   .     S
C996   C1011   1.398   .     A
C997   H1034   1.083   .     S
C997   C1001   1.380   .     A
C997   C1008   1.399   .     A
C998   C1002   1.380   .     A
C998   H1035   1.083   .     S
C998   C1009   1.399   .     A
C999   H1036   1.083   .     S
C999   C1003   1.380   .     A
C999   C1009   1.399   .     A
C1000  C1005   1.380   .     A
C1000  C1008   1.399   .     A
C1000  H1037   1.083   .     S
C1001  C1006   1.399   .     A
C1001  H1038   1.084   .     S
C1002  H1024   1.083   .     S
C1002  C1007   1.399   .     A
C1003  H1025   1.084   .     S
C1003  C1007   1.399   .     A
C1004  O1045   1.291   .     A
C1004  C1010   1.422   .     S
C1004  O1046   1.290   .     A
C1005  C1006   1.399   .     A
C1005  H1026   1.083   .     S
C1006  C1015   1.438   .     S
C1007  C1017   1.438   .     S
C1009  C450    1.445   1_556 S
C1011  C1022   1.397   .     A
C1012  C1018   1.483   .     S
C1012  O1052   1.221   .     D
C1012  H1023   1.073   .     S
C1013  H1031   1.076   .     S
C1013  O1042   1.221   .     D
C1013  C1019   1.481   .     S
C1014  H1032   1.073   .     S
C1014  C1020   1.483   .     S
C1014  O1043   1.221   .     D
C1015  O1048   1.295   .     A
C1015  O1051   1.295   .     A
C1016  H1033   1.076   .     S
C1016  O1044   1.221   .     D
C1016  C1021   1.481   .     S
C1017  O1050   1.295   .     A
C1017  O1049   1.295   .     A
C1018  N1040   1.376   .     A
C1019  N1039   1.373   .     A
C1019  C648    1.433   1_565 S
C1020  N1040   1.376   .     A
C1021  N1039   1.373   .     A
C1021  C646    1.433   1_565 S
C1022  H1027   1.083   .     S
N1039  Zn1053  2.028   .     S
N1040  Zn1054  2.028   .     S
O1041  Zn1053  2.001   .     S
O1045  Zn1054  2.001   .     S
O1046  Zn1053  2.001   .     S
O1047  Zn1054  2.001   .     S
O1048  Zn1053  2.001   .     S
O1049  Zn1054  2.001   .     S
O1050  Zn1053  2.001   .     S
O1051  Zn1054  2.001   .     S
C1055  O1109   1.291   .     A
C1055  O1103   1.290   .     A
C1055  C1073   1.422   .     S
C1056  C1072   1.398   .     A
C1056  H1090   1.084   .     S
C1056  C934    1.370   1_655 S
C1057  H1091   1.083   .     S
C1057  C1072   1.397   .     A
C1057  C960    1.369   1_655 S
C1058  H1092   1.084   .     S
C1058  C1073   1.398   .     A
C1059  H1096   1.083   .     S
C1059  C1063   1.380   .     A
C1059  C1070   1.399   .     A
C1060  C1064   1.380   .     A
C1060  H1097   1.083   .     S
C1060  C1071   1.399   .     A
C1061  H1098   1.083   .     S
C1061  C1065   1.380   .     A
C1061  C1071   1.399   .     A
C1062  C1067   1.380   .     A
C1062  C1070   1.399   .     A
C1062  H1099   1.083   .     S
C1063  C1068   1.399   .     A
C1063  H1100   1.084   .     S
C1064  H1086   1.083   .     S
C1064  C1069   1.399   .     A
C1065  H1087   1.084   .     S
C1065  C1069   1.399   .     A
C1066  O1107   1.291   .     A
C1066  C1072   1.422   .     S
C1066  O1108   1.290   .     A
C1067  C1068   1.399   .     A
C1067  H1088   1.083   .     S
C1068  C1077   1.438   .     S
C1069  C1079   1.438   .     S
C1071  C512    1.445   1_556 S
C1073  C1084   1.397   .     A
C1074  C1080   1.483   .     S
C1074  O1114   1.221   .     D
C1074  H1085   1.073   .     S
C1075  H1093   1.076   .     S
C1075  O1104   1.221   .     D
C1075  C1081   1.481   .     S
C1076  H1094   1.073   .     S
C1076  C1082   1.483   .     S
C1076  O1105   1.221   .     D
C1077  O1110   1.295   .     A
C1077  O1113   1.295   .     A
C1078  H1095   1.076   .     S
C1078  O1106   1.221   .     D
C1078  C1083   1.481   .     S
C1079  O1112   1.295   .     A
C1079  O1111   1.295   .     A
C1080  N1102   1.376   .     A
C1081  N1101   1.373   .     A
C1081  C710    1.433   1_565 S
C1082  N1102   1.376   .     A
C1083  N1101   1.373   .     A
C1083  C708    1.433   1_565 S
C1084  H1089   1.083   .     S
N1101  Zn1115  2.028   .     S
N1102  Zn1116  2.028   .     S
O1103  Zn1115  2.001   .     S
O1107  Zn1116  2.001   .     S
O1108  Zn1115  2.001   .     S
O1109  Zn1116  2.001   .     S
O1110  Zn1115  2.001   .     S
O1111  Zn1116  2.001   .     S
O1112  Zn1115  2.001   .     S
O1113  Zn1116  2.001   .     S
