data_str_m3_o1_o18_pcu_sym.147
_audit_creation_date              2020-01-03
_audit_creation_method            'Materials Studio'
_symmetry_space_group_name_H-M    'P1'
_symmetry_Int_Tables_number       1
_symmetry_cell_setting            triclinic
loop_
_symmetry_equiv_pos_as_xyz
  x,y,z
_cell_length_a                    29.8851
_cell_length_b                    32.3035
_cell_length_c                    30.9536
_cell_angle_alpha                 91.0537
_cell_angle_beta                  68.9029
_cell_angle_gamma                 90.6816
loop_
_atom_site_label
_atom_site_type_symbol
_atom_site_fract_x
_atom_site_fract_y
_atom_site_fract_z
_atom_site_U_iso_or_equiv
_atom_site_adp_type
_atom_site_occupancy
C1     C     0.16909   0.24609   0.24437   0.00000  Uiso   1.00
C2     C     0.16564   0.08651   0.25202   0.00000  Uiso   1.00
C3     C     0.11614   0.19910   0.04967   0.00000  Uiso   1.00
C4     C     0.22052   0.20115   0.45139   0.00000  Uiso   1.00
C5     C     0.08941   0.21714   0.02611   0.00000  Uiso   1.00
C6     C     0.24694   0.21926   0.47612   0.00000  Uiso   1.00
C7     C     0.21208   0.31231   0.24012   0.00000  Uiso   1.00
C8     C     0.12823   0.01943   0.24287   0.00000  Uiso   1.00
C9     C     0.20655   0.02046   0.25229   0.00000  Uiso   1.00
C10    C     0.13395   0.31104   0.23157   0.00000  Uiso   1.00
C11    C     0.16564   0.04153   0.25126   0.00000  Uiso   1.00
C12    C     0.17291   0.29015   0.23618   0.00000  Uiso   1.00
C13    C     0.31887   0.13945   0.22199   0.00000  Uiso   1.00
C14    C     0.01463   0.19447   0.27717   0.00000  Uiso   1.00
C15    C     0.03387   0.13991   0.22225   0.00000  Uiso   1.00
C16    C     0.29952   0.19361   0.27752   0.00000  Uiso   1.00
C17    C     0.13676   0.16689   0.33789   0.00000  Uiso   1.00
C18    C     0.19672   0.16726   0.16222   0.00000  Uiso   1.00
C19    C     0.11943   0.17385   0.38831   0.00000  Uiso   1.00
C20    C     0.21505   0.17545   0.11242   0.00000  Uiso   1.00
C21    C     0.07156   0.21751   0.45325   0.00000  Uiso   1.00
C22    C     0.26248   0.22114   0.05042   0.00000  Uiso   1.00
C23    C     0.07830   0.19823   0.41034   0.00000  Uiso   1.00
C24    C     0.25467   0.20231   0.09315   0.00000  Uiso   1.00
C25    C     0.14975   0.16439   0.41239   0.00000  Uiso   1.00
C26    C     0.18724   0.16378   0.08637   0.00000  Uiso   1.00
C27    C     0.14086   0.18193   0.45625   0.00000  Uiso   1.00
C28    C     0.19604   0.18200   0.04358   0.00000  Uiso   1.00
C29    C     0.09936   0.20555   0.47903   0.00000  Uiso   1.00
C30    C     0.23649   0.20754   0.02286   0.00000  Uiso   1.00
C31    C     0.17603   0.18261   0.47586   0.00000  Uiso   1.00
C32    C     0.16100   0.18192   0.02395   0.00000  Uiso   1.00
H33    H     0.10709   0.20605   0.08628   0.00000  Uiso   1.00
H34    H     0.22953   0.20880   0.41521   0.00000  Uiso   1.00
H35    H     0.06074   0.11883   0.20079   0.00000  Uiso   1.00
H36    H     0.27251   0.21421   0.29984   0.00000  Uiso   1.00
N37    N     0.04759   0.16668   0.25001   0.00000  Uiso   1.00
N38    N     0.28574   0.16666   0.24999   0.00000  Uiso   1.00
O39    O     0.12846   0.22775   0.25001   0.00000  Uiso   1.00
O40    O     0.20488   0.10558   0.25000   0.00000  Uiso   1.00
O41    O     0.20490   0.22774   0.25000   0.00000  Uiso   1.00
O42    O     0.12843   0.10559   0.25000   0.00000  Uiso   1.00
O43    O     0.10661   0.16667   0.31613   0.00000  Uiso   1.00
O44    O     0.22672   0.16666   0.18388   0.00000  Uiso   1.00
O45    O     0.18305   0.16666   0.31612   0.00000  Uiso   1.00
O46    O     0.15028   0.16667   0.18388   0.00000  Uiso   1.00
Zn47   Zn    0.11562   0.16667   0.25000   0.00000  Uiso   1.00
Zn48   Zn    0.21771   0.16666   0.25000   0.00000  Uiso   1.00
C49    C     0.05759   0.25020   0.05001   0.00000  Uiso   1.00
N50    N     0.03324   0.27717   0.06979   0.00000  Uiso   1.00
C51    C     0.27897   0.25253   0.45379   0.00000  Uiso   1.00
N52    N     0.30340   0.27977   0.43529   0.00000  Uiso   1.00
C53    C     0.15269   0.13014   0.10110   0.00000  Uiso   1.00
N54    N     0.12571   0.10293   0.11252   0.00000  Uiso   1.00
C55    C     0.18855   0.13476   0.39377   0.00000  Uiso   1.00
N56    N     0.21945   0.11122   0.37904   0.00000  Uiso   1.00
O57    O     0.28503   0.21187   0.11660   0.00000  Uiso   1.00
C58    C     0.31940   0.17999   0.10673   0.00000  Uiso   1.00
H59    H     0.00635   0.17667   0.06890   0.00000  Uiso   1.00
H60    H     0.30258   0.14963   0.11954   0.00000  Uiso   1.00
H61    H     0.01175   0.18751   0.12420   0.00000  Uiso   1.00
O62    O     0.04594   0.20587   0.38902   0.00000  Uiso   1.00
C63    C     0.01275   0.17265   0.39918   0.00000  Uiso   1.00
H64    H     0.03024   0.14308   0.38330   0.00000  Uiso   1.00
H65    H     0.31821   0.17920   0.38444   0.00000  Uiso   1.00
H66    H     0.32775   0.16881   0.43720   0.00000  Uiso   1.00
O67    O     0.04018   0.25002   0.46784   0.00000  Uiso   1.00
C68    C     0.06553   0.28685   0.44987   0.00000  Uiso   1.00
H69    H     0.07656   0.28741   0.41149   0.00000  Uiso   1.00
H70    H     0.09743   0.29125   0.46008   0.00000  Uiso   1.00
H71    H     0.04149   0.31356   0.46432   0.00000  Uiso   1.00
O72    O     0.29340   0.25436   0.03750   0.00000  Uiso   1.00
C73    C     0.26777   0.29059   0.05760   0.00000  Uiso   1.00
H74    H     0.25610   0.29027   0.09604   0.00000  Uiso   1.00
H75    H     0.23630   0.29498   0.04697   0.00000  Uiso   1.00
H76    H     0.29187   0.31770   0.04526   0.00000  Uiso   1.00
C77    C     0.25910   0.29369   0.22874   0.00000  Uiso   1.00
N78    N     0.29663   0.27902   0.21915   0.00000  Uiso   1.00
C79    C     0.08170   0.03737   0.25018   0.00000  Uiso   1.00
N80    N     0.04425   0.05108   0.25658   0.00000  Uiso   1.00
C81    C     0.24115   0.03950   0.26981   0.00000  Uiso   1.00
N82    N     0.26853   0.05441   0.28407   0.00000  Uiso   1.00
C83    C     0.10116   0.29047   0.21276   0.00000  Uiso   1.00
N84    N     0.07533   0.27417   0.19751   0.00000  Uiso   1.00
O85    O     0.30224   0.11175   0.19596   0.00000  Uiso   1.00
C86    C     0.00491   0.08808   0.16304   0.00000  Uiso   1.00
H87    H     0.02092   0.06577   0.18014   0.00000  Uiso   1.00
H88    H     0.03238   0.10835   0.13861   0.00000  Uiso   1.00
H89    H     0.32149   0.06960   0.14230   0.00000  Uiso   1.00
O90    O     0.03002   0.22109   0.30499   0.00000  Uiso   1.00
C91    C     0.00330   0.25793   0.31772   0.00000  Uiso   1.00
H92    H     0.30174   0.25216   0.34602   0.00000  Uiso   1.00
H93    H     0.33164   0.27263   0.28761   0.00000  Uiso   1.00
H94    H     0.02360   0.28029   0.33136   0.00000  Uiso   1.00
C95    C     0.50242   0.24609   0.24437   0.00000  Uiso   1.00
C96    C     0.49898   0.08651   0.25202   0.00000  Uiso   1.00
C97    C     0.44947   0.19910   0.04967   0.00000  Uiso   1.00
C98    C     0.55385   0.20115   0.45139   0.00000  Uiso   1.00
C99    C     0.42274   0.21714   0.02611   0.00000  Uiso   1.00
C100   C     0.58028   0.21926   0.47612   0.00000  Uiso   1.00
C101   C     0.54541   0.31231   0.24012   0.00000  Uiso   1.00
C102   C     0.46156   0.01943   0.24287   0.00000  Uiso   1.00
C103   C     0.53988   0.02046   0.25229   0.00000  Uiso   1.00
C104   C     0.46728   0.31104   0.23157   0.00000  Uiso   1.00
C105   C     0.49898   0.04153   0.25126   0.00000  Uiso   1.00
C106   C     0.50624   0.29015   0.23618   0.00000  Uiso   1.00
C107   C     0.65220   0.13945   0.22199   0.00000  Uiso   1.00
C108   C     0.34797   0.19447   0.27717   0.00000  Uiso   1.00
C109   C     0.36720   0.13991   0.22225   0.00000  Uiso   1.00
C110   C     0.63285   0.19361   0.27752   0.00000  Uiso   1.00
C111   C     0.47009   0.16689   0.33789   0.00000  Uiso   1.00
C112   C     0.53006   0.16726   0.16222   0.00000  Uiso   1.00
C113   C     0.45276   0.17385   0.38831   0.00000  Uiso   1.00
C114   C     0.54838   0.17545   0.11242   0.00000  Uiso   1.00
C115   C     0.40489   0.21751   0.45325   0.00000  Uiso   1.00
C116   C     0.59582   0.22114   0.05042   0.00000  Uiso   1.00
C117   C     0.41164   0.19823   0.41034   0.00000  Uiso   1.00
C118   C     0.58800   0.20231   0.09315   0.00000  Uiso   1.00
C119   C     0.48308   0.16439   0.41239   0.00000  Uiso   1.00
C120   C     0.52057   0.16378   0.08637   0.00000  Uiso   1.00
C121   C     0.47419   0.18193   0.45625   0.00000  Uiso   1.00
C122   C     0.52937   0.18200   0.04358   0.00000  Uiso   1.00
C123   C     0.43270   0.20555   0.47903   0.00000  Uiso   1.00
C124   C     0.56982   0.20754   0.02286   0.00000  Uiso   1.00
C125   C     0.50936   0.18261   0.47586   0.00000  Uiso   1.00
C126   C     0.49433   0.18192   0.02395   0.00000  Uiso   1.00
H127   H     0.44043   0.20605   0.08628   0.00000  Uiso   1.00
H128   H     0.56286   0.20880   0.41521   0.00000  Uiso   1.00
H129   H     0.39408   0.11883   0.20079   0.00000  Uiso   1.00
H130   H     0.60584   0.21421   0.29984   0.00000  Uiso   1.00
N131   N     0.38093   0.16668   0.25001   0.00000  Uiso   1.00
N132   N     0.61907   0.16666   0.24999   0.00000  Uiso   1.00
O133   O     0.46179   0.22775   0.25001   0.00000  Uiso   1.00
O134   O     0.53821   0.10558   0.25000   0.00000  Uiso   1.00
O135   O     0.53823   0.22774   0.25000   0.00000  Uiso   1.00
O136   O     0.46177   0.10559   0.25000   0.00000  Uiso   1.00
O137   O     0.43994   0.16667   0.31613   0.00000  Uiso   1.00
O138   O     0.56006   0.16666   0.18388   0.00000  Uiso   1.00
O139   O     0.51639   0.16666   0.31612   0.00000  Uiso   1.00
O140   O     0.48361   0.16667   0.18388   0.00000  Uiso   1.00
Zn141  Zn    0.44896   0.16667   0.25000   0.00000  Uiso   1.00
Zn142  Zn    0.55104   0.16666   0.25000   0.00000  Uiso   1.00
C143   C     0.39092   0.25020   0.05001   0.00000  Uiso   1.00
N144   N     0.36658   0.27717   0.06979   0.00000  Uiso   1.00
C145   C     0.61230   0.25253   0.45379   0.00000  Uiso   1.00
N146   N     0.63673   0.27977   0.43529   0.00000  Uiso   1.00
C147   C     0.48603   0.13014   0.10110   0.00000  Uiso   1.00
N148   N     0.45904   0.10293   0.11252   0.00000  Uiso   1.00
C149   C     0.52188   0.13476   0.39377   0.00000  Uiso   1.00
N150   N     0.55278   0.11122   0.37904   0.00000  Uiso   1.00
O151   O     0.61837   0.21187   0.11660   0.00000  Uiso   1.00
C152   C     0.65273   0.17999   0.10673   0.00000  Uiso   1.00
H153   H     0.33969   0.17667   0.06890   0.00000  Uiso   1.00
H154   H     0.63591   0.14963   0.11954   0.00000  Uiso   1.00
H155   H     0.34508   0.18751   0.12420   0.00000  Uiso   1.00
O156   O     0.37928   0.20587   0.38902   0.00000  Uiso   1.00
C157   C     0.34608   0.17265   0.39918   0.00000  Uiso   1.00
H158   H     0.36358   0.14308   0.38330   0.00000  Uiso   1.00
H159   H     0.65154   0.17920   0.38444   0.00000  Uiso   1.00
H160   H     0.66109   0.16881   0.43720   0.00000  Uiso   1.00
O161   O     0.37351   0.25002   0.46784   0.00000  Uiso   1.00
C162   C     0.39886   0.28685   0.44987   0.00000  Uiso   1.00
H163   H     0.40989   0.28741   0.41149   0.00000  Uiso   1.00
H164   H     0.43076   0.29125   0.46008   0.00000  Uiso   1.00
H165   H     0.37482   0.31356   0.46432   0.00000  Uiso   1.00
O166   O     0.62673   0.25436   0.03750   0.00000  Uiso   1.00
C167   C     0.60111   0.29059   0.05760   0.00000  Uiso   1.00
H168   H     0.58943   0.29027   0.09604   0.00000  Uiso   1.00
H169   H     0.56963   0.29498   0.04697   0.00000  Uiso   1.00
H170   H     0.62520   0.31770   0.04526   0.00000  Uiso   1.00
C171   C     0.59244   0.29369   0.22874   0.00000  Uiso   1.00
N172   N     0.62996   0.27902   0.21915   0.00000  Uiso   1.00
C173   C     0.41503   0.03737   0.25018   0.00000  Uiso   1.00
N174   N     0.37758   0.05108   0.25658   0.00000  Uiso   1.00
C175   C     0.57449   0.03950   0.26981   0.00000  Uiso   1.00
N176   N     0.60186   0.05441   0.28407   0.00000  Uiso   1.00
C177   C     0.43449   0.29047   0.21276   0.00000  Uiso   1.00
N178   N     0.40866   0.27417   0.19751   0.00000  Uiso   1.00
O179   O     0.63557   0.11175   0.19596   0.00000  Uiso   1.00
C180   C     0.33825   0.08808   0.16304   0.00000  Uiso   1.00
H181   H     0.35425   0.06577   0.18014   0.00000  Uiso   1.00
H182   H     0.36571   0.10835   0.13861   0.00000  Uiso   1.00
H183   H     0.65482   0.06960   0.14230   0.00000  Uiso   1.00
O184   O     0.36335   0.22109   0.30499   0.00000  Uiso   1.00
C185   C     0.33663   0.25793   0.31772   0.00000  Uiso   1.00
H186   H     0.63507   0.25216   0.34602   0.00000  Uiso   1.00
H187   H     0.66498   0.27263   0.28761   0.00000  Uiso   1.00
H188   H     0.35693   0.28029   0.33136   0.00000  Uiso   1.00
C189   C     0.83576   0.24609   0.24437   0.00000  Uiso   1.00
C190   C     0.83231   0.08651   0.25202   0.00000  Uiso   1.00
C191   C     0.78281   0.19910   0.04967   0.00000  Uiso   1.00
C192   C     0.88719   0.20115   0.45139   0.00000  Uiso   1.00
C193   C     0.75608   0.21714   0.02611   0.00000  Uiso   1.00
C194   C     0.91361   0.21926   0.47612   0.00000  Uiso   1.00
C195   C     0.87875   0.31231   0.24012   0.00000  Uiso   1.00
C196   C     0.79490   0.01943   0.24287   0.00000  Uiso   1.00
C197   C     0.87322   0.02046   0.25229   0.00000  Uiso   1.00
C198   C     0.80061   0.31104   0.23157   0.00000  Uiso   1.00
C199   C     0.83231   0.04153   0.25126   0.00000  Uiso   1.00
C200   C     0.83958   0.29015   0.23618   0.00000  Uiso   1.00
C201   C     0.98554   0.13945   0.22199   0.00000  Uiso   1.00
C202   C     0.68130   0.19447   0.27717   0.00000  Uiso   1.00
C203   C     0.70054   0.13991   0.22225   0.00000  Uiso   1.00
C204   C     0.96618   0.19361   0.27752   0.00000  Uiso   1.00
C205   C     0.80343   0.16689   0.33789   0.00000  Uiso   1.00
C206   C     0.86339   0.16726   0.16222   0.00000  Uiso   1.00
C207   C     0.78609   0.17385   0.38831   0.00000  Uiso   1.00
C208   C     0.88172   0.17545   0.11242   0.00000  Uiso   1.00
C209   C     0.73823   0.21751   0.45325   0.00000  Uiso   1.00
C210   C     0.92915   0.22114   0.05042   0.00000  Uiso   1.00
C211   C     0.74497   0.19823   0.41034   0.00000  Uiso   1.00
C212   C     0.92133   0.20231   0.09315   0.00000  Uiso   1.00
C213   C     0.81641   0.16439   0.41239   0.00000  Uiso   1.00
C214   C     0.85390   0.16378   0.08637   0.00000  Uiso   1.00
C215   C     0.80752   0.18193   0.45625   0.00000  Uiso   1.00
C216   C     0.86271   0.18200   0.04358   0.00000  Uiso   1.00
C217   C     0.76603   0.20555   0.47903   0.00000  Uiso   1.00
C218   C     0.90316   0.20754   0.02286   0.00000  Uiso   1.00
C219   C     0.84269   0.18261   0.47586   0.00000  Uiso   1.00
C220   C     0.82767   0.18192   0.02395   0.00000  Uiso   1.00
H221   H     0.77376   0.20605   0.08628   0.00000  Uiso   1.00
H222   H     0.89620   0.20880   0.41521   0.00000  Uiso   1.00
H223   H     0.72741   0.11883   0.20079   0.00000  Uiso   1.00
H224   H     0.93918   0.21421   0.29984   0.00000  Uiso   1.00
N225   N     0.71426   0.16668   0.25001   0.00000  Uiso   1.00
N226   N     0.95241   0.16666   0.24999   0.00000  Uiso   1.00
O227   O     0.79512   0.22775   0.25001   0.00000  Uiso   1.00
O228   O     0.87154   0.10558   0.25000   0.00000  Uiso   1.00
O229   O     0.87157   0.22774   0.25000   0.00000  Uiso   1.00
O230   O     0.79510   0.10559   0.25000   0.00000  Uiso   1.00
O231   O     0.77328   0.16667   0.31613   0.00000  Uiso   1.00
O232   O     0.89339   0.16666   0.18388   0.00000  Uiso   1.00
O233   O     0.84972   0.16666   0.31612   0.00000  Uiso   1.00
O234   O     0.81695   0.16667   0.18388   0.00000  Uiso   1.00
Zn235  Zn    0.78229   0.16667   0.25000   0.00000  Uiso   1.00
Zn236  Zn    0.88438   0.16666   0.25000   0.00000  Uiso   1.00
C237   C     0.72426   0.25020   0.05001   0.00000  Uiso   1.00
N238   N     0.69991   0.27717   0.06979   0.00000  Uiso   1.00
C239   C     0.94564   0.25253   0.45379   0.00000  Uiso   1.00
N240   N     0.97007   0.27977   0.43529   0.00000  Uiso   1.00
C241   C     0.81936   0.13014   0.10110   0.00000  Uiso   1.00
N242   N     0.79237   0.10293   0.11252   0.00000  Uiso   1.00
C243   C     0.85522   0.13476   0.39377   0.00000  Uiso   1.00
N244   N     0.88612   0.11122   0.37904   0.00000  Uiso   1.00
O245   O     0.95170   0.21187   0.11660   0.00000  Uiso   1.00
C246   C     0.98606   0.17999   0.10673   0.00000  Uiso   1.00
H247   H     0.67302   0.17667   0.06890   0.00000  Uiso   1.00
H248   H     0.96924   0.14963   0.11954   0.00000  Uiso   1.00
H249   H     0.67841   0.18751   0.12420   0.00000  Uiso   1.00
O250   O     0.71261   0.20587   0.38902   0.00000  Uiso   1.00
C251   C     0.67941   0.17265   0.39918   0.00000  Uiso   1.00
H252   H     0.69691   0.14308   0.38330   0.00000  Uiso   1.00
H253   H     0.98487   0.17920   0.38444   0.00000  Uiso   1.00
H254   H     0.99442   0.16881   0.43720   0.00000  Uiso   1.00
O255   O     0.70684   0.25002   0.46784   0.00000  Uiso   1.00
C256   C     0.73220   0.28685   0.44987   0.00000  Uiso   1.00
H257   H     0.74323   0.28741   0.41149   0.00000  Uiso   1.00
H258   H     0.76410   0.29125   0.46008   0.00000  Uiso   1.00
H259   H     0.70815   0.31356   0.46432   0.00000  Uiso   1.00
O260   O     0.96006   0.25436   0.03750   0.00000  Uiso   1.00
C261   C     0.93444   0.29059   0.05760   0.00000  Uiso   1.00
H262   H     0.92276   0.29027   0.09604   0.00000  Uiso   1.00
H263   H     0.90296   0.29498   0.04697   0.00000  Uiso   1.00
H264   H     0.95854   0.31770   0.04526   0.00000  Uiso   1.00
C265   C     0.92577   0.29369   0.22874   0.00000  Uiso   1.00
N266   N     0.96330   0.27902   0.21915   0.00000  Uiso   1.00
C267   C     0.74836   0.03737   0.25018   0.00000  Uiso   1.00
N268   N     0.71091   0.05108   0.25658   0.00000  Uiso   1.00
C269   C     0.90782   0.03950   0.26981   0.00000  Uiso   1.00
N270   N     0.93520   0.05441   0.28407   0.00000  Uiso   1.00
C271   C     0.76783   0.29047   0.21276   0.00000  Uiso   1.00
N272   N     0.74200   0.27417   0.19751   0.00000  Uiso   1.00
O273   O     0.96891   0.11175   0.19596   0.00000  Uiso   1.00
C274   C     0.67158   0.08808   0.16304   0.00000  Uiso   1.00
H275   H     0.68758   0.06577   0.18014   0.00000  Uiso   1.00
H276   H     0.69904   0.10835   0.13861   0.00000  Uiso   1.00
H277   H     0.98815   0.06960   0.14230   0.00000  Uiso   1.00
O278   O     0.69668   0.22109   0.30499   0.00000  Uiso   1.00
C279   C     0.66997   0.25793   0.31772   0.00000  Uiso   1.00
H280   H     0.96840   0.25216   0.34602   0.00000  Uiso   1.00
H281   H     0.99831   0.27263   0.28761   0.00000  Uiso   1.00
H282   H     0.69026   0.28029   0.33136   0.00000  Uiso   1.00
C283   C     0.16909   0.57942   0.24437   0.00000  Uiso   1.00
C284   C     0.16564   0.41984   0.25202   0.00000  Uiso   1.00
C285   C     0.11614   0.53243   0.04967   0.00000  Uiso   1.00
C286   C     0.22052   0.53448   0.45139   0.00000  Uiso   1.00
C287   C     0.08941   0.55047   0.02611   0.00000  Uiso   1.00
C288   C     0.24694   0.55260   0.47612   0.00000  Uiso   1.00
C289   C     0.21208   0.64564   0.24012   0.00000  Uiso   1.00
C290   C     0.12823   0.35277   0.24287   0.00000  Uiso   1.00
C291   C     0.20655   0.35379   0.25229   0.00000  Uiso   1.00
C292   C     0.13395   0.64437   0.23157   0.00000  Uiso   1.00
C293   C     0.16564   0.37487   0.25126   0.00000  Uiso   1.00
C294   C     0.17291   0.62348   0.23618   0.00000  Uiso   1.00
C295   C     0.31887   0.47278   0.22199   0.00000  Uiso   1.00
C296   C     0.01463   0.52781   0.27717   0.00000  Uiso   1.00
C297   C     0.03387   0.47324   0.22225   0.00000  Uiso   1.00
C298   C     0.29952   0.52694   0.27752   0.00000  Uiso   1.00
C299   C     0.13676   0.50022   0.33789   0.00000  Uiso   1.00
C300   C     0.19672   0.50059   0.16222   0.00000  Uiso   1.00
C301   C     0.11943   0.50718   0.38831   0.00000  Uiso   1.00
C302   C     0.21505   0.50878   0.11242   0.00000  Uiso   1.00
C303   C     0.07156   0.55085   0.45325   0.00000  Uiso   1.00
C304   C     0.26248   0.55448   0.05042   0.00000  Uiso   1.00
C305   C     0.07830   0.53156   0.41034   0.00000  Uiso   1.00
C306   C     0.25467   0.53564   0.09315   0.00000  Uiso   1.00
C307   C     0.14975   0.49772   0.41239   0.00000  Uiso   1.00
C308   C     0.18724   0.49712   0.08637   0.00000  Uiso   1.00
C309   C     0.14086   0.51527   0.45625   0.00000  Uiso   1.00
C310   C     0.19604   0.51533   0.04358   0.00000  Uiso   1.00
C311   C     0.09936   0.53889   0.47903   0.00000  Uiso   1.00
C312   C     0.23649   0.54088   0.02286   0.00000  Uiso   1.00
C313   C     0.17603   0.51594   0.47586   0.00000  Uiso   1.00
C314   C     0.16100   0.51525   0.02395   0.00000  Uiso   1.00
H315   H     0.10709   0.53938   0.08628   0.00000  Uiso   1.00
H316   H     0.22953   0.54213   0.41521   0.00000  Uiso   1.00
H317   H     0.06074   0.45217   0.20079   0.00000  Uiso   1.00
H318   H     0.27251   0.54755   0.29984   0.00000  Uiso   1.00
N319   N     0.04759   0.50001   0.25001   0.00000  Uiso   1.00
N320   N     0.28574   0.49999   0.24999   0.00000  Uiso   1.00
O321   O     0.12846   0.56108   0.25001   0.00000  Uiso   1.00
O322   O     0.20488   0.43892   0.25000   0.00000  Uiso   1.00
O323   O     0.20490   0.56107   0.25000   0.00000  Uiso   1.00
O324   O     0.12843   0.43893   0.25000   0.00000  Uiso   1.00
O325   O     0.10661   0.50001   0.31613   0.00000  Uiso   1.00
O326   O     0.22672   0.49999   0.18388   0.00000  Uiso   1.00
O327   O     0.18305   0.50000   0.31612   0.00000  Uiso   1.00
O328   O     0.15028   0.50000   0.18388   0.00000  Uiso   1.00
Zn329  Zn    0.11562   0.50001   0.25000   0.00000  Uiso   1.00
Zn330  Zn    0.21771   0.49999   0.25000   0.00000  Uiso   1.00
C331   C     0.05759   0.58353   0.05001   0.00000  Uiso   1.00
N332   N     0.03324   0.61050   0.06979   0.00000  Uiso   1.00
C333   C     0.27897   0.58586   0.45379   0.00000  Uiso   1.00
N334   N     0.30340   0.61310   0.43529   0.00000  Uiso   1.00
C335   C     0.15269   0.46347   0.10110   0.00000  Uiso   1.00
N336   N     0.12571   0.43627   0.11252   0.00000  Uiso   1.00
C337   C     0.18855   0.46809   0.39377   0.00000  Uiso   1.00
N338   N     0.21945   0.44455   0.37904   0.00000  Uiso   1.00
O339   O     0.28503   0.54520   0.11660   0.00000  Uiso   1.00
C340   C     0.31940   0.51332   0.10673   0.00000  Uiso   1.00
H341   H     0.00635   0.51001   0.06890   0.00000  Uiso   1.00
H342   H     0.30258   0.48296   0.11954   0.00000  Uiso   1.00
H343   H     0.01175   0.52084   0.12420   0.00000  Uiso   1.00
O344   O     0.04594   0.53920   0.38902   0.00000  Uiso   1.00
C345   C     0.01275   0.50598   0.39918   0.00000  Uiso   1.00
H346   H     0.03024   0.47642   0.38330   0.00000  Uiso   1.00
H347   H     0.31821   0.51254   0.38444   0.00000  Uiso   1.00
H348   H     0.32775   0.50214   0.43720   0.00000  Uiso   1.00
O349   O     0.04018   0.58336   0.46784   0.00000  Uiso   1.00
C350   C     0.06553   0.62018   0.44987   0.00000  Uiso   1.00
H351   H     0.07656   0.62074   0.41149   0.00000  Uiso   1.00
H352   H     0.09743   0.62458   0.46008   0.00000  Uiso   1.00
H353   H     0.04149   0.64690   0.46432   0.00000  Uiso   1.00
O354   O     0.29340   0.58770   0.03750   0.00000  Uiso   1.00
C355   C     0.26777   0.62393   0.05760   0.00000  Uiso   1.00
H356   H     0.25610   0.62361   0.09604   0.00000  Uiso   1.00
H357   H     0.23630   0.62832   0.04697   0.00000  Uiso   1.00
H358   H     0.29187   0.65103   0.04526   0.00000  Uiso   1.00
C359   C     0.25910   0.62703   0.22874   0.00000  Uiso   1.00
N360   N     0.29663   0.61235   0.21915   0.00000  Uiso   1.00
C361   C     0.08170   0.37070   0.25018   0.00000  Uiso   1.00
N362   N     0.04425   0.38441   0.25658   0.00000  Uiso   1.00
C363   C     0.24115   0.37283   0.26981   0.00000  Uiso   1.00
N364   N     0.26853   0.38774   0.28407   0.00000  Uiso   1.00
C365   C     0.10116   0.62381   0.21276   0.00000  Uiso   1.00
N366   N     0.07533   0.60750   0.19751   0.00000  Uiso   1.00
O367   O     0.30224   0.44508   0.19596   0.00000  Uiso   1.00
C368   C     0.00491   0.42142   0.16304   0.00000  Uiso   1.00
H369   H     0.02092   0.39910   0.18014   0.00000  Uiso   1.00
H370   H     0.03238   0.44168   0.13861   0.00000  Uiso   1.00
H371   H     0.32149   0.40293   0.14230   0.00000  Uiso   1.00
O372   O     0.03002   0.55442   0.30499   0.00000  Uiso   1.00
C373   C     0.00330   0.59126   0.31772   0.00000  Uiso   1.00
H374   H     0.30174   0.58550   0.34602   0.00000  Uiso   1.00
H375   H     0.33164   0.60596   0.28761   0.00000  Uiso   1.00
H376   H     0.02360   0.61363   0.33136   0.00000  Uiso   1.00
C377   C     0.50242   0.57942   0.24437   0.00000  Uiso   1.00
C378   C     0.49898   0.41984   0.25202   0.00000  Uiso   1.00
C379   C     0.44947   0.53243   0.04967   0.00000  Uiso   1.00
C380   C     0.55385   0.53448   0.45139   0.00000  Uiso   1.00
C381   C     0.42274   0.55047   0.02611   0.00000  Uiso   1.00
C382   C     0.58028   0.55260   0.47612   0.00000  Uiso   1.00
C383   C     0.54541   0.64564   0.24012   0.00000  Uiso   1.00
C384   C     0.46156   0.35277   0.24287   0.00000  Uiso   1.00
C385   C     0.53988   0.35379   0.25229   0.00000  Uiso   1.00
C386   C     0.46728   0.64437   0.23157   0.00000  Uiso   1.00
C387   C     0.49898   0.37487   0.25126   0.00000  Uiso   1.00
C388   C     0.50624   0.62348   0.23618   0.00000  Uiso   1.00
C389   C     0.65220   0.47278   0.22199   0.00000  Uiso   1.00
C390   C     0.34797   0.52781   0.27717   0.00000  Uiso   1.00
C391   C     0.36720   0.47324   0.22225   0.00000  Uiso   1.00
C392   C     0.63285   0.52694   0.27752   0.00000  Uiso   1.00
C393   C     0.47009   0.50022   0.33789   0.00000  Uiso   1.00
C394   C     0.53006   0.50059   0.16222   0.00000  Uiso   1.00
C395   C     0.45276   0.50718   0.38831   0.00000  Uiso   1.00
C396   C     0.54838   0.50878   0.11242   0.00000  Uiso   1.00
C397   C     0.40489   0.55085   0.45325   0.00000  Uiso   1.00
C398   C     0.59582   0.55448   0.05042   0.00000  Uiso   1.00
C399   C     0.41164   0.53156   0.41034   0.00000  Uiso   1.00
C400   C     0.58800   0.53564   0.09315   0.00000  Uiso   1.00
C401   C     0.48308   0.49772   0.41239   0.00000  Uiso   1.00
C402   C     0.52057   0.49712   0.08637   0.00000  Uiso   1.00
C403   C     0.47419   0.51527   0.45625   0.00000  Uiso   1.00
C404   C     0.52937   0.51533   0.04358   0.00000  Uiso   1.00
C405   C     0.43270   0.53889   0.47903   0.00000  Uiso   1.00
C406   C     0.56982   0.54088   0.02286   0.00000  Uiso   1.00
C407   C     0.50936   0.51594   0.47586   0.00000  Uiso   1.00
C408   C     0.49433   0.51525   0.02395   0.00000  Uiso   1.00
H409   H     0.44043   0.53938   0.08628   0.00000  Uiso   1.00
H410   H     0.56286   0.54213   0.41521   0.00000  Uiso   1.00
H411   H     0.39408   0.45217   0.20079   0.00000  Uiso   1.00
H412   H     0.60584   0.54755   0.29984   0.00000  Uiso   1.00
N413   N     0.38093   0.50001   0.25001   0.00000  Uiso   1.00
N414   N     0.61907   0.49999   0.24999   0.00000  Uiso   1.00
O415   O     0.46179   0.56108   0.25001   0.00000  Uiso   1.00
O416   O     0.53821   0.43892   0.25000   0.00000  Uiso   1.00
O417   O     0.53823   0.56107   0.25000   0.00000  Uiso   1.00
O418   O     0.46177   0.43893   0.25000   0.00000  Uiso   1.00
O419   O     0.43994   0.50001   0.31613   0.00000  Uiso   1.00
O420   O     0.56006   0.49999   0.18388   0.00000  Uiso   1.00
O421   O     0.51639   0.50000   0.31612   0.00000  Uiso   1.00
O422   O     0.48361   0.50000   0.18388   0.00000  Uiso   1.00
Zn423  Zn    0.44896   0.50001   0.25000   0.00000  Uiso   1.00
Zn424  Zn    0.55104   0.49999   0.25000   0.00000  Uiso   1.00
C425   C     0.39092   0.58353   0.05001   0.00000  Uiso   1.00
N426   N     0.36658   0.61050   0.06979   0.00000  Uiso   1.00
C427   C     0.61230   0.58586   0.45379   0.00000  Uiso   1.00
N428   N     0.63673   0.61310   0.43529   0.00000  Uiso   1.00
C429   C     0.48603   0.46347   0.10110   0.00000  Uiso   1.00
N430   N     0.45904   0.43627   0.11252   0.00000  Uiso   1.00
C431   C     0.52188   0.46809   0.39377   0.00000  Uiso   1.00
N432   N     0.55278   0.44455   0.37904   0.00000  Uiso   1.00
O433   O     0.61837   0.54520   0.11660   0.00000  Uiso   1.00
C434   C     0.65273   0.51332   0.10673   0.00000  Uiso   1.00
H435   H     0.33969   0.51001   0.06890   0.00000  Uiso   1.00
H436   H     0.63591   0.48296   0.11954   0.00000  Uiso   1.00
H437   H     0.34508   0.52084   0.12420   0.00000  Uiso   1.00
O438   O     0.37928   0.53920   0.38902   0.00000  Uiso   1.00
C439   C     0.34608   0.50598   0.39918   0.00000  Uiso   1.00
H440   H     0.36358   0.47642   0.38330   0.00000  Uiso   1.00
H441   H     0.65154   0.51254   0.38444   0.00000  Uiso   1.00
H442   H     0.66109   0.50214   0.43720   0.00000  Uiso   1.00
O443   O     0.37351   0.58336   0.46784   0.00000  Uiso   1.00
C444   C     0.39886   0.62018   0.44987   0.00000  Uiso   1.00
H445   H     0.40989   0.62074   0.41149   0.00000  Uiso   1.00
H446   H     0.43076   0.62458   0.46008   0.00000  Uiso   1.00
H447   H     0.37482   0.64690   0.46432   0.00000  Uiso   1.00
O448   O     0.62673   0.58770   0.03750   0.00000  Uiso   1.00
C449   C     0.60111   0.62393   0.05760   0.00000  Uiso   1.00
H450   H     0.58943   0.62361   0.09604   0.00000  Uiso   1.00
H451   H     0.56963   0.62832   0.04697   0.00000  Uiso   1.00
H452   H     0.62520   0.65103   0.04526   0.00000  Uiso   1.00
C453   C     0.59244   0.62703   0.22874   0.00000  Uiso   1.00
N454   N     0.62996   0.61235   0.21915   0.00000  Uiso   1.00
C455   C     0.41503   0.37070   0.25018   0.00000  Uiso   1.00
N456   N     0.37758   0.38441   0.25658   0.00000  Uiso   1.00
C457   C     0.57449   0.37283   0.26981   0.00000  Uiso   1.00
N458   N     0.60186   0.38774   0.28407   0.00000  Uiso   1.00
C459   C     0.43449   0.62381   0.21276   0.00000  Uiso   1.00
N460   N     0.40866   0.60750   0.19751   0.00000  Uiso   1.00
O461   O     0.63557   0.44508   0.19596   0.00000  Uiso   1.00
C462   C     0.33825   0.42142   0.16304   0.00000  Uiso   1.00
H463   H     0.35425   0.39910   0.18014   0.00000  Uiso   1.00
H464   H     0.36571   0.44168   0.13861   0.00000  Uiso   1.00
H465   H     0.65482   0.40293   0.14230   0.00000  Uiso   1.00
O466   O     0.36335   0.55442   0.30499   0.00000  Uiso   1.00
C467   C     0.33663   0.59126   0.31772   0.00000  Uiso   1.00
H468   H     0.63507   0.58550   0.34602   0.00000  Uiso   1.00
H469   H     0.66498   0.60596   0.28761   0.00000  Uiso   1.00
H470   H     0.35693   0.61363   0.33136   0.00000  Uiso   1.00
C471   C     0.83576   0.57942   0.24437   0.00000  Uiso   1.00
C472   C     0.83231   0.41984   0.25202   0.00000  Uiso   1.00
C473   C     0.78281   0.53243   0.04967   0.00000  Uiso   1.00
C474   C     0.88719   0.53448   0.45139   0.00000  Uiso   1.00
C475   C     0.75608   0.55047   0.02611   0.00000  Uiso   1.00
C476   C     0.91361   0.55260   0.47612   0.00000  Uiso   1.00
C477   C     0.87875   0.64564   0.24012   0.00000  Uiso   1.00
C478   C     0.79490   0.35277   0.24287   0.00000  Uiso   1.00
C479   C     0.87322   0.35379   0.25229   0.00000  Uiso   1.00
C480   C     0.80061   0.64437   0.23157   0.00000  Uiso   1.00
C481   C     0.83231   0.37487   0.25126   0.00000  Uiso   1.00
C482   C     0.83958   0.62348   0.23618   0.00000  Uiso   1.00
C483   C     0.98554   0.47278   0.22199   0.00000  Uiso   1.00
C484   C     0.68130   0.52781   0.27717   0.00000  Uiso   1.00
C485   C     0.70054   0.47324   0.22225   0.00000  Uiso   1.00
C486   C     0.96618   0.52694   0.27752   0.00000  Uiso   1.00
C487   C     0.80343   0.50022   0.33789   0.00000  Uiso   1.00
C488   C     0.86339   0.50059   0.16222   0.00000  Uiso   1.00
C489   C     0.78609   0.50718   0.38831   0.00000  Uiso   1.00
C490   C     0.88172   0.50878   0.11242   0.00000  Uiso   1.00
C491   C     0.73823   0.55085   0.45325   0.00000  Uiso   1.00
C492   C     0.92915   0.55448   0.05042   0.00000  Uiso   1.00
C493   C     0.74497   0.53156   0.41034   0.00000  Uiso   1.00
C494   C     0.92133   0.53564   0.09315   0.00000  Uiso   1.00
C495   C     0.81641   0.49772   0.41239   0.00000  Uiso   1.00
C496   C     0.85390   0.49712   0.08637   0.00000  Uiso   1.00
C497   C     0.80752   0.51527   0.45625   0.00000  Uiso   1.00
C498   C     0.86271   0.51533   0.04358   0.00000  Uiso   1.00
C499   C     0.76603   0.53889   0.47903   0.00000  Uiso   1.00
C500   C     0.90316   0.54088   0.02286   0.00000  Uiso   1.00
C501   C     0.84269   0.51594   0.47586   0.00000  Uiso   1.00
C502   C     0.82767   0.51525   0.02395   0.00000  Uiso   1.00
H503   H     0.77376   0.53938   0.08628   0.00000  Uiso   1.00
H504   H     0.89620   0.54213   0.41521   0.00000  Uiso   1.00
H505   H     0.72741   0.45217   0.20079   0.00000  Uiso   1.00
H506   H     0.93918   0.54755   0.29984   0.00000  Uiso   1.00
N507   N     0.71426   0.50001   0.25001   0.00000  Uiso   1.00
N508   N     0.95241   0.49999   0.24999   0.00000  Uiso   1.00
O509   O     0.79512   0.56108   0.25001   0.00000  Uiso   1.00
O510   O     0.87154   0.43892   0.25000   0.00000  Uiso   1.00
O511   O     0.87157   0.56107   0.25000   0.00000  Uiso   1.00
O512   O     0.79510   0.43893   0.25000   0.00000  Uiso   1.00
O513   O     0.77328   0.50001   0.31613   0.00000  Uiso   1.00
O514   O     0.89339   0.49999   0.18388   0.00000  Uiso   1.00
O515   O     0.84972   0.50000   0.31612   0.00000  Uiso   1.00
O516   O     0.81695   0.50000   0.18388   0.00000  Uiso   1.00
Zn517  Zn    0.78229   0.50001   0.25000   0.00000  Uiso   1.00
Zn518  Zn    0.88438   0.49999   0.25000   0.00000  Uiso   1.00
C519   C     0.72426   0.58353   0.05001   0.00000  Uiso   1.00
N520   N     0.69991   0.61050   0.06979   0.00000  Uiso   1.00
C521   C     0.94564   0.58586   0.45379   0.00000  Uiso   1.00
N522   N     0.97007   0.61310   0.43529   0.00000  Uiso   1.00
C523   C     0.81936   0.46347   0.10110   0.00000  Uiso   1.00
N524   N     0.79237   0.43627   0.11252   0.00000  Uiso   1.00
C525   C     0.85522   0.46809   0.39377   0.00000  Uiso   1.00
N526   N     0.88612   0.44455   0.37904   0.00000  Uiso   1.00
O527   O     0.95170   0.54520   0.11660   0.00000  Uiso   1.00
C528   C     0.98606   0.51332   0.10673   0.00000  Uiso   1.00
H529   H     0.67302   0.51001   0.06890   0.00000  Uiso   1.00
H530   H     0.96924   0.48296   0.11954   0.00000  Uiso   1.00
H531   H     0.67841   0.52084   0.12420   0.00000  Uiso   1.00
O532   O     0.71261   0.53920   0.38902   0.00000  Uiso   1.00
C533   C     0.67941   0.50598   0.39918   0.00000  Uiso   1.00
H534   H     0.69691   0.47642   0.38330   0.00000  Uiso   1.00
H535   H     0.98487   0.51254   0.38444   0.00000  Uiso   1.00
H536   H     0.99442   0.50214   0.43720   0.00000  Uiso   1.00
O537   O     0.70684   0.58336   0.46784   0.00000  Uiso   1.00
C538   C     0.73220   0.62018   0.44987   0.00000  Uiso   1.00
H539   H     0.74323   0.62074   0.41149   0.00000  Uiso   1.00
H540   H     0.76410   0.62458   0.46008   0.00000  Uiso   1.00
H541   H     0.70815   0.64690   0.46432   0.00000  Uiso   1.00
O542   O     0.96006   0.58770   0.03750   0.00000  Uiso   1.00
C543   C     0.93444   0.62393   0.05760   0.00000  Uiso   1.00
H544   H     0.92276   0.62361   0.09604   0.00000  Uiso   1.00
H545   H     0.90296   0.62832   0.04697   0.00000  Uiso   1.00
H546   H     0.95854   0.65103   0.04526   0.00000  Uiso   1.00
C547   C     0.92577   0.62703   0.22874   0.00000  Uiso   1.00
N548   N     0.96330   0.61235   0.21915   0.00000  Uiso   1.00
C549   C     0.74836   0.37070   0.25018   0.00000  Uiso   1.00
N550   N     0.71091   0.38441   0.25658   0.00000  Uiso   1.00
C551   C     0.90782   0.37283   0.26981   0.00000  Uiso   1.00
N552   N     0.93520   0.38774   0.28407   0.00000  Uiso   1.00
C553   C     0.76783   0.62381   0.21276   0.00000  Uiso   1.00
N554   N     0.74200   0.60750   0.19751   0.00000  Uiso   1.00
O555   O     0.96891   0.44508   0.19596   0.00000  Uiso   1.00
C556   C     0.67158   0.42142   0.16304   0.00000  Uiso   1.00
H557   H     0.68758   0.39910   0.18014   0.00000  Uiso   1.00
H558   H     0.69904   0.44168   0.13861   0.00000  Uiso   1.00
H559   H     0.98815   0.40293   0.14230   0.00000  Uiso   1.00
O560   O     0.69668   0.55442   0.30499   0.00000  Uiso   1.00
C561   C     0.66997   0.59126   0.31772   0.00000  Uiso   1.00
H562   H     0.96840   0.58550   0.34602   0.00000  Uiso   1.00
H563   H     0.99831   0.60596   0.28761   0.00000  Uiso   1.00
H564   H     0.69026   0.61363   0.33136   0.00000  Uiso   1.00
C565   C     0.16909   0.91275   0.24437   0.00000  Uiso   1.00
C566   C     0.16564   0.75318   0.25202   0.00000  Uiso   1.00
C567   C     0.11614   0.86576   0.04967   0.00000  Uiso   1.00
C568   C     0.22052   0.86782   0.45139   0.00000  Uiso   1.00
C569   C     0.08941   0.88381   0.02611   0.00000  Uiso   1.00
C570   C     0.24694   0.88593   0.47612   0.00000  Uiso   1.00
C571   C     0.21208   0.97897   0.24012   0.00000  Uiso   1.00
C572   C     0.12823   0.68610   0.24287   0.00000  Uiso   1.00
C573   C     0.20655   0.68713   0.25229   0.00000  Uiso   1.00
C574   C     0.13395   0.97770   0.23157   0.00000  Uiso   1.00
C575   C     0.16564   0.70820   0.25126   0.00000  Uiso   1.00
C576   C     0.17291   0.95681   0.23618   0.00000  Uiso   1.00
C577   C     0.31887   0.80612   0.22199   0.00000  Uiso   1.00
C578   C     0.01463   0.86114   0.27717   0.00000  Uiso   1.00
C579   C     0.03387   0.80657   0.22225   0.00000  Uiso   1.00
C580   C     0.29952   0.86028   0.27752   0.00000  Uiso   1.00
C581   C     0.13676   0.83356   0.33789   0.00000  Uiso   1.00
C582   C     0.19672   0.83393   0.16222   0.00000  Uiso   1.00
C583   C     0.11943   0.84052   0.38831   0.00000  Uiso   1.00
C584   C     0.21505   0.84212   0.11242   0.00000  Uiso   1.00
C585   C     0.07156   0.88418   0.45325   0.00000  Uiso   1.00
C586   C     0.26248   0.88781   0.05042   0.00000  Uiso   1.00
C587   C     0.07830   0.86489   0.41034   0.00000  Uiso   1.00
C588   C     0.25467   0.86897   0.09315   0.00000  Uiso   1.00
C589   C     0.14975   0.83105   0.41239   0.00000  Uiso   1.00
C590   C     0.18724   0.83045   0.08637   0.00000  Uiso   1.00
C591   C     0.14086   0.84860   0.45625   0.00000  Uiso   1.00
C592   C     0.19604   0.84867   0.04358   0.00000  Uiso   1.00
C593   C     0.09936   0.87222   0.47903   0.00000  Uiso   1.00
C594   C     0.23649   0.87421   0.02286   0.00000  Uiso   1.00
C595   C     0.17603   0.84927   0.47586   0.00000  Uiso   1.00
C596   C     0.16100   0.84858   0.02395   0.00000  Uiso   1.00
H597   H     0.10709   0.87272   0.08628   0.00000  Uiso   1.00
H598   H     0.22953   0.87546   0.41521   0.00000  Uiso   1.00
H599   H     0.06074   0.78550   0.20079   0.00000  Uiso   1.00
H600   H     0.27251   0.88088   0.29984   0.00000  Uiso   1.00
N601   N     0.04759   0.83334   0.25001   0.00000  Uiso   1.00
N602   N     0.28574   0.83332   0.24999   0.00000  Uiso   1.00
O603   O     0.12846   0.89442   0.25001   0.00000  Uiso   1.00
O604   O     0.20488   0.77225   0.25000   0.00000  Uiso   1.00
O605   O     0.20490   0.89441   0.25000   0.00000  Uiso   1.00
O606   O     0.12843   0.77226   0.25000   0.00000  Uiso   1.00
O607   O     0.10661   0.83334   0.31613   0.00000  Uiso   1.00
O608   O     0.22672   0.83333   0.18388   0.00000  Uiso   1.00
O609   O     0.18305   0.83333   0.31612   0.00000  Uiso   1.00
O610   O     0.15028   0.83334   0.18388   0.00000  Uiso   1.00
Zn611  Zn    0.11562   0.83334   0.25000   0.00000  Uiso   1.00
Zn612  Zn    0.21771   0.83333   0.25000   0.00000  Uiso   1.00
C613   C     0.05759   0.91686   0.05001   0.00000  Uiso   1.00
N614   N     0.03324   0.94384   0.06979   0.00000  Uiso   1.00
C615   C     0.27897   0.91919   0.45379   0.00000  Uiso   1.00
N616   N     0.30340   0.94643   0.43529   0.00000  Uiso   1.00
C617   C     0.15269   0.79681   0.10110   0.00000  Uiso   1.00
N618   N     0.12571   0.76960   0.11252   0.00000  Uiso   1.00
C619   C     0.18855   0.80142   0.39377   0.00000  Uiso   1.00
N620   N     0.21945   0.77789   0.37904   0.00000  Uiso   1.00
O621   O     0.28503   0.87854   0.11660   0.00000  Uiso   1.00
C622   C     0.31940   0.84666   0.10673   0.00000  Uiso   1.00
H623   H     0.00635   0.84334   0.06890   0.00000  Uiso   1.00
H624   H     0.30258   0.81630   0.11954   0.00000  Uiso   1.00
H625   H     0.01175   0.85417   0.12420   0.00000  Uiso   1.00
O626   O     0.04594   0.87253   0.38902   0.00000  Uiso   1.00
C627   C     0.01275   0.83932   0.39918   0.00000  Uiso   1.00
H628   H     0.03024   0.80975   0.38330   0.00000  Uiso   1.00
H629   H     0.31821   0.84587   0.38444   0.00000  Uiso   1.00
H630   H     0.32775   0.83548   0.43720   0.00000  Uiso   1.00
O631   O     0.04018   0.91669   0.46784   0.00000  Uiso   1.00
C632   C     0.06553   0.95352   0.44987   0.00000  Uiso   1.00
H633   H     0.07656   0.95407   0.41149   0.00000  Uiso   1.00
H634   H     0.09743   0.95791   0.46008   0.00000  Uiso   1.00
H635   H     0.04149   0.98023   0.46432   0.00000  Uiso   1.00
O636   O     0.29340   0.92103   0.03750   0.00000  Uiso   1.00
C637   C     0.26777   0.95726   0.05760   0.00000  Uiso   1.00
H638   H     0.25610   0.95694   0.09604   0.00000  Uiso   1.00
H639   H     0.23630   0.96165   0.04697   0.00000  Uiso   1.00
H640   H     0.29187   0.98436   0.04526   0.00000  Uiso   1.00
C641   C     0.25910   0.96036   0.22874   0.00000  Uiso   1.00
N642   N     0.29663   0.94568   0.21915   0.00000  Uiso   1.00
C643   C     0.08170   0.70403   0.25018   0.00000  Uiso   1.00
N644   N     0.04425   0.71774   0.25658   0.00000  Uiso   1.00
C645   C     0.24115   0.70616   0.26981   0.00000  Uiso   1.00
N646   N     0.26853   0.72107   0.28407   0.00000  Uiso   1.00
C647   C     0.10116   0.95714   0.21276   0.00000  Uiso   1.00
N648   N     0.07533   0.94083   0.19751   0.00000  Uiso   1.00
O649   O     0.30224   0.77841   0.19596   0.00000  Uiso   1.00
C650   C     0.00491   0.75475   0.16304   0.00000  Uiso   1.00
H651   H     0.02092   0.73244   0.18014   0.00000  Uiso   1.00
H652   H     0.03238   0.77501   0.13861   0.00000  Uiso   1.00
H653   H     0.32149   0.73626   0.14230   0.00000  Uiso   1.00
O654   O     0.03002   0.88775   0.30499   0.00000  Uiso   1.00
C655   C     0.00330   0.92460   0.31772   0.00000  Uiso   1.00
H656   H     0.30174   0.91883   0.34602   0.00000  Uiso   1.00
H657   H     0.33164   0.93929   0.28761   0.00000  Uiso   1.00
H658   H     0.02360   0.94696   0.33136   0.00000  Uiso   1.00
C659   C     0.50242   0.91275   0.24437   0.00000  Uiso   1.00
C660   C     0.49898   0.75318   0.25202   0.00000  Uiso   1.00
C661   C     0.44947   0.86576   0.04967   0.00000  Uiso   1.00
C662   C     0.55385   0.86782   0.45139   0.00000  Uiso   1.00
C663   C     0.42274   0.88381   0.02611   0.00000  Uiso   1.00
C664   C     0.58028   0.88593   0.47612   0.00000  Uiso   1.00
C665   C     0.54541   0.97897   0.24012   0.00000  Uiso   1.00
C666   C     0.46156   0.68610   0.24287   0.00000  Uiso   1.00
C667   C     0.53988   0.68713   0.25229   0.00000  Uiso   1.00
C668   C     0.46728   0.97770   0.23157   0.00000  Uiso   1.00
C669   C     0.49898   0.70820   0.25126   0.00000  Uiso   1.00
C670   C     0.50624   0.95681   0.23618   0.00000  Uiso   1.00
C671   C     0.65220   0.80612   0.22199   0.00000  Uiso   1.00
C672   C     0.34797   0.86114   0.27717   0.00000  Uiso   1.00
C673   C     0.36720   0.80657   0.22225   0.00000  Uiso   1.00
C674   C     0.63285   0.86028   0.27752   0.00000  Uiso   1.00
C675   C     0.47009   0.83356   0.33789   0.00000  Uiso   1.00
C676   C     0.53006   0.83393   0.16222   0.00000  Uiso   1.00
C677   C     0.45276   0.84052   0.38831   0.00000  Uiso   1.00
C678   C     0.54838   0.84212   0.11242   0.00000  Uiso   1.00
C679   C     0.40489   0.88418   0.45325   0.00000  Uiso   1.00
C680   C     0.59582   0.88781   0.05042   0.00000  Uiso   1.00
C681   C     0.41164   0.86489   0.41034   0.00000  Uiso   1.00
C682   C     0.58800   0.86897   0.09315   0.00000  Uiso   1.00
C683   C     0.48308   0.83105   0.41239   0.00000  Uiso   1.00
C684   C     0.52057   0.83045   0.08637   0.00000  Uiso   1.00
C685   C     0.47419   0.84860   0.45625   0.00000  Uiso   1.00
C686   C     0.52937   0.84867   0.04358   0.00000  Uiso   1.00
C687   C     0.43270   0.87222   0.47903   0.00000  Uiso   1.00
C688   C     0.56982   0.87421   0.02286   0.00000  Uiso   1.00
C689   C     0.50936   0.84927   0.47586   0.00000  Uiso   1.00
C690   C     0.49433   0.84858   0.02395   0.00000  Uiso   1.00
H691   H     0.44043   0.87272   0.08628   0.00000  Uiso   1.00
H692   H     0.56286   0.87546   0.41521   0.00000  Uiso   1.00
H693   H     0.39408   0.78550   0.20079   0.00000  Uiso   1.00
H694   H     0.60584   0.88088   0.29984   0.00000  Uiso   1.00
N695   N     0.38093   0.83334   0.25001   0.00000  Uiso   1.00
N696   N     0.61907   0.83332   0.24999   0.00000  Uiso   1.00
O697   O     0.46179   0.89442   0.25001   0.00000  Uiso   1.00
O698   O     0.53821   0.77225   0.25000   0.00000  Uiso   1.00
O699   O     0.53823   0.89441   0.25000   0.00000  Uiso   1.00
O700   O     0.46177   0.77226   0.25000   0.00000  Uiso   1.00
O701   O     0.43994   0.83334   0.31613   0.00000  Uiso   1.00
O702   O     0.56006   0.83333   0.18388   0.00000  Uiso   1.00
O703   O     0.51639   0.83333   0.31612   0.00000  Uiso   1.00
O704   O     0.48361   0.83334   0.18388   0.00000  Uiso   1.00
Zn705  Zn    0.44896   0.83334   0.25000   0.00000  Uiso   1.00
Zn706  Zn    0.55104   0.83333   0.25000   0.00000  Uiso   1.00
C707   C     0.39092   0.91686   0.05001   0.00000  Uiso   1.00
N708   N     0.36658   0.94384   0.06979   0.00000  Uiso   1.00
C709   C     0.61230   0.91919   0.45379   0.00000  Uiso   1.00
N710   N     0.63673   0.94643   0.43529   0.00000  Uiso   1.00
C711   C     0.48603   0.79681   0.10110   0.00000  Uiso   1.00
N712   N     0.45904   0.76960   0.11252   0.00000  Uiso   1.00
C713   C     0.52188   0.80142   0.39377   0.00000  Uiso   1.00
N714   N     0.55278   0.77789   0.37904   0.00000  Uiso   1.00
O715   O     0.61837   0.87854   0.11660   0.00000  Uiso   1.00
C716   C     0.65273   0.84666   0.10673   0.00000  Uiso   1.00
H717   H     0.33969   0.84334   0.06890   0.00000  Uiso   1.00
H718   H     0.63591   0.81630   0.11954   0.00000  Uiso   1.00
H719   H     0.34508   0.85417   0.12420   0.00000  Uiso   1.00
O720   O     0.37928   0.87253   0.38902   0.00000  Uiso   1.00
C721   C     0.34608   0.83932   0.39918   0.00000  Uiso   1.00
H722   H     0.36358   0.80975   0.38330   0.00000  Uiso   1.00
H723   H     0.65154   0.84587   0.38444   0.00000  Uiso   1.00
H724   H     0.66109   0.83548   0.43720   0.00000  Uiso   1.00
O725   O     0.37351   0.91669   0.46784   0.00000  Uiso   1.00
C726   C     0.39886   0.95352   0.44987   0.00000  Uiso   1.00
H727   H     0.40989   0.95407   0.41149   0.00000  Uiso   1.00
H728   H     0.43076   0.95791   0.46008   0.00000  Uiso   1.00
H729   H     0.37482   0.98023   0.46432   0.00000  Uiso   1.00
O730   O     0.62673   0.92103   0.03750   0.00000  Uiso   1.00
C731   C     0.60111   0.95726   0.05760   0.00000  Uiso   1.00
H732   H     0.58943   0.95694   0.09604   0.00000  Uiso   1.00
H733   H     0.56963   0.96165   0.04697   0.00000  Uiso   1.00
H734   H     0.62520   0.98436   0.04526   0.00000  Uiso   1.00
C735   C     0.59244   0.96036   0.22874   0.00000  Uiso   1.00
N736   N     0.62996   0.94568   0.21915   0.00000  Uiso   1.00
C737   C     0.41503   0.70403   0.25018   0.00000  Uiso   1.00
N738   N     0.37758   0.71774   0.25658   0.00000  Uiso   1.00
C739   C     0.57449   0.70616   0.26981   0.00000  Uiso   1.00
N740   N     0.60186   0.72107   0.28407   0.00000  Uiso   1.00
C741   C     0.43449   0.95714   0.21276   0.00000  Uiso   1.00
N742   N     0.40866   0.94083   0.19751   0.00000  Uiso   1.00
O743   O     0.63557   0.77841   0.19596   0.00000  Uiso   1.00
C744   C     0.33825   0.75475   0.16304   0.00000  Uiso   1.00
H745   H     0.35425   0.73244   0.18014   0.00000  Uiso   1.00
H746   H     0.36571   0.77501   0.13861   0.00000  Uiso   1.00
H747   H     0.65482   0.73626   0.14230   0.00000  Uiso   1.00
O748   O     0.36335   0.88775   0.30499   0.00000  Uiso   1.00
C749   C     0.33663   0.92460   0.31772   0.00000  Uiso   1.00
H750   H     0.63507   0.91883   0.34602   0.00000  Uiso   1.00
H751   H     0.66498   0.93929   0.28761   0.00000  Uiso   1.00
H752   H     0.35693   0.94696   0.33136   0.00000  Uiso   1.00
C753   C     0.83576   0.91275   0.24437   0.00000  Uiso   1.00
C754   C     0.83231   0.75318   0.25202   0.00000  Uiso   1.00
C755   C     0.78281   0.86576   0.04967   0.00000  Uiso   1.00
C756   C     0.88719   0.86782   0.45139   0.00000  Uiso   1.00
C757   C     0.75608   0.88381   0.02611   0.00000  Uiso   1.00
C758   C     0.91361   0.88593   0.47612   0.00000  Uiso   1.00
C759   C     0.87875   0.97897   0.24012   0.00000  Uiso   1.00
C760   C     0.79490   0.68610   0.24287   0.00000  Uiso   1.00
C761   C     0.87322   0.68713   0.25229   0.00000  Uiso   1.00
C762   C     0.80061   0.97770   0.23157   0.00000  Uiso   1.00
C763   C     0.83231   0.70820   0.25126   0.00000  Uiso   1.00
C764   C     0.83958   0.95681   0.23618   0.00000  Uiso   1.00
C765   C     0.98554   0.80612   0.22199   0.00000  Uiso   1.00
C766   C     0.68130   0.86114   0.27717   0.00000  Uiso   1.00
C767   C     0.70054   0.80657   0.22225   0.00000  Uiso   1.00
C768   C     0.96618   0.86028   0.27752   0.00000  Uiso   1.00
C769   C     0.80343   0.83356   0.33789   0.00000  Uiso   1.00
C770   C     0.86339   0.83393   0.16222   0.00000  Uiso   1.00
C771   C     0.78609   0.84052   0.38831   0.00000  Uiso   1.00
C772   C     0.88172   0.84212   0.11242   0.00000  Uiso   1.00
C773   C     0.73823   0.88418   0.45325   0.00000  Uiso   1.00
C774   C     0.92915   0.88781   0.05042   0.00000  Uiso   1.00
C775   C     0.74497   0.86489   0.41034   0.00000  Uiso   1.00
C776   C     0.92133   0.86897   0.09315   0.00000  Uiso   1.00
C777   C     0.81641   0.83105   0.41239   0.00000  Uiso   1.00
C778   C     0.85390   0.83045   0.08637   0.00000  Uiso   1.00
C779   C     0.80752   0.84860   0.45625   0.00000  Uiso   1.00
C780   C     0.86271   0.84867   0.04358   0.00000  Uiso   1.00
C781   C     0.76603   0.87222   0.47903   0.00000  Uiso   1.00
C782   C     0.90316   0.87421   0.02286   0.00000  Uiso   1.00
C783   C     0.84269   0.84927   0.47586   0.00000  Uiso   1.00
C784   C     0.82767   0.84858   0.02395   0.00000  Uiso   1.00
H785   H     0.77376   0.87272   0.08628   0.00000  Uiso   1.00
H786   H     0.89620   0.87546   0.41521   0.00000  Uiso   1.00
H787   H     0.72741   0.78550   0.20079   0.00000  Uiso   1.00
H788   H     0.93918   0.88088   0.29984   0.00000  Uiso   1.00
N789   N     0.71426   0.83334   0.25001   0.00000  Uiso   1.00
N790   N     0.95241   0.83332   0.24999   0.00000  Uiso   1.00
O791   O     0.79512   0.89442   0.25001   0.00000  Uiso   1.00
O792   O     0.87154   0.77225   0.25000   0.00000  Uiso   1.00
O793   O     0.87157   0.89441   0.25000   0.00000  Uiso   1.00
O794   O     0.79510   0.77226   0.25000   0.00000  Uiso   1.00
O795   O     0.77328   0.83334   0.31613   0.00000  Uiso   1.00
O796   O     0.89339   0.83333   0.18388   0.00000  Uiso   1.00
O797   O     0.84972   0.83333   0.31612   0.00000  Uiso   1.00
O798   O     0.81695   0.83334   0.18388   0.00000  Uiso   1.00
Zn799  Zn    0.78229   0.83334   0.25000   0.00000  Uiso   1.00
Zn800  Zn    0.88438   0.83333   0.25000   0.00000  Uiso   1.00
C801   C     0.72426   0.91686   0.05001   0.00000  Uiso   1.00
N802   N     0.69991   0.94384   0.06979   0.00000  Uiso   1.00
C803   C     0.94564   0.91919   0.45379   0.00000  Uiso   1.00
N804   N     0.97007   0.94643   0.43529   0.00000  Uiso   1.00
C805   C     0.81936   0.79681   0.10110   0.00000  Uiso   1.00
N806   N     0.79237   0.76960   0.11252   0.00000  Uiso   1.00
C807   C     0.85522   0.80142   0.39377   0.00000  Uiso   1.00
N808   N     0.88612   0.77789   0.37904   0.00000  Uiso   1.00
O809   O     0.95170   0.87854   0.11660   0.00000  Uiso   1.00
C810   C     0.98606   0.84666   0.10673   0.00000  Uiso   1.00
H811   H     0.67302   0.84334   0.06890   0.00000  Uiso   1.00
H812   H     0.96924   0.81630   0.11954   0.00000  Uiso   1.00
H813   H     0.67841   0.85417   0.12420   0.00000  Uiso   1.00
O814   O     0.71261   0.87253   0.38902   0.00000  Uiso   1.00
C815   C     0.67941   0.83932   0.39918   0.00000  Uiso   1.00
H816   H     0.69691   0.80975   0.38330   0.00000  Uiso   1.00
H817   H     0.98487   0.84587   0.38444   0.00000  Uiso   1.00
H818   H     0.99442   0.83548   0.43720   0.00000  Uiso   1.00
O819   O     0.70684   0.91669   0.46784   0.00000  Uiso   1.00
C820   C     0.73220   0.95352   0.44987   0.00000  Uiso   1.00
H821   H     0.74323   0.95407   0.41149   0.00000  Uiso   1.00
H822   H     0.76410   0.95791   0.46008   0.00000  Uiso   1.00
H823   H     0.70815   0.98023   0.46432   0.00000  Uiso   1.00
O824   O     0.96006   0.92103   0.03750   0.00000  Uiso   1.00
C825   C     0.93444   0.95726   0.05760   0.00000  Uiso   1.00
H826   H     0.92276   0.95694   0.09604   0.00000  Uiso   1.00
H827   H     0.90296   0.96165   0.04697   0.00000  Uiso   1.00
H828   H     0.95854   0.98436   0.04526   0.00000  Uiso   1.00
C829   C     0.92577   0.96036   0.22874   0.00000  Uiso   1.00
N830   N     0.96330   0.94568   0.21915   0.00000  Uiso   1.00
C831   C     0.74836   0.70403   0.25018   0.00000  Uiso   1.00
N832   N     0.71091   0.71774   0.25658   0.00000  Uiso   1.00
C833   C     0.90782   0.70616   0.26981   0.00000  Uiso   1.00
N834   N     0.93520   0.72107   0.28407   0.00000  Uiso   1.00
C835   C     0.76783   0.95714   0.21276   0.00000  Uiso   1.00
N836   N     0.74200   0.94083   0.19751   0.00000  Uiso   1.00
O837   O     0.96891   0.77841   0.19596   0.00000  Uiso   1.00
C838   C     0.67158   0.75475   0.16304   0.00000  Uiso   1.00
H839   H     0.68758   0.73244   0.18014   0.00000  Uiso   1.00
H840   H     0.69904   0.77501   0.13861   0.00000  Uiso   1.00
H841   H     0.98815   0.73626   0.14230   0.00000  Uiso   1.00
O842   O     0.69668   0.88775   0.30499   0.00000  Uiso   1.00
C843   C     0.66997   0.92460   0.31772   0.00000  Uiso   1.00
H844   H     0.96840   0.91883   0.34602   0.00000  Uiso   1.00
H845   H     0.99831   0.93929   0.28761   0.00000  Uiso   1.00
H846   H     0.69026   0.94696   0.33136   0.00000  Uiso   1.00
C847   C     0.16909   0.24609   0.74437   0.00000  Uiso   1.00
C848   C     0.16564   0.08651   0.75202   0.00000  Uiso   1.00
C849   C     0.11614   0.19910   0.54967   0.00000  Uiso   1.00
C850   C     0.22052   0.20115   0.95139   0.00000  Uiso   1.00
C851   C     0.08941   0.21714   0.52611   0.00000  Uiso   1.00
C852   C     0.24694   0.21926   0.97612   0.00000  Uiso   1.00
C853   C     0.21208   0.31231   0.74012   0.00000  Uiso   1.00
C854   C     0.12823   0.01943   0.74287   0.00000  Uiso   1.00
C855   C     0.20655   0.02046   0.75229   0.00000  Uiso   1.00
C856   C     0.13395   0.31104   0.73157   0.00000  Uiso   1.00
C857   C     0.16564   0.04153   0.75126   0.00000  Uiso   1.00
C858   C     0.17291   0.29015   0.73618   0.00000  Uiso   1.00
C859   C     0.31887   0.13945   0.72199   0.00000  Uiso   1.00
C860   C     0.01463   0.19447   0.77717   0.00000  Uiso   1.00
C861   C     0.03387   0.13991   0.72225   0.00000  Uiso   1.00
C862   C     0.29952   0.19361   0.77752   0.00000  Uiso   1.00
C863   C     0.13676   0.16689   0.83789   0.00000  Uiso   1.00
C864   C     0.19672   0.16726   0.66222   0.00000  Uiso   1.00
C865   C     0.11943   0.17385   0.88831   0.00000  Uiso   1.00
C866   C     0.21505   0.17545   0.61242   0.00000  Uiso   1.00
C867   C     0.07156   0.21751   0.95325   0.00000  Uiso   1.00
C868   C     0.26248   0.22114   0.55042   0.00000  Uiso   1.00
C869   C     0.07830   0.19823   0.91034   0.00000  Uiso   1.00
C870   C     0.25467   0.20231   0.59315   0.00000  Uiso   1.00
C871   C     0.14975   0.16439   0.91239   0.00000  Uiso   1.00
C872   C     0.18724   0.16378   0.58637   0.00000  Uiso   1.00
C873   C     0.14086   0.18193   0.95625   0.00000  Uiso   1.00
C874   C     0.19604   0.18200   0.54358   0.00000  Uiso   1.00
C875   C     0.09936   0.20555   0.97903   0.00000  Uiso   1.00
C876   C     0.23649   0.20754   0.52286   0.00000  Uiso   1.00
C877   C     0.17603   0.18261   0.97586   0.00000  Uiso   1.00
C878   C     0.16100   0.18192   0.52395   0.00000  Uiso   1.00
H879   H     0.10709   0.20605   0.58628   0.00000  Uiso   1.00
H880   H     0.22953   0.20880   0.91521   0.00000  Uiso   1.00
H881   H     0.06074   0.11883   0.70079   0.00000  Uiso   1.00
H882   H     0.27251   0.21421   0.79984   0.00000  Uiso   1.00
N883   N     0.04759   0.16668   0.75001   0.00000  Uiso   1.00
N884   N     0.28574   0.16666   0.74999   0.00000  Uiso   1.00
O885   O     0.12846   0.22775   0.75001   0.00000  Uiso   1.00
O886   O     0.20488   0.10558   0.75000   0.00000  Uiso   1.00
O887   O     0.20490   0.22774   0.75000   0.00000  Uiso   1.00
O888   O     0.12843   0.10559   0.75000   0.00000  Uiso   1.00
O889   O     0.10661   0.16667   0.81613   0.00000  Uiso   1.00
O890   O     0.22672   0.16666   0.68388   0.00000  Uiso   1.00
O891   O     0.18305   0.16666   0.81612   0.00000  Uiso   1.00
O892   O     0.15028   0.16667   0.68388   0.00000  Uiso   1.00
Zn893  Zn    0.11562   0.16667   0.75000   0.00000  Uiso   1.00
Zn894  Zn    0.21771   0.16666   0.75000   0.00000  Uiso   1.00
C895   C     0.05759   0.25020   0.55001   0.00000  Uiso   1.00
N896   N     0.03324   0.27717   0.56979   0.00000  Uiso   1.00
C897   C     0.27897   0.25253   0.95379   0.00000  Uiso   1.00
N898   N     0.30340   0.27977   0.93529   0.00000  Uiso   1.00
C899   C     0.15269   0.13014   0.60110   0.00000  Uiso   1.00
N900   N     0.12571   0.10293   0.61252   0.00000  Uiso   1.00
C901   C     0.18855   0.13476   0.89377   0.00000  Uiso   1.00
N902   N     0.21945   0.11122   0.87904   0.00000  Uiso   1.00
O903   O     0.28503   0.21187   0.61660   0.00000  Uiso   1.00
C904   C     0.31940   0.17999   0.60673   0.00000  Uiso   1.00
H905   H     0.00635   0.17667   0.56890   0.00000  Uiso   1.00
H906   H     0.30258   0.14963   0.61954   0.00000  Uiso   1.00
H907   H     0.01175   0.18751   0.62420   0.00000  Uiso   1.00
O908   O     0.04594   0.20587   0.88902   0.00000  Uiso   1.00
C909   C     0.01275   0.17265   0.89918   0.00000  Uiso   1.00
H910   H     0.03024   0.14308   0.88330   0.00000  Uiso   1.00
H911   H     0.31821   0.17920   0.88444   0.00000  Uiso   1.00
H912   H     0.32775   0.16881   0.93720   0.00000  Uiso   1.00
O913   O     0.04018   0.25002   0.96784   0.00000  Uiso   1.00
C914   C     0.06553   0.28685   0.94987   0.00000  Uiso   1.00
H915   H     0.07656   0.28741   0.91149   0.00000  Uiso   1.00
H916   H     0.09743   0.29125   0.96008   0.00000  Uiso   1.00
H917   H     0.04149   0.31356   0.96432   0.00000  Uiso   1.00
O918   O     0.29340   0.25436   0.53750   0.00000  Uiso   1.00
C919   C     0.26777   0.29059   0.55760   0.00000  Uiso   1.00
H920   H     0.25610   0.29027   0.59604   0.00000  Uiso   1.00
H921   H     0.23630   0.29498   0.54697   0.00000  Uiso   1.00
H922   H     0.29187   0.31770   0.54526   0.00000  Uiso   1.00
C923   C     0.25910   0.29369   0.72874   0.00000  Uiso   1.00
N924   N     0.29663   0.27902   0.71915   0.00000  Uiso   1.00
C925   C     0.08170   0.03737   0.75018   0.00000  Uiso   1.00
N926   N     0.04425   0.05108   0.75658   0.00000  Uiso   1.00
C927   C     0.24115   0.03950   0.76981   0.00000  Uiso   1.00
N928   N     0.26853   0.05441   0.78407   0.00000  Uiso   1.00
C929   C     0.10116   0.29047   0.71276   0.00000  Uiso   1.00
N930   N     0.07533   0.27417   0.69751   0.00000  Uiso   1.00
O931   O     0.30224   0.11175   0.69596   0.00000  Uiso   1.00
C932   C     0.00491   0.08808   0.66304   0.00000  Uiso   1.00
H933   H     0.02092   0.06577   0.68014   0.00000  Uiso   1.00
H934   H     0.03238   0.10835   0.63861   0.00000  Uiso   1.00
H935   H     0.32149   0.06960   0.64230   0.00000  Uiso   1.00
O936   O     0.03002   0.22109   0.80499   0.00000  Uiso   1.00
C937   C     0.00330   0.25793   0.81772   0.00000  Uiso   1.00
H938   H     0.30174   0.25216   0.84602   0.00000  Uiso   1.00
H939   H     0.33164   0.27263   0.78761   0.00000  Uiso   1.00
H940   H     0.02360   0.28029   0.83136   0.00000  Uiso   1.00
C941   C     0.50242   0.24609   0.74437   0.00000  Uiso   1.00
C942   C     0.49898   0.08651   0.75202   0.00000  Uiso   1.00
C943   C     0.44947   0.19910   0.54967   0.00000  Uiso   1.00
C944   C     0.55385   0.20115   0.95139   0.00000  Uiso   1.00
C945   C     0.42274   0.21714   0.52611   0.00000  Uiso   1.00
C946   C     0.58028   0.21926   0.97612   0.00000  Uiso   1.00
C947   C     0.54541   0.31231   0.74012   0.00000  Uiso   1.00
C948   C     0.46156   0.01943   0.74287   0.00000  Uiso   1.00
C949   C     0.53988   0.02046   0.75229   0.00000  Uiso   1.00
C950   C     0.46728   0.31104   0.73157   0.00000  Uiso   1.00
C951   C     0.49898   0.04153   0.75126   0.00000  Uiso   1.00
C952   C     0.50624   0.29015   0.73618   0.00000  Uiso   1.00
C953   C     0.65220   0.13945   0.72199   0.00000  Uiso   1.00
C954   C     0.34797   0.19447   0.77717   0.00000  Uiso   1.00
C955   C     0.36720   0.13991   0.72225   0.00000  Uiso   1.00
C956   C     0.63285   0.19361   0.77752   0.00000  Uiso   1.00
C957   C     0.47009   0.16689   0.83789   0.00000  Uiso   1.00
C958   C     0.53006   0.16726   0.66222   0.00000  Uiso   1.00
C959   C     0.45276   0.17385   0.88831   0.00000  Uiso   1.00
C960   C     0.54838   0.17545   0.61242   0.00000  Uiso   1.00
C961   C     0.40489   0.21751   0.95325   0.00000  Uiso   1.00
C962   C     0.59582   0.22114   0.55042   0.00000  Uiso   1.00
C963   C     0.41164   0.19823   0.91034   0.00000  Uiso   1.00
C964   C     0.58800   0.20231   0.59315   0.00000  Uiso   1.00
C965   C     0.48308   0.16439   0.91239   0.00000  Uiso   1.00
C966   C     0.52057   0.16378   0.58637   0.00000  Uiso   1.00
C967   C     0.47419   0.18193   0.95625   0.00000  Uiso   1.00
C968   C     0.52937   0.18200   0.54358   0.00000  Uiso   1.00
C969   C     0.43270   0.20555   0.97903   0.00000  Uiso   1.00
C970   C     0.56982   0.20754   0.52286   0.00000  Uiso   1.00
C971   C     0.50936   0.18261   0.97586   0.00000  Uiso   1.00
C972   C     0.49433   0.18192   0.52395   0.00000  Uiso   1.00
H973   H     0.44043   0.20605   0.58628   0.00000  Uiso   1.00
H974   H     0.56286   0.20880   0.91521   0.00000  Uiso   1.00
H975   H     0.39408   0.11883   0.70079   0.00000  Uiso   1.00
H976   H     0.60584   0.21421   0.79984   0.00000  Uiso   1.00
N977   N     0.38093   0.16668   0.75001   0.00000  Uiso   1.00
N978   N     0.61907   0.16666   0.74999   0.00000  Uiso   1.00
O979   O     0.46179   0.22775   0.75001   0.00000  Uiso   1.00
O980   O     0.53821   0.10558   0.75000   0.00000  Uiso   1.00
O981   O     0.53823   0.22774   0.75000   0.00000  Uiso   1.00
O982   O     0.46177   0.10559   0.75000   0.00000  Uiso   1.00
O983   O     0.43994   0.16667   0.81613   0.00000  Uiso   1.00
O984   O     0.56006   0.16666   0.68388   0.00000  Uiso   1.00
O985   O     0.51639   0.16666   0.81612   0.00000  Uiso   1.00
O986   O     0.48361   0.16667   0.68388   0.00000  Uiso   1.00
Zn987  Zn    0.44896   0.16667   0.75000   0.00000  Uiso   1.00
Zn988  Zn    0.55104   0.16666   0.75000   0.00000  Uiso   1.00
C989   C     0.39092   0.25020   0.55001   0.00000  Uiso   1.00
N990   N     0.36658   0.27717   0.56979   0.00000  Uiso   1.00
C991   C     0.61230   0.25253   0.95379   0.00000  Uiso   1.00
N992   N     0.63673   0.27977   0.93529   0.00000  Uiso   1.00
C993   C     0.48603   0.13014   0.60110   0.00000  Uiso   1.00
N994   N     0.45904   0.10293   0.61252   0.00000  Uiso   1.00
C995   C     0.52188   0.13476   0.89377   0.00000  Uiso   1.00
N996   N     0.55278   0.11122   0.87904   0.00000  Uiso   1.00
O997   O     0.61837   0.21187   0.61660   0.00000  Uiso   1.00
C998   C     0.65273   0.17999   0.60673   0.00000  Uiso   1.00
H999   H     0.33969   0.17667   0.56890   0.00000  Uiso   1.00
H1000  H     0.63591   0.14963   0.61954   0.00000  Uiso   1.00
H1001  H     0.34508   0.18751   0.62420   0.00000  Uiso   1.00
O1002  O     0.37928   0.20587   0.88902   0.00000  Uiso   1.00
C1003  C     0.34608   0.17265   0.89918   0.00000  Uiso   1.00
H1004  H     0.36358   0.14308   0.88330   0.00000  Uiso   1.00
H1005  H     0.65154   0.17920   0.88444   0.00000  Uiso   1.00
H1006  H     0.66109   0.16881   0.93720   0.00000  Uiso   1.00
O1007  O     0.37351   0.25002   0.96784   0.00000  Uiso   1.00
C1008  C     0.39886   0.28685   0.94987   0.00000  Uiso   1.00
H1009  H     0.40989   0.28741   0.91149   0.00000  Uiso   1.00
H1010  H     0.43076   0.29125   0.96008   0.00000  Uiso   1.00
H1011  H     0.37482   0.31356   0.96432   0.00000  Uiso   1.00
O1012  O     0.62673   0.25436   0.53750   0.00000  Uiso   1.00
C1013  C     0.60111   0.29059   0.55760   0.00000  Uiso   1.00
H1014  H     0.58943   0.29027   0.59604   0.00000  Uiso   1.00
H1015  H     0.56963   0.29498   0.54697   0.00000  Uiso   1.00
H1016  H     0.62520   0.31770   0.54526   0.00000  Uiso   1.00
C1017  C     0.59244   0.29369   0.72874   0.00000  Uiso   1.00
N1018  N     0.62996   0.27902   0.71915   0.00000  Uiso   1.00
C1019  C     0.41503   0.03737   0.75018   0.00000  Uiso   1.00
N1020  N     0.37758   0.05108   0.75658   0.00000  Uiso   1.00
C1021  C     0.57449   0.03950   0.76981   0.00000  Uiso   1.00
N1022  N     0.60186   0.05441   0.78407   0.00000  Uiso   1.00
C1023  C     0.43449   0.29047   0.71276   0.00000  Uiso   1.00
N1024  N     0.40866   0.27417   0.69751   0.00000  Uiso   1.00
O1025  O     0.63557   0.11175   0.69596   0.00000  Uiso   1.00
C1026  C     0.33825   0.08808   0.66304   0.00000  Uiso   1.00
H1027  H     0.35425   0.06577   0.68014   0.00000  Uiso   1.00
H1028  H     0.36571   0.10835   0.63861   0.00000  Uiso   1.00
H1029  H     0.65482   0.06960   0.64230   0.00000  Uiso   1.00
O1030  O     0.36335   0.22109   0.80499   0.00000  Uiso   1.00
C1031  C     0.33663   0.25793   0.81772   0.00000  Uiso   1.00
H1032  H     0.63507   0.25216   0.84602   0.00000  Uiso   1.00
H1033  H     0.66498   0.27263   0.78761   0.00000  Uiso   1.00
H1034  H     0.35693   0.28029   0.83136   0.00000  Uiso   1.00
C1035  C     0.83576   0.24609   0.74437   0.00000  Uiso   1.00
C1036  C     0.83231   0.08651   0.75202   0.00000  Uiso   1.00
C1037  C     0.78281   0.19910   0.54967   0.00000  Uiso   1.00
C1038  C     0.88719   0.20115   0.95139   0.00000  Uiso   1.00
C1039  C     0.75608   0.21714   0.52611   0.00000  Uiso   1.00
C1040  C     0.91361   0.21926   0.97612   0.00000  Uiso   1.00
C1041  C     0.87875   0.31231   0.74012   0.00000  Uiso   1.00
C1042  C     0.79490   0.01943   0.74287   0.00000  Uiso   1.00
C1043  C     0.87322   0.02046   0.75229   0.00000  Uiso   1.00
C1044  C     0.80061   0.31104   0.73157   0.00000  Uiso   1.00
C1045  C     0.83231   0.04153   0.75126   0.00000  Uiso   1.00
C1046  C     0.83958   0.29015   0.73618   0.00000  Uiso   1.00
C1047  C     0.98554   0.13945   0.72199   0.00000  Uiso   1.00
C1048  C     0.68130   0.19447   0.77717   0.00000  Uiso   1.00
C1049  C     0.70054   0.13991   0.72225   0.00000  Uiso   1.00
C1050  C     0.96618   0.19361   0.77752   0.00000  Uiso   1.00
C1051  C     0.80343   0.16689   0.83789   0.00000  Uiso   1.00
C1052  C     0.86339   0.16726   0.66222   0.00000  Uiso   1.00
C1053  C     0.78609   0.17385   0.88831   0.00000  Uiso   1.00
C1054  C     0.88172   0.17545   0.61242   0.00000  Uiso   1.00
C1055  C     0.73823   0.21751   0.95325   0.00000  Uiso   1.00
C1056  C     0.92915   0.22114   0.55042   0.00000  Uiso   1.00
C1057  C     0.74497   0.19823   0.91034   0.00000  Uiso   1.00
C1058  C     0.92133   0.20231   0.59315   0.00000  Uiso   1.00
C1059  C     0.81641   0.16439   0.91239   0.00000  Uiso   1.00
C1060  C     0.85390   0.16378   0.58637   0.00000  Uiso   1.00
C1061  C     0.80752   0.18193   0.95625   0.00000  Uiso   1.00
C1062  C     0.86271   0.18200   0.54358   0.00000  Uiso   1.00
C1063  C     0.76603   0.20555   0.97903   0.00000  Uiso   1.00
C1064  C     0.90316   0.20754   0.52286   0.00000  Uiso   1.00
C1065  C     0.84269   0.18261   0.97586   0.00000  Uiso   1.00
C1066  C     0.82767   0.18192   0.52395   0.00000  Uiso   1.00
H1067  H     0.77376   0.20605   0.58628   0.00000  Uiso   1.00
H1068  H     0.89620   0.20880   0.91521   0.00000  Uiso   1.00
H1069  H     0.72741   0.11883   0.70079   0.00000  Uiso   1.00
H1070  H     0.93918   0.21421   0.79984   0.00000  Uiso   1.00
N1071  N     0.71426   0.16668   0.75001   0.00000  Uiso   1.00
N1072  N     0.95241   0.16666   0.74999   0.00000  Uiso   1.00
O1073  O     0.79512   0.22775   0.75001   0.00000  Uiso   1.00
O1074  O     0.87154   0.10558   0.75000   0.00000  Uiso   1.00
O1075  O     0.87157   0.22774   0.75000   0.00000  Uiso   1.00
O1076  O     0.79510   0.10559   0.75000   0.00000  Uiso   1.00
O1077  O     0.77328   0.16667   0.81613   0.00000  Uiso   1.00
O1078  O     0.89339   0.16666   0.68388   0.00000  Uiso   1.00
O1079  O     0.84972   0.16666   0.81612   0.00000  Uiso   1.00
O1080  O     0.81695   0.16667   0.68388   0.00000  Uiso   1.00
Zn1081 Zn    0.78229   0.16667   0.75000   0.00000  Uiso   1.00
Zn1082 Zn    0.88438   0.16666   0.75000   0.00000  Uiso   1.00
C1083  C     0.72426   0.25020   0.55001   0.00000  Uiso   1.00
N1084  N     0.69991   0.27717   0.56979   0.00000  Uiso   1.00
C1085  C     0.94564   0.25253   0.95379   0.00000  Uiso   1.00
N1086  N     0.97007   0.27977   0.93529   0.00000  Uiso   1.00
C1087  C     0.81936   0.13014   0.60110   0.00000  Uiso   1.00
N1088  N     0.79237   0.10293   0.61252   0.00000  Uiso   1.00
C1089  C     0.85522   0.13476   0.89377   0.00000  Uiso   1.00
N1090  N     0.88612   0.11122   0.87904   0.00000  Uiso   1.00
O1091  O     0.95170   0.21187   0.61660   0.00000  Uiso   1.00
C1092  C     0.98606   0.17999   0.60673   0.00000  Uiso   1.00
H1093  H     0.67302   0.17667   0.56890   0.00000  Uiso   1.00
H1094  H     0.96924   0.14963   0.61954   0.00000  Uiso   1.00
H1095  H     0.67841   0.18751   0.62420   0.00000  Uiso   1.00
O1096  O     0.71261   0.20587   0.88902   0.00000  Uiso   1.00
C1097  C     0.67941   0.17265   0.89918   0.00000  Uiso   1.00
H1098  H     0.69691   0.14308   0.88330   0.00000  Uiso   1.00
H1099  H     0.98487   0.17920   0.88444   0.00000  Uiso   1.00
H1100  H     0.99442   0.16881   0.93720   0.00000  Uiso   1.00
O1101  O     0.70684   0.25002   0.96784   0.00000  Uiso   1.00
C1102  C     0.73220   0.28685   0.94987   0.00000  Uiso   1.00
H1103  H     0.74323   0.28741   0.91149   0.00000  Uiso   1.00
H1104  H     0.76410   0.29125   0.96008   0.00000  Uiso   1.00
H1105  H     0.70815   0.31356   0.96432   0.00000  Uiso   1.00
O1106  O     0.96006   0.25436   0.53750   0.00000  Uiso   1.00
C1107  C     0.93444   0.29059   0.55760   0.00000  Uiso   1.00
H1108  H     0.92276   0.29027   0.59604   0.00000  Uiso   1.00
H1109  H     0.90296   0.29498   0.54697   0.00000  Uiso   1.00
H1110  H     0.95854   0.31770   0.54526   0.00000  Uiso   1.00
C1111  C     0.92577   0.29369   0.72874   0.00000  Uiso   1.00
N1112  N     0.96330   0.27902   0.71915   0.00000  Uiso   1.00
C1113  C     0.74836   0.03737   0.75018   0.00000  Uiso   1.00
N1114  N     0.71091   0.05108   0.75658   0.00000  Uiso   1.00
C1115  C     0.90782   0.03950   0.76981   0.00000  Uiso   1.00
N1116  N     0.93520   0.05441   0.78407   0.00000  Uiso   1.00
C1117  C     0.76783   0.29047   0.71276   0.00000  Uiso   1.00
N1118  N     0.74200   0.27417   0.69751   0.00000  Uiso   1.00
O1119  O     0.96891   0.11175   0.69596   0.00000  Uiso   1.00
C1120  C     0.67158   0.08808   0.66304   0.00000  Uiso   1.00
H1121  H     0.68758   0.06577   0.68014   0.00000  Uiso   1.00
H1122  H     0.69904   0.10835   0.63861   0.00000  Uiso   1.00
H1123  H     0.98815   0.06960   0.64230   0.00000  Uiso   1.00
O1124  O     0.69668   0.22109   0.80499   0.00000  Uiso   1.00
C1125  C     0.66997   0.25793   0.81772   0.00000  Uiso   1.00
H1126  H     0.96840   0.25216   0.84602   0.00000  Uiso   1.00
H1127  H     0.99831   0.27263   0.78761   0.00000  Uiso   1.00
H1128  H     0.69026   0.28029   0.83136   0.00000  Uiso   1.00
C1129  C     0.16909   0.57942   0.74437   0.00000  Uiso   1.00
C1130  C     0.16564   0.41984   0.75202   0.00000  Uiso   1.00
C1131  C     0.11614   0.53243   0.54967   0.00000  Uiso   1.00
C1132  C     0.22052   0.53448   0.95139   0.00000  Uiso   1.00
C1133  C     0.08941   0.55047   0.52611   0.00000  Uiso   1.00
C1134  C     0.24694   0.55260   0.97612   0.00000  Uiso   1.00
C1135  C     0.21208   0.64564   0.74012   0.00000  Uiso   1.00
C1136  C     0.12823   0.35277   0.74287   0.00000  Uiso   1.00
C1137  C     0.20655   0.35379   0.75229   0.00000  Uiso   1.00
C1138  C     0.13395   0.64437   0.73157   0.00000  Uiso   1.00
C1139  C     0.16564   0.37487   0.75126   0.00000  Uiso   1.00
C1140  C     0.17291   0.62348   0.73618   0.00000  Uiso   1.00
C1141  C     0.31887   0.47278   0.72199   0.00000  Uiso   1.00
C1142  C     0.01463   0.52781   0.77717   0.00000  Uiso   1.00
C1143  C     0.03387   0.47324   0.72225   0.00000  Uiso   1.00
C1144  C     0.29952   0.52694   0.77752   0.00000  Uiso   1.00
C1145  C     0.13676   0.50022   0.83789   0.00000  Uiso   1.00
C1146  C     0.19672   0.50059   0.66222   0.00000  Uiso   1.00
C1147  C     0.11943   0.50718   0.88831   0.00000  Uiso   1.00
C1148  C     0.21505   0.50878   0.61242   0.00000  Uiso   1.00
C1149  C     0.07156   0.55085   0.95325   0.00000  Uiso   1.00
C1150  C     0.26248   0.55448   0.55042   0.00000  Uiso   1.00
C1151  C     0.07830   0.53156   0.91034   0.00000  Uiso   1.00
C1152  C     0.25467   0.53564   0.59315   0.00000  Uiso   1.00
C1153  C     0.14975   0.49772   0.91239   0.00000  Uiso   1.00
C1154  C     0.18724   0.49712   0.58637   0.00000  Uiso   1.00
C1155  C     0.14086   0.51527   0.95625   0.00000  Uiso   1.00
C1156  C     0.19604   0.51533   0.54358   0.00000  Uiso   1.00
C1157  C     0.09936   0.53889   0.97903   0.00000  Uiso   1.00
C1158  C     0.23649   0.54088   0.52286   0.00000  Uiso   1.00
C1159  C     0.17603   0.51594   0.97586   0.00000  Uiso   1.00
C1160  C     0.16100   0.51525   0.52395   0.00000  Uiso   1.00
H1161  H     0.10709   0.53938   0.58628   0.00000  Uiso   1.00
H1162  H     0.22953   0.54213   0.91521   0.00000  Uiso   1.00
H1163  H     0.06074   0.45217   0.70079   0.00000  Uiso   1.00
H1164  H     0.27251   0.54755   0.79984   0.00000  Uiso   1.00
N1165  N     0.04759   0.50001   0.75001   0.00000  Uiso   1.00
N1166  N     0.28574   0.49999   0.74999   0.00000  Uiso   1.00
O1167  O     0.12846   0.56108   0.75001   0.00000  Uiso   1.00
O1168  O     0.20488   0.43892   0.75000   0.00000  Uiso   1.00
O1169  O     0.20490   0.56107   0.75000   0.00000  Uiso   1.00
O1170  O     0.12843   0.43893   0.75000   0.00000  Uiso   1.00
O1171  O     0.10661   0.50001   0.81613   0.00000  Uiso   1.00
O1172  O     0.22672   0.49999   0.68388   0.00000  Uiso   1.00
O1173  O     0.18305   0.50000   0.81612   0.00000  Uiso   1.00
O1174  O     0.15028   0.50000   0.68388   0.00000  Uiso   1.00
Zn1175 Zn    0.11562   0.50001   0.75000   0.00000  Uiso   1.00
Zn1176 Zn    0.21771   0.49999   0.75000   0.00000  Uiso   1.00
C1177  C     0.05759   0.58353   0.55001   0.00000  Uiso   1.00
N1178  N     0.03324   0.61050   0.56979   0.00000  Uiso   1.00
C1179  C     0.27897   0.58586   0.95379   0.00000  Uiso   1.00
N1180  N     0.30340   0.61310   0.93529   0.00000  Uiso   1.00
C1181  C     0.15269   0.46347   0.60110   0.00000  Uiso   1.00
N1182  N     0.12571   0.43627   0.61252   0.00000  Uiso   1.00
C1183  C     0.18855   0.46809   0.89377   0.00000  Uiso   1.00
N1184  N     0.21945   0.44455   0.87904   0.00000  Uiso   1.00
O1185  O     0.28503   0.54520   0.61660   0.00000  Uiso   1.00
C1186  C     0.31940   0.51332   0.60673   0.00000  Uiso   1.00
H1187  H     0.00635   0.51001   0.56890   0.00000  Uiso   1.00
H1188  H     0.30258   0.48296   0.61954   0.00000  Uiso   1.00
H1189  H     0.01175   0.52084   0.62420   0.00000  Uiso   1.00
O1190  O     0.04594   0.53920   0.88902   0.00000  Uiso   1.00
C1191  C     0.01275   0.50598   0.89918   0.00000  Uiso   1.00
H1192  H     0.03024   0.47642   0.88330   0.00000  Uiso   1.00
H1193  H     0.31821   0.51254   0.88444   0.00000  Uiso   1.00
H1194  H     0.32775   0.50214   0.93720   0.00000  Uiso   1.00
O1195  O     0.04018   0.58336   0.96784   0.00000  Uiso   1.00
C1196  C     0.06553   0.62018   0.94987   0.00000  Uiso   1.00
H1197  H     0.07656   0.62074   0.91149   0.00000  Uiso   1.00
H1198  H     0.09743   0.62458   0.96008   0.00000  Uiso   1.00
H1199  H     0.04149   0.64690   0.96432   0.00000  Uiso   1.00
O1200  O     0.29340   0.58770   0.53750   0.00000  Uiso   1.00
C1201  C     0.26777   0.62393   0.55760   0.00000  Uiso   1.00
H1202  H     0.25610   0.62361   0.59604   0.00000  Uiso   1.00
H1203  H     0.23630   0.62832   0.54697   0.00000  Uiso   1.00
H1204  H     0.29187   0.65103   0.54526   0.00000  Uiso   1.00
C1205  C     0.25910   0.62703   0.72874   0.00000  Uiso   1.00
N1206  N     0.29663   0.61235   0.71915   0.00000  Uiso   1.00
C1207  C     0.08170   0.37070   0.75018   0.00000  Uiso   1.00
N1208  N     0.04425   0.38441   0.75658   0.00000  Uiso   1.00
C1209  C     0.24115   0.37283   0.76981   0.00000  Uiso   1.00
N1210  N     0.26853   0.38774   0.78407   0.00000  Uiso   1.00
C1211  C     0.10116   0.62381   0.71276   0.00000  Uiso   1.00
N1212  N     0.07533   0.60750   0.69751   0.00000  Uiso   1.00
O1213  O     0.30224   0.44508   0.69596   0.00000  Uiso   1.00
C1214  C     0.00491   0.42142   0.66304   0.00000  Uiso   1.00
H1215  H     0.02092   0.39910   0.68014   0.00000  Uiso   1.00
H1216  H     0.03238   0.44168   0.63861   0.00000  Uiso   1.00
H1217  H     0.32149   0.40293   0.64230   0.00000  Uiso   1.00
O1218  O     0.03002   0.55442   0.80499   0.00000  Uiso   1.00
C1219  C     0.00330   0.59126   0.81772   0.00000  Uiso   1.00
H1220  H     0.30174   0.58550   0.84602   0.00000  Uiso   1.00
H1221  H     0.33164   0.60596   0.78761   0.00000  Uiso   1.00
H1222  H     0.02360   0.61363   0.83136   0.00000  Uiso   1.00
C1223  C     0.50242   0.57942   0.74437   0.00000  Uiso   1.00
C1224  C     0.49898   0.41984   0.75202   0.00000  Uiso   1.00
C1225  C     0.44947   0.53243   0.54967   0.00000  Uiso   1.00
C1226  C     0.55385   0.53448   0.95139   0.00000  Uiso   1.00
C1227  C     0.42274   0.55047   0.52611   0.00000  Uiso   1.00
C1228  C     0.58028   0.55260   0.97612   0.00000  Uiso   1.00
C1229  C     0.54541   0.64564   0.74012   0.00000  Uiso   1.00
C1230  C     0.46156   0.35277   0.74287   0.00000  Uiso   1.00
C1231  C     0.53988   0.35379   0.75229   0.00000  Uiso   1.00
C1232  C     0.46728   0.64437   0.73157   0.00000  Uiso   1.00
C1233  C     0.49898   0.37487   0.75126   0.00000  Uiso   1.00
C1234  C     0.50624   0.62348   0.73618   0.00000  Uiso   1.00
C1235  C     0.65220   0.47278   0.72199   0.00000  Uiso   1.00
C1236  C     0.34797   0.52781   0.77717   0.00000  Uiso   1.00
C1237  C     0.36720   0.47324   0.72225   0.00000  Uiso   1.00
C1238  C     0.63285   0.52694   0.77752   0.00000  Uiso   1.00
C1239  C     0.47009   0.50022   0.83789   0.00000  Uiso   1.00
C1240  C     0.53006   0.50059   0.66222   0.00000  Uiso   1.00
C1241  C     0.45276   0.50718   0.88831   0.00000  Uiso   1.00
C1242  C     0.54838   0.50878   0.61242   0.00000  Uiso   1.00
C1243  C     0.40489   0.55085   0.95325   0.00000  Uiso   1.00
C1244  C     0.59582   0.55448   0.55042   0.00000  Uiso   1.00
C1245  C     0.41164   0.53156   0.91034   0.00000  Uiso   1.00
C1246  C     0.58800   0.53564   0.59315   0.00000  Uiso   1.00
C1247  C     0.48308   0.49772   0.91239   0.00000  Uiso   1.00
C1248  C     0.52057   0.49712   0.58637   0.00000  Uiso   1.00
C1249  C     0.47419   0.51527   0.95625   0.00000  Uiso   1.00
C1250  C     0.52937   0.51533   0.54358   0.00000  Uiso   1.00
C1251  C     0.43270   0.53889   0.97903   0.00000  Uiso   1.00
C1252  C     0.56982   0.54088   0.52286   0.00000  Uiso   1.00
C1253  C     0.50936   0.51594   0.97586   0.00000  Uiso   1.00
C1254  C     0.49433   0.51525   0.52395   0.00000  Uiso   1.00
H1255  H     0.44043   0.53938   0.58628   0.00000  Uiso   1.00
H1256  H     0.56286   0.54213   0.91521   0.00000  Uiso   1.00
H1257  H     0.39408   0.45217   0.70079   0.00000  Uiso   1.00
H1258  H     0.60584   0.54755   0.79984   0.00000  Uiso   1.00
N1259  N     0.38093   0.50001   0.75001   0.00000  Uiso   1.00
N1260  N     0.61907   0.49999   0.74999   0.00000  Uiso   1.00
O1261  O     0.46179   0.56108   0.75001   0.00000  Uiso   1.00
O1262  O     0.53821   0.43892   0.75000   0.00000  Uiso   1.00
O1263  O     0.53823   0.56107   0.75000   0.00000  Uiso   1.00
O1264  O     0.46177   0.43893   0.75000   0.00000  Uiso   1.00
O1265  O     0.43994   0.50001   0.81613   0.00000  Uiso   1.00
O1266  O     0.56006   0.49999   0.68388   0.00000  Uiso   1.00
O1267  O     0.51639   0.50000   0.81612   0.00000  Uiso   1.00
O1268  O     0.48361   0.50000   0.68388   0.00000  Uiso   1.00
Zn1269 Zn    0.44896   0.50001   0.75000   0.00000  Uiso   1.00
Zn1270 Zn    0.55104   0.49999   0.75000   0.00000  Uiso   1.00
C1271  C     0.39092   0.58353   0.55001   0.00000  Uiso   1.00
N1272  N     0.36658   0.61050   0.56979   0.00000  Uiso   1.00
C1273  C     0.61230   0.58586   0.95379   0.00000  Uiso   1.00
N1274  N     0.63673   0.61310   0.93529   0.00000  Uiso   1.00
C1275  C     0.48603   0.46347   0.60110   0.00000  Uiso   1.00
N1276  N     0.45904   0.43627   0.61252   0.00000  Uiso   1.00
C1277  C     0.52188   0.46809   0.89377   0.00000  Uiso   1.00
N1278  N     0.55278   0.44455   0.87904   0.00000  Uiso   1.00
O1279  O     0.61837   0.54520   0.61660   0.00000  Uiso   1.00
C1280  C     0.65273   0.51332   0.60673   0.00000  Uiso   1.00
H1281  H     0.33969   0.51001   0.56890   0.00000  Uiso   1.00
H1282  H     0.63591   0.48296   0.61954   0.00000  Uiso   1.00
H1283  H     0.34508   0.52084   0.62420   0.00000  Uiso   1.00
O1284  O     0.37928   0.53920   0.88902   0.00000  Uiso   1.00
C1285  C     0.34608   0.50598   0.89918   0.00000  Uiso   1.00
H1286  H     0.36358   0.47642   0.88330   0.00000  Uiso   1.00
H1287  H     0.65154   0.51254   0.88444   0.00000  Uiso   1.00
H1288  H     0.66109   0.50214   0.93720   0.00000  Uiso   1.00
O1289  O     0.37351   0.58336   0.96784   0.00000  Uiso   1.00
C1290  C     0.39886   0.62018   0.94987   0.00000  Uiso   1.00
H1291  H     0.40989   0.62074   0.91149   0.00000  Uiso   1.00
H1292  H     0.43076   0.62458   0.96008   0.00000  Uiso   1.00
H1293  H     0.37482   0.64690   0.96432   0.00000  Uiso   1.00
O1294  O     0.62673   0.58770   0.53750   0.00000  Uiso   1.00
C1295  C     0.60111   0.62393   0.55760   0.00000  Uiso   1.00
H1296  H     0.58943   0.62361   0.59604   0.00000  Uiso   1.00
H1297  H     0.56963   0.62832   0.54697   0.00000  Uiso   1.00
H1298  H     0.62520   0.65103   0.54526   0.00000  Uiso   1.00
C1299  C     0.59244   0.62703   0.72874   0.00000  Uiso   1.00
N1300  N     0.62996   0.61235   0.71915   0.00000  Uiso   1.00
C1301  C     0.41503   0.37070   0.75018   0.00000  Uiso   1.00
N1302  N     0.37758   0.38441   0.75658   0.00000  Uiso   1.00
C1303  C     0.57449   0.37283   0.76981   0.00000  Uiso   1.00
N1304  N     0.60186   0.38774   0.78407   0.00000  Uiso   1.00
C1305  C     0.43449   0.62381   0.71276   0.00000  Uiso   1.00
N1306  N     0.40866   0.60750   0.69751   0.00000  Uiso   1.00
O1307  O     0.63557   0.44508   0.69596   0.00000  Uiso   1.00
C1308  C     0.33825   0.42142   0.66304   0.00000  Uiso   1.00
H1309  H     0.35425   0.39910   0.68014   0.00000  Uiso   1.00
H1310  H     0.36571   0.44168   0.63861   0.00000  Uiso   1.00
H1311  H     0.65482   0.40293   0.64230   0.00000  Uiso   1.00
O1312  O     0.36335   0.55442   0.80499   0.00000  Uiso   1.00
C1313  C     0.33663   0.59126   0.81772   0.00000  Uiso   1.00
H1314  H     0.63507   0.58550   0.84602   0.00000  Uiso   1.00
H1315  H     0.66498   0.60596   0.78761   0.00000  Uiso   1.00
H1316  H     0.35693   0.61363   0.83136   0.00000  Uiso   1.00
C1317  C     0.83576   0.57942   0.74437   0.00000  Uiso   1.00
C1318  C     0.83231   0.41984   0.75202   0.00000  Uiso   1.00
C1319  C     0.78281   0.53243   0.54967   0.00000  Uiso   1.00
C1320  C     0.88719   0.53448   0.95139   0.00000  Uiso   1.00
C1321  C     0.75608   0.55047   0.52611   0.00000  Uiso   1.00
C1322  C     0.91361   0.55260   0.97612   0.00000  Uiso   1.00
C1323  C     0.87875   0.64564   0.74012   0.00000  Uiso   1.00
C1324  C     0.79490   0.35277   0.74287   0.00000  Uiso   1.00
C1325  C     0.87322   0.35379   0.75229   0.00000  Uiso   1.00
C1326  C     0.80061   0.64437   0.73157   0.00000  Uiso   1.00
C1327  C     0.83231   0.37487   0.75126   0.00000  Uiso   1.00
C1328  C     0.83958   0.62348   0.73618   0.00000  Uiso   1.00
C1329  C     0.98554   0.47278   0.72199   0.00000  Uiso   1.00
C1330  C     0.68130   0.52781   0.77717   0.00000  Uiso   1.00
C1331  C     0.70054   0.47324   0.72225   0.00000  Uiso   1.00
C1332  C     0.96618   0.52694   0.77752   0.00000  Uiso   1.00
C1333  C     0.80343   0.50022   0.83789   0.00000  Uiso   1.00
C1334  C     0.86339   0.50059   0.66222   0.00000  Uiso   1.00
C1335  C     0.78609   0.50718   0.88831   0.00000  Uiso   1.00
C1336  C     0.88172   0.50878   0.61242   0.00000  Uiso   1.00
C1337  C     0.73823   0.55085   0.95325   0.00000  Uiso   1.00
C1338  C     0.92915   0.55448   0.55042   0.00000  Uiso   1.00
C1339  C     0.74497   0.53156   0.91034   0.00000  Uiso   1.00
C1340  C     0.92133   0.53564   0.59315   0.00000  Uiso   1.00
C1341  C     0.81641   0.49772   0.91239   0.00000  Uiso   1.00
C1342  C     0.85390   0.49712   0.58637   0.00000  Uiso   1.00
C1343  C     0.80752   0.51527   0.95625   0.00000  Uiso   1.00
C1344  C     0.86271   0.51533   0.54358   0.00000  Uiso   1.00
C1345  C     0.76603   0.53889   0.97903   0.00000  Uiso   1.00
C1346  C     0.90316   0.54088   0.52286   0.00000  Uiso   1.00
C1347  C     0.84269   0.51594   0.97586   0.00000  Uiso   1.00
C1348  C     0.82767   0.51525   0.52395   0.00000  Uiso   1.00
H1349  H     0.77376   0.53938   0.58628   0.00000  Uiso   1.00
H1350  H     0.89620   0.54213   0.91521   0.00000  Uiso   1.00
H1351  H     0.72741   0.45217   0.70079   0.00000  Uiso   1.00
H1352  H     0.93918   0.54755   0.79984   0.00000  Uiso   1.00
N1353  N     0.71426   0.50001   0.75001   0.00000  Uiso   1.00
N1354  N     0.95241   0.49999   0.74999   0.00000  Uiso   1.00
O1355  O     0.79512   0.56108   0.75001   0.00000  Uiso   1.00
O1356  O     0.87154   0.43892   0.75000   0.00000  Uiso   1.00
O1357  O     0.87157   0.56107   0.75000   0.00000  Uiso   1.00
O1358  O     0.79510   0.43893   0.75000   0.00000  Uiso   1.00
O1359  O     0.77328   0.50001   0.81613   0.00000  Uiso   1.00
O1360  O     0.89339   0.49999   0.68388   0.00000  Uiso   1.00
O1361  O     0.84972   0.50000   0.81612   0.00000  Uiso   1.00
O1362  O     0.81695   0.50000   0.68388   0.00000  Uiso   1.00
Zn1363 Zn    0.78229   0.50001   0.75000   0.00000  Uiso   1.00
Zn1364 Zn    0.88438   0.49999   0.75000   0.00000  Uiso   1.00
C1365  C     0.72426   0.58353   0.55001   0.00000  Uiso   1.00
N1366  N     0.69991   0.61050   0.56979   0.00000  Uiso   1.00
C1367  C     0.94564   0.58586   0.95379   0.00000  Uiso   1.00
N1368  N     0.97007   0.61310   0.93529   0.00000  Uiso   1.00
C1369  C     0.81936   0.46347   0.60110   0.00000  Uiso   1.00
N1370  N     0.79237   0.43627   0.61252   0.00000  Uiso   1.00
C1371  C     0.85522   0.46809   0.89377   0.00000  Uiso   1.00
N1372  N     0.88612   0.44455   0.87904   0.00000  Uiso   1.00
O1373  O     0.95170   0.54520   0.61660   0.00000  Uiso   1.00
C1374  C     0.98606   0.51332   0.60673   0.00000  Uiso   1.00
H1375  H     0.67302   0.51001   0.56890   0.00000  Uiso   1.00
H1376  H     0.96924   0.48296   0.61954   0.00000  Uiso   1.00
H1377  H     0.67841   0.52084   0.62420   0.00000  Uiso   1.00
O1378  O     0.71261   0.53920   0.88902   0.00000  Uiso   1.00
C1379  C     0.67941   0.50598   0.89918   0.00000  Uiso   1.00
H1380  H     0.69691   0.47642   0.88330   0.00000  Uiso   1.00
H1381  H     0.98487   0.51254   0.88444   0.00000  Uiso   1.00
H1382  H     0.99442   0.50214   0.93720   0.00000  Uiso   1.00
O1383  O     0.70684   0.58336   0.96784   0.00000  Uiso   1.00
C1384  C     0.73220   0.62018   0.94987   0.00000  Uiso   1.00
H1385  H     0.74323   0.62074   0.91149   0.00000  Uiso   1.00
H1386  H     0.76410   0.62458   0.96008   0.00000  Uiso   1.00
H1387  H     0.70815   0.64690   0.96432   0.00000  Uiso   1.00
O1388  O     0.96006   0.58770   0.53750   0.00000  Uiso   1.00
C1389  C     0.93444   0.62393   0.55760   0.00000  Uiso   1.00
H1390  H     0.92276   0.62361   0.59604   0.00000  Uiso   1.00
H1391  H     0.90296   0.62832   0.54697   0.00000  Uiso   1.00
H1392  H     0.95854   0.65103   0.54526   0.00000  Uiso   1.00
C1393  C     0.92577   0.62703   0.72874   0.00000  Uiso   1.00
N1394  N     0.96330   0.61235   0.71915   0.00000  Uiso   1.00
C1395  C     0.74836   0.37070   0.75018   0.00000  Uiso   1.00
N1396  N     0.71091   0.38441   0.75658   0.00000  Uiso   1.00
C1397  C     0.90782   0.37283   0.76981   0.00000  Uiso   1.00
N1398  N     0.93520   0.38774   0.78407   0.00000  Uiso   1.00
C1399  C     0.76783   0.62381   0.71276   0.00000  Uiso   1.00
N1400  N     0.74200   0.60750   0.69751   0.00000  Uiso   1.00
O1401  O     0.96891   0.44508   0.69596   0.00000  Uiso   1.00
C1402  C     0.67158   0.42142   0.66304   0.00000  Uiso   1.00
H1403  H     0.68758   0.39910   0.68014   0.00000  Uiso   1.00
H1404  H     0.69904   0.44168   0.63861   0.00000  Uiso   1.00
H1405  H     0.98815   0.40293   0.64230   0.00000  Uiso   1.00
O1406  O     0.69668   0.55442   0.80499   0.00000  Uiso   1.00
C1407  C     0.66997   0.59126   0.81772   0.00000  Uiso   1.00
H1408  H     0.96840   0.58550   0.84602   0.00000  Uiso   1.00
H1409  H     0.99831   0.60596   0.78761   0.00000  Uiso   1.00
H1410  H     0.69026   0.61363   0.83136   0.00000  Uiso   1.00
C1411  C     0.16909   0.91275   0.74437   0.00000  Uiso   1.00
C1412  C     0.16564   0.75318   0.75202   0.00000  Uiso   1.00
C1413  C     0.11614   0.86576   0.54967   0.00000  Uiso   1.00
C1414  C     0.22052   0.86782   0.95139   0.00000  Uiso   1.00
C1415  C     0.08941   0.88381   0.52611   0.00000  Uiso   1.00
C1416  C     0.24694   0.88593   0.97612   0.00000  Uiso   1.00
C1417  C     0.21208   0.97897   0.74012   0.00000  Uiso   1.00
C1418  C     0.12823   0.68610   0.74287   0.00000  Uiso   1.00
C1419  C     0.20655   0.68713   0.75229   0.00000  Uiso   1.00
C1420  C     0.13395   0.97770   0.73157   0.00000  Uiso   1.00
C1421  C     0.16564   0.70820   0.75126   0.00000  Uiso   1.00
C1422  C     0.17291   0.95681   0.73618   0.00000  Uiso   1.00
C1423  C     0.31887   0.80612   0.72199   0.00000  Uiso   1.00
C1424  C     0.01463   0.86114   0.77717   0.00000  Uiso   1.00
C1425  C     0.03387   0.80657   0.72225   0.00000  Uiso   1.00
C1426  C     0.29952   0.86028   0.77752   0.00000  Uiso   1.00
C1427  C     0.13676   0.83356   0.83789   0.00000  Uiso   1.00
C1428  C     0.19672   0.83393   0.66222   0.00000  Uiso   1.00
C1429  C     0.11943   0.84052   0.88831   0.00000  Uiso   1.00
C1430  C     0.21505   0.84212   0.61242   0.00000  Uiso   1.00
C1431  C     0.07156   0.88418   0.95325   0.00000  Uiso   1.00
C1432  C     0.26248   0.88781   0.55042   0.00000  Uiso   1.00
C1433  C     0.07830   0.86489   0.91034   0.00000  Uiso   1.00
C1434  C     0.25467   0.86897   0.59315   0.00000  Uiso   1.00
C1435  C     0.14975   0.83105   0.91239   0.00000  Uiso   1.00
C1436  C     0.18724   0.83045   0.58637   0.00000  Uiso   1.00
C1437  C     0.14086   0.84860   0.95625   0.00000  Uiso   1.00
C1438  C     0.19604   0.84867   0.54358   0.00000  Uiso   1.00
C1439  C     0.09936   0.87222   0.97903   0.00000  Uiso   1.00
C1440  C     0.23649   0.87421   0.52286   0.00000  Uiso   1.00
C1441  C     0.17603   0.84927   0.97586   0.00000  Uiso   1.00
C1442  C     0.16100   0.84858   0.52395   0.00000  Uiso   1.00
H1443  H     0.10709   0.87272   0.58628   0.00000  Uiso   1.00
H1444  H     0.22953   0.87546   0.91521   0.00000  Uiso   1.00
H1445  H     0.06074   0.78550   0.70079   0.00000  Uiso   1.00
H1446  H     0.27251   0.88088   0.79984   0.00000  Uiso   1.00
N1447  N     0.04759   0.83334   0.75001   0.00000  Uiso   1.00
N1448  N     0.28574   0.83332   0.74999   0.00000  Uiso   1.00
O1449  O     0.12846   0.89442   0.75001   0.00000  Uiso   1.00
O1450  O     0.20488   0.77225   0.75000   0.00000  Uiso   1.00
O1451  O     0.20490   0.89441   0.75000   0.00000  Uiso   1.00
O1452  O     0.12843   0.77226   0.75000   0.00000  Uiso   1.00
O1453  O     0.10661   0.83334   0.81613   0.00000  Uiso   1.00
O1454  O     0.22672   0.83333   0.68388   0.00000  Uiso   1.00
O1455  O     0.18305   0.83333   0.81612   0.00000  Uiso   1.00
O1456  O     0.15028   0.83334   0.68388   0.00000  Uiso   1.00
Zn1457 Zn    0.11562   0.83334   0.75000   0.00000  Uiso   1.00
Zn1458 Zn    0.21771   0.83333   0.75000   0.00000  Uiso   1.00
C1459  C     0.05759   0.91686   0.55001   0.00000  Uiso   1.00
N1460  N     0.03324   0.94384   0.56979   0.00000  Uiso   1.00
C1461  C     0.27897   0.91919   0.95379   0.00000  Uiso   1.00
N1462  N     0.30340   0.94643   0.93529   0.00000  Uiso   1.00
C1463  C     0.15269   0.79681   0.60110   0.00000  Uiso   1.00
N1464  N     0.12571   0.76960   0.61252   0.00000  Uiso   1.00
C1465  C     0.18855   0.80142   0.89377   0.00000  Uiso   1.00
N1466  N     0.21945   0.77789   0.87904   0.00000  Uiso   1.00
O1467  O     0.28503   0.87854   0.61660   0.00000  Uiso   1.00
C1468  C     0.31940   0.84666   0.60673   0.00000  Uiso   1.00
H1469  H     0.00635   0.84334   0.56890   0.00000  Uiso   1.00
H1470  H     0.30258   0.81630   0.61954   0.00000  Uiso   1.00
H1471  H     0.01175   0.85417   0.62420   0.00000  Uiso   1.00
O1472  O     0.04594   0.87253   0.88902   0.00000  Uiso   1.00
C1473  C     0.01275   0.83932   0.89918   0.00000  Uiso   1.00
H1474  H     0.03024   0.80975   0.88330   0.00000  Uiso   1.00
H1475  H     0.31821   0.84587   0.88444   0.00000  Uiso   1.00
H1476  H     0.32775   0.83548   0.93720   0.00000  Uiso   1.00
O1477  O     0.04018   0.91669   0.96784   0.00000  Uiso   1.00
C1478  C     0.06553   0.95352   0.94987   0.00000  Uiso   1.00
H1479  H     0.07656   0.95407   0.91149   0.00000  Uiso   1.00
H1480  H     0.09743   0.95791   0.96008   0.00000  Uiso   1.00
H1481  H     0.04149   0.98023   0.96432   0.00000  Uiso   1.00
O1482  O     0.29340   0.92103   0.53750   0.00000  Uiso   1.00
C1483  C     0.26777   0.95726   0.55760   0.00000  Uiso   1.00
H1484  H     0.25610   0.95694   0.59604   0.00000  Uiso   1.00
H1485  H     0.23630   0.96165   0.54697   0.00000  Uiso   1.00
H1486  H     0.29187   0.98436   0.54526   0.00000  Uiso   1.00
C1487  C     0.25910   0.96036   0.72874   0.00000  Uiso   1.00
N1488  N     0.29663   0.94568   0.71915   0.00000  Uiso   1.00
C1489  C     0.08170   0.70403   0.75018   0.00000  Uiso   1.00
N1490  N     0.04425   0.71774   0.75658   0.00000  Uiso   1.00
C1491  C     0.24115   0.70616   0.76981   0.00000  Uiso   1.00
N1492  N     0.26853   0.72107   0.78407   0.00000  Uiso   1.00
C1493  C     0.10116   0.95714   0.71276   0.00000  Uiso   1.00
N1494  N     0.07533   0.94083   0.69751   0.00000  Uiso   1.00
O1495  O     0.30224   0.77841   0.69596   0.00000  Uiso   1.00
C1496  C     0.00491   0.75475   0.66304   0.00000  Uiso   1.00
H1497  H     0.02092   0.73244   0.68014   0.00000  Uiso   1.00
H1498  H     0.03238   0.77501   0.63861   0.00000  Uiso   1.00
H1499  H     0.32149   0.73626   0.64230   0.00000  Uiso   1.00
O1500  O     0.03002   0.88775   0.80499   0.00000  Uiso   1.00
C1501  C     0.00330   0.92460   0.81772   0.00000  Uiso   1.00
H1502  H     0.30174   0.91883   0.84602   0.00000  Uiso   1.00
H1503  H     0.33164   0.93929   0.78761   0.00000  Uiso   1.00
H1504  H     0.02360   0.94696   0.83136   0.00000  Uiso   1.00
C1505  C     0.50242   0.91275   0.74437   0.00000  Uiso   1.00
C1506  C     0.49898   0.75318   0.75202   0.00000  Uiso   1.00
C1507  C     0.44947   0.86576   0.54967   0.00000  Uiso   1.00
C1508  C     0.55385   0.86782   0.95139   0.00000  Uiso   1.00
C1509  C     0.42274   0.88381   0.52611   0.00000  Uiso   1.00
C1510  C     0.58028   0.88593   0.97612   0.00000  Uiso   1.00
C1511  C     0.54541   0.97897   0.74012   0.00000  Uiso   1.00
C1512  C     0.46156   0.68610   0.74287   0.00000  Uiso   1.00
C1513  C     0.53988   0.68713   0.75229   0.00000  Uiso   1.00
C1514  C     0.46728   0.97770   0.73157   0.00000  Uiso   1.00
C1515  C     0.49898   0.70820   0.75126   0.00000  Uiso   1.00
C1516  C     0.50624   0.95681   0.73618   0.00000  Uiso   1.00
C1517  C     0.65220   0.80612   0.72199   0.00000  Uiso   1.00
C1518  C     0.34797   0.86114   0.77717   0.00000  Uiso   1.00
C1519  C     0.36720   0.80657   0.72225   0.00000  Uiso   1.00
C1520  C     0.63285   0.86028   0.77752   0.00000  Uiso   1.00
C1521  C     0.47009   0.83356   0.83789   0.00000  Uiso   1.00
C1522  C     0.53006   0.83393   0.66222   0.00000  Uiso   1.00
C1523  C     0.45276   0.84052   0.88831   0.00000  Uiso   1.00
C1524  C     0.54838   0.84212   0.61242   0.00000  Uiso   1.00
C1525  C     0.40489   0.88418   0.95325   0.00000  Uiso   1.00
C1526  C     0.59582   0.88781   0.55042   0.00000  Uiso   1.00
C1527  C     0.41164   0.86489   0.91034   0.00000  Uiso   1.00
C1528  C     0.58800   0.86897   0.59315   0.00000  Uiso   1.00
C1529  C     0.48308   0.83105   0.91239   0.00000  Uiso   1.00
C1530  C     0.52057   0.83045   0.58637   0.00000  Uiso   1.00
C1531  C     0.47419   0.84860   0.95625   0.00000  Uiso   1.00
C1532  C     0.52937   0.84867   0.54358   0.00000  Uiso   1.00
C1533  C     0.43270   0.87222   0.97903   0.00000  Uiso   1.00
C1534  C     0.56982   0.87421   0.52286   0.00000  Uiso   1.00
C1535  C     0.50936   0.84927   0.97586   0.00000  Uiso   1.00
C1536  C     0.49433   0.84858   0.52395   0.00000  Uiso   1.00
H1537  H     0.44043   0.87272   0.58628   0.00000  Uiso   1.00
H1538  H     0.56286   0.87546   0.91521   0.00000  Uiso   1.00
H1539  H     0.39408   0.78550   0.70079   0.00000  Uiso   1.00
H1540  H     0.60584   0.88088   0.79984   0.00000  Uiso   1.00
N1541  N     0.38093   0.83334   0.75001   0.00000  Uiso   1.00
N1542  N     0.61907   0.83332   0.74999   0.00000  Uiso   1.00
O1543  O     0.46179   0.89442   0.75001   0.00000  Uiso   1.00
O1544  O     0.53821   0.77225   0.75000   0.00000  Uiso   1.00
O1545  O     0.53823   0.89441   0.75000   0.00000  Uiso   1.00
O1546  O     0.46177   0.77226   0.75000   0.00000  Uiso   1.00
O1547  O     0.43994   0.83334   0.81613   0.00000  Uiso   1.00
O1548  O     0.56006   0.83333   0.68388   0.00000  Uiso   1.00
O1549  O     0.51639   0.83333   0.81612   0.00000  Uiso   1.00
O1550  O     0.48361   0.83334   0.68388   0.00000  Uiso   1.00
Zn1551 Zn    0.44896   0.83334   0.75000   0.00000  Uiso   1.00
Zn1552 Zn    0.55104   0.83333   0.75000   0.00000  Uiso   1.00
C1553  C     0.39092   0.91686   0.55001   0.00000  Uiso   1.00
N1554  N     0.36658   0.94384   0.56979   0.00000  Uiso   1.00
C1555  C     0.61230   0.91919   0.95379   0.00000  Uiso   1.00
N1556  N     0.63673   0.94643   0.93529   0.00000  Uiso   1.00
C1557  C     0.48603   0.79681   0.60110   0.00000  Uiso   1.00
N1558  N     0.45904   0.76960   0.61252   0.00000  Uiso   1.00
C1559  C     0.52188   0.80142   0.89377   0.00000  Uiso   1.00
N1560  N     0.55278   0.77789   0.87904   0.00000  Uiso   1.00
O1561  O     0.61837   0.87854   0.61660   0.00000  Uiso   1.00
C1562  C     0.65273   0.84666   0.60673   0.00000  Uiso   1.00
H1563  H     0.33969   0.84334   0.56890   0.00000  Uiso   1.00
H1564  H     0.63591   0.81630   0.61954   0.00000  Uiso   1.00
H1565  H     0.34508   0.85417   0.62420   0.00000  Uiso   1.00
O1566  O     0.37928   0.87253   0.88902   0.00000  Uiso   1.00
C1567  C     0.34608   0.83932   0.89918   0.00000  Uiso   1.00
H1568  H     0.36358   0.80975   0.88330   0.00000  Uiso   1.00
H1569  H     0.65154   0.84587   0.88444   0.00000  Uiso   1.00
H1570  H     0.66109   0.83548   0.93720   0.00000  Uiso   1.00
O1571  O     0.37351   0.91669   0.96784   0.00000  Uiso   1.00
C1572  C     0.39886   0.95352   0.94987   0.00000  Uiso   1.00
H1573  H     0.40989   0.95407   0.91149   0.00000  Uiso   1.00
H1574  H     0.43076   0.95791   0.96008   0.00000  Uiso   1.00
H1575  H     0.37482   0.98023   0.96432   0.00000  Uiso   1.00
O1576  O     0.62673   0.92103   0.53750   0.00000  Uiso   1.00
C1577  C     0.60111   0.95726   0.55760   0.00000  Uiso   1.00
H1578  H     0.58943   0.95694   0.59604   0.00000  Uiso   1.00
H1579  H     0.56963   0.96165   0.54697   0.00000  Uiso   1.00
H1580  H     0.62520   0.98436   0.54526   0.00000  Uiso   1.00
C1581  C     0.59244   0.96036   0.72874   0.00000  Uiso   1.00
N1582  N     0.62996   0.94568   0.71915   0.00000  Uiso   1.00
C1583  C     0.41503   0.70403   0.75018   0.00000  Uiso   1.00
N1584  N     0.37758   0.71774   0.75658   0.00000  Uiso   1.00
C1585  C     0.57449   0.70616   0.76981   0.00000  Uiso   1.00
N1586  N     0.60186   0.72107   0.78407   0.00000  Uiso   1.00
C1587  C     0.43449   0.95714   0.71276   0.00000  Uiso   1.00
N1588  N     0.40866   0.94083   0.69751   0.00000  Uiso   1.00
O1589  O     0.63557   0.77841   0.69596   0.00000  Uiso   1.00
C1590  C     0.33825   0.75475   0.66304   0.00000  Uiso   1.00
H1591  H     0.35425   0.73244   0.68014   0.00000  Uiso   1.00
H1592  H     0.36571   0.77501   0.63861   0.00000  Uiso   1.00
H1593  H     0.65482   0.73626   0.64230   0.00000  Uiso   1.00
O1594  O     0.36335   0.88775   0.80499   0.00000  Uiso   1.00
C1595  C     0.33663   0.92460   0.81772   0.00000  Uiso   1.00
H1596  H     0.63507   0.91883   0.84602   0.00000  Uiso   1.00
H1597  H     0.66498   0.93929   0.78761   0.00000  Uiso   1.00
H1598  H     0.35693   0.94696   0.83136   0.00000  Uiso   1.00
C1599  C     0.83576   0.91275   0.74437   0.00000  Uiso   1.00
C1600  C     0.83231   0.75318   0.75202   0.00000  Uiso   1.00
C1601  C     0.78281   0.86576   0.54967   0.00000  Uiso   1.00
C1602  C     0.88719   0.86782   0.95139   0.00000  Uiso   1.00
C1603  C     0.75608   0.88381   0.52611   0.00000  Uiso   1.00
C1604  C     0.91361   0.88593   0.97612   0.00000  Uiso   1.00
C1605  C     0.87875   0.97897   0.74012   0.00000  Uiso   1.00
C1606  C     0.79490   0.68610   0.74287   0.00000  Uiso   1.00
C1607  C     0.87322   0.68713   0.75229   0.00000  Uiso   1.00
C1608  C     0.80061   0.97770   0.73157   0.00000  Uiso   1.00
C1609  C     0.83231   0.70820   0.75126   0.00000  Uiso   1.00
C1610  C     0.83958   0.95681   0.73618   0.00000  Uiso   1.00
C1611  C     0.98554   0.80612   0.72199   0.00000  Uiso   1.00
C1612  C     0.68130   0.86114   0.77717   0.00000  Uiso   1.00
C1613  C     0.70054   0.80657   0.72225   0.00000  Uiso   1.00
C1614  C     0.96618   0.86028   0.77752   0.00000  Uiso   1.00
C1615  C     0.80343   0.83356   0.83789   0.00000  Uiso   1.00
C1616  C     0.86339   0.83393   0.66222   0.00000  Uiso   1.00
C1617  C     0.78609   0.84052   0.88831   0.00000  Uiso   1.00
C1618  C     0.88172   0.84212   0.61242   0.00000  Uiso   1.00
C1619  C     0.73823   0.88418   0.95325   0.00000  Uiso   1.00
C1620  C     0.92915   0.88781   0.55042   0.00000  Uiso   1.00
C1621  C     0.74497   0.86489   0.91034   0.00000  Uiso   1.00
C1622  C     0.92133   0.86897   0.59315   0.00000  Uiso   1.00
C1623  C     0.81641   0.83105   0.91239   0.00000  Uiso   1.00
C1624  C     0.85390   0.83045   0.58637   0.00000  Uiso   1.00
C1625  C     0.80752   0.84860   0.95625   0.00000  Uiso   1.00
C1626  C     0.86271   0.84867   0.54358   0.00000  Uiso   1.00
C1627  C     0.76603   0.87222   0.97903   0.00000  Uiso   1.00
C1628  C     0.90316   0.87421   0.52286   0.00000  Uiso   1.00
C1629  C     0.84269   0.84927   0.97586   0.00000  Uiso   1.00
C1630  C     0.82767   0.84858   0.52395   0.00000  Uiso   1.00
H1631  H     0.77376   0.87272   0.58628   0.00000  Uiso   1.00
H1632  H     0.89620   0.87546   0.91521   0.00000  Uiso   1.00
H1633  H     0.72741   0.78550   0.70079   0.00000  Uiso   1.00
H1634  H     0.93918   0.88088   0.79984   0.00000  Uiso   1.00
N1635  N     0.71426   0.83334   0.75001   0.00000  Uiso   1.00
N1636  N     0.95241   0.83332   0.74999   0.00000  Uiso   1.00
O1637  O     0.79512   0.89442   0.75001   0.00000  Uiso   1.00
O1638  O     0.87154   0.77225   0.75000   0.00000  Uiso   1.00
O1639  O     0.87157   0.89441   0.75000   0.00000  Uiso   1.00
O1640  O     0.79510   0.77226   0.75000   0.00000  Uiso   1.00
O1641  O     0.77328   0.83334   0.81613   0.00000  Uiso   1.00
O1642  O     0.89339   0.83333   0.68388   0.00000  Uiso   1.00
O1643  O     0.84972   0.83333   0.81612   0.00000  Uiso   1.00
O1644  O     0.81695   0.83334   0.68388   0.00000  Uiso   1.00
Zn1645 Zn    0.78229   0.83334   0.75000   0.00000  Uiso   1.00
Zn1646 Zn    0.88438   0.83333   0.75000   0.00000  Uiso   1.00
C1647  C     0.72426   0.91686   0.55001   0.00000  Uiso   1.00
N1648  N     0.69991   0.94384   0.56979   0.00000  Uiso   1.00
C1649  C     0.94564   0.91919   0.95379   0.00000  Uiso   1.00
N1650  N     0.97007   0.94643   0.93529   0.00000  Uiso   1.00
C1651  C     0.81936   0.79681   0.60110   0.00000  Uiso   1.00
N1652  N     0.79237   0.76960   0.61252   0.00000  Uiso   1.00
C1653  C     0.85522   0.80142   0.89377   0.00000  Uiso   1.00
N1654  N     0.88612   0.77789   0.87904   0.00000  Uiso   1.00
O1655  O     0.95170   0.87854   0.61660   0.00000  Uiso   1.00
C1656  C     0.98606   0.84666   0.60673   0.00000  Uiso   1.00
H1657  H     0.67302   0.84334   0.56890   0.00000  Uiso   1.00
H1658  H     0.96924   0.81630   0.61954   0.00000  Uiso   1.00
H1659  H     0.67841   0.85417   0.62420   0.00000  Uiso   1.00
O1660  O     0.71261   0.87253   0.88902   0.00000  Uiso   1.00
C1661  C     0.67941   0.83932   0.89918   0.00000  Uiso   1.00
H1662  H     0.69691   0.80975   0.88330   0.00000  Uiso   1.00
H1663  H     0.98487   0.84587   0.88444   0.00000  Uiso   1.00
H1664  H     0.99442   0.83548   0.93720   0.00000  Uiso   1.00
O1665  O     0.70684   0.91669   0.96784   0.00000  Uiso   1.00
C1666  C     0.73220   0.95352   0.94987   0.00000  Uiso   1.00
H1667  H     0.74323   0.95407   0.91149   0.00000  Uiso   1.00
H1668  H     0.76410   0.95791   0.96008   0.00000  Uiso   1.00
H1669  H     0.70815   0.98023   0.96432   0.00000  Uiso   1.00
O1670  O     0.96006   0.92103   0.53750   0.00000  Uiso   1.00
C1671  C     0.93444   0.95726   0.55760   0.00000  Uiso   1.00
H1672  H     0.92276   0.95694   0.59604   0.00000  Uiso   1.00
H1673  H     0.90296   0.96165   0.54697   0.00000  Uiso   1.00
H1674  H     0.95854   0.98436   0.54526   0.00000  Uiso   1.00
C1675  C     0.92577   0.96036   0.72874   0.00000  Uiso   1.00
N1676  N     0.96330   0.94568   0.71915   0.00000  Uiso   1.00
C1677  C     0.74836   0.70403   0.75018   0.00000  Uiso   1.00
N1678  N     0.71091   0.71774   0.75658   0.00000  Uiso   1.00
C1679  C     0.90782   0.70616   0.76981   0.00000  Uiso   1.00
N1680  N     0.93520   0.72107   0.78407   0.00000  Uiso   1.00
C1681  C     0.76783   0.95714   0.71276   0.00000  Uiso   1.00
N1682  N     0.74200   0.94083   0.69751   0.00000  Uiso   1.00
O1683  O     0.96891   0.77841   0.69596   0.00000  Uiso   1.00
C1684  C     0.67158   0.75475   0.66304   0.00000  Uiso   1.00
H1685  H     0.68758   0.73244   0.68014   0.00000  Uiso   1.00
H1686  H     0.69904   0.77501   0.63861   0.00000  Uiso   1.00
H1687  H     0.98815   0.73626   0.64230   0.00000  Uiso   1.00
O1688  O     0.69668   0.88775   0.80499   0.00000  Uiso   1.00
C1689  C     0.66997   0.92460   0.81772   0.00000  Uiso   1.00
H1690  H     0.96840   0.91883   0.84602   0.00000  Uiso   1.00
H1691  H     0.99831   0.93929   0.78761   0.00000  Uiso   1.00
H1692  H     0.69026   0.94696   0.83136   0.00000  Uiso   1.00
loop_
_geom_bond_atom_site_label_1
_geom_bond_atom_site_label_2
_geom_bond_distance
_geom_bond_site_symmetry_2
_ccdc_geom_bond_type
C1     C12     1.446   .     S
C1     O41     1.296   .     A
C1     O39     1.300   .     A
C2     C11     1.453   .     S
C2     O42     1.299   .     A
C2     O40     1.300   .     A
C3     H33     1.086   .     S
C3     C5      1.398   .     A
C3     C32     1.404   .     A
C4     H34     1.086   .     S
C4     C6      1.400   .     A
C4     C31     1.405   .     A
C5     C49     1.442   .     S
C5     C875    1.422   1_554 S
C6     C51     1.441   .     S
C6     C876    1.423   .     S
C7     C77     1.455   .     S
C7     C12     1.406   .     A
C7     C291    1.381   .     S
C8     C79     1.452   .     S
C8     C11     1.418   .     A
C8     C574    1.383   1_545 S
C9     C11     1.417   .     A
C9     C81     1.455   .     S
C9     C571    1.381   1_545 S
C10    C83     1.456   .     S
C10    C12     1.405   .     A
C10    C290    1.383   .     S
C13    N38     1.371   .     A
C13    O85     1.396   .     S
C13    C109    1.447   .     S
C14    O90     1.393   .     S
C14    N37     1.371   .     A
C14    C204    1.444   1_455 S
C15    H35     1.078   .     S
C15    N37     1.368   .     A
C15    C201    1.447   1_455 S
C16    N38     1.368   .     A
C16    H36     1.080   .     S
C16    C108    1.444   .     S
C17    O45     1.303   .     A
C17    O43     1.305   .     A
C17    C19     1.470   .     S
C18    O46     1.306   .     A
C18    O44     1.299   .     A
C18    C20     1.466   .     S
C19    C23     1.413   .     A
C19    C25     1.404   .     A
C20    C24     1.413   .     A
C20    C26     1.395   .     A
C21    O67     1.374   .     S
C21    C23     1.405   .     A
C21    C29     1.405   .     A
C22    C24     1.406   .     A
C22    O72     1.375   .     S
C22    C30     1.407   .     A
C23    O62     1.379   .     S
C24    O57     1.380   .     S
C25    C55     1.455   .     S
C25    C27     1.397   .     A
C26    C53     1.452   .     S
C26    C28     1.394   .     A
C27    C29     1.411   .     A
C27    C31     1.390   .     A
C28    C32     1.387   .     A
C28    C30     1.411   .     A
C29    C851    1.422   .     S
C30    C852    1.423   1_554 S
C31    C878    1.392   .     S
C32    C877    1.392   1_554 S
N37    Zn47    2.033   .     S
N38    Zn48    2.033   .     S
O39    Zn47    2.005   .     S
O40    Zn48    2.005   .     S
O41    Zn48    2.014   .     S
O42    Zn47    2.014   .     S
O43    Zn47    1.966   .     S
O44    Zn48    1.966   .     S
O45    Zn48    1.933   .     S
O46    Zn47    1.933   .     S
C49    N50     1.157   .     T
C51    N52     1.156   .     T
C53    N54     1.156   .     T
C55    N56     1.157   .     T
O57    C58     1.413   .     S
C58    H60     1.110   .     S
C58    H153    1.112   .     S
C58    H155    1.109   .     S
H59    C246    1.112   1_455 S
H61    C246    1.109   1_455 S
O62    C63     1.413   .     S
C63    H64     1.112   .     S
C63    H253    1.108   1_455 S
C63    H254    1.114   1_455 S
H65    C157    1.108   .     S
H66    C157    1.114   .     S
O67    C68     1.414   .     S
C68    H71     1.109   .     S
C68    H69     1.113   .     S
C68    H70     1.114   .     S
O72    C73     1.412   .     S
C73    H74     1.113   .     S
C73    H75     1.114   .     S
C73    H76     1.109   .     S
C77    N78     1.157   .     T
C79    N80     1.156   .     T
C81    N82     1.157   .     T
C83    N84     1.157   .     T
O85    C180    1.408   .     S
C86    H88     1.110   .     S
C86    H87     1.110   .     S
C86    O273    1.408   1_455 S
C86    H277    1.109   1_455 S
H89    C180    1.109   .     S
O90    C91     1.410   .     S
C91    H94     1.109   .     S
C91    H280    1.111   1_455 S
C91    H281    1.111   1_455 S
H92    C185    1.111   .     S
H93    C185    1.111   .     S
C95    C106    1.446   .     S
C95    O135    1.296   .     A
C95    O133    1.300   .     A
C96    C105    1.453   .     S
C96    O136    1.299   .     A
C96    O134    1.300   .     A
C97    H127    1.086   .     S
C97    C99     1.398   .     A
C97    C126    1.404   .     A
C98    H128    1.086   .     S
C98    C100    1.400   .     A
C98    C125    1.405   .     A
C99    C143    1.442   .     S
C99    C969    1.422   1_554 S
C100   C145    1.441   .     S
C100   C970    1.423   .     S
C101   C171    1.455   .     S
C101   C106    1.406   .     A
C101   C385    1.381   .     S
C102   C173    1.452   .     S
C102   C105    1.418   .     A
C102   C668    1.383   1_545 S
C103   C105    1.417   .     A
C103   C175    1.455   .     S
C103   C665    1.381   1_545 S
C104   C177    1.456   .     S
C104   C106    1.405   .     A
C104   C384    1.383   .     S
C107   N132    1.371   .     A
C107   O179    1.396   .     S
C107   C203    1.447   .     S
C108   O184    1.393   .     S
C108   N131    1.371   .     A
C109   H129    1.078   .     S
C109   N131    1.368   .     A
C110   N132    1.368   .     A
C110   H130    1.080   .     S
C110   C202    1.444   .     S
C111   O139    1.303   .     A
C111   O137    1.305   .     A
C111   C113    1.470   .     S
C112   O140    1.306   .     A
C112   O138    1.299   .     A
C112   C114    1.466   .     S
C113   C117    1.413   .     A
C113   C119    1.404   .     A
C114   C118    1.413   .     A
C114   C120    1.395   .     A
C115   O161    1.374   .     S
C115   C117    1.405   .     A
C115   C123    1.405   .     A
C116   C118    1.406   .     A
C116   O166    1.375   .     S
C116   C124    1.407   .     A
C117   O156    1.379   .     S
C118   O151    1.380   .     S
C119   C149    1.455   .     S
C119   C121    1.397   .     A
C120   C147    1.452   .     S
C120   C122    1.394   .     A
C121   C123    1.411   .     A
C121   C125    1.390   .     A
C122   C126    1.387   .     A
C122   C124    1.411   .     A
C123   C945    1.422   .     S
C124   C946    1.423   1_554 S
C125   C972    1.392   .     S
C126   C971    1.392   1_554 S
N131   Zn141   2.033   .     S
N132   Zn142   2.033   .     S
O133   Zn141   2.005   .     S
O134   Zn142   2.005   .     S
O135   Zn142   2.014   .     S
O136   Zn141   2.014   .     S
O137   Zn141   1.966   .     S
O138   Zn142   1.966   .     S
O139   Zn142   1.933   .     S
O140   Zn141   1.933   .     S
C143   N144    1.157   .     T
C145   N146    1.156   .     T
C147   N148    1.156   .     T
C149   N150    1.157   .     T
O151   C152    1.413   .     S
C152   H154    1.110   .     S
C152   H247    1.112   .     S
C152   H249    1.109   .     S
O156   C157    1.413   .     S
C157   H158    1.112   .     S
H159   C251    1.108   .     S
H160   C251    1.114   .     S
O161   C162    1.414   .     S
C162   H165    1.109   .     S
C162   H163    1.113   .     S
C162   H164    1.114   .     S
O166   C167    1.412   .     S
C167   H168    1.113   .     S
C167   H169    1.114   .     S
C167   H170    1.109   .     S
C171   N172    1.157   .     T
C173   N174    1.156   .     T
C175   N176    1.157   .     T
C177   N178    1.157   .     T
O179   C274    1.408   .     S
C180   H182    1.110   .     S
C180   H181    1.110   .     S
H183   C274    1.109   .     S
O184   C185    1.410   .     S
C185   H188    1.109   .     S
H186   C279    1.111   .     S
H187   C279    1.111   .     S
C189   C200    1.446   .     S
C189   O229    1.296   .     A
C189   O227    1.300   .     A
C190   C199    1.453   .     S
C190   O230    1.299   .     A
C190   O228    1.300   .     A
C191   H221    1.086   .     S
C191   C193    1.398   .     A
C191   C220    1.404   .     A
C192   H222    1.086   .     S
C192   C194    1.400   .     A
C192   C219    1.405   .     A
C193   C237    1.442   .     S
C193   C1063   1.422   1_554 S
C194   C239    1.441   .     S
C194   C1064   1.423   .     S
C195   C265    1.455   .     S
C195   C200    1.406   .     A
C195   C479    1.381   .     S
C196   C267    1.452   .     S
C196   C199    1.418   .     A
C196   C762    1.383   1_545 S
C197   C199    1.417   .     A
C197   C269    1.455   .     S
C197   C759    1.381   1_545 S
C198   C271    1.456   .     S
C198   C200    1.405   .     A
C198   C478    1.383   .     S
C201   N226    1.371   .     A
C201   O273    1.396   .     S
C201   C15     1.447   1_655 S
C202   O278    1.393   .     S
C202   N225    1.371   .     A
C203   H223    1.078   .     S
C203   N225    1.368   .     A
C204   N226    1.368   .     A
C204   H224    1.080   .     S
C204   C14     1.444   1_655 S
C205   O233    1.303   .     A
C205   O231    1.305   .     A
C205   C207    1.470   .     S
C206   O234    1.306   .     A
C206   O232    1.299   .     A
C206   C208    1.466   .     S
C207   C211    1.413   .     A
C207   C213    1.404   .     A
C208   C212    1.413   .     A
C208   C214    1.395   .     A
C209   O255    1.374   .     S
C209   C211    1.405   .     A
C209   C217    1.405   .     A
C210   C212    1.406   .     A
C210   O260    1.375   .     S
C210   C218    1.407   .     A
C211   O250    1.379   .     S
C212   O245    1.380   .     S
C213   C243    1.455   .     S
C213   C215    1.397   .     A
C214   C241    1.452   .     S
C214   C216    1.394   .     A
C215   C217    1.411   .     A
C215   C219    1.390   .     A
C216   C220    1.387   .     A
C216   C218    1.411   .     A
C217   C1039   1.422   .     S
C218   C1040   1.423   1_554 S
C219   C1066   1.392   .     S
C220   C1065   1.392   1_554 S
N225   Zn235   2.033   .     S
N226   Zn236   2.033   .     S
O227   Zn235   2.005   .     S
O228   Zn236   2.005   .     S
O229   Zn236   2.014   .     S
O230   Zn235   2.014   .     S
O231   Zn235   1.966   .     S
O232   Zn236   1.966   .     S
O233   Zn236   1.933   .     S
O234   Zn235   1.933   .     S
C237   N238    1.157   .     T
C239   N240    1.156   .     T
C241   N242    1.156   .     T
C243   N244    1.157   .     T
O245   C246    1.413   .     S
C246   H248    1.110   .     S
C246   H59     1.112   1_655 S
C246   H61     1.109   1_655 S
O250   C251    1.413   .     S
C251   H252    1.112   .     S
H253   C63     1.108   1_655 S
H254   C63     1.114   1_655 S
O255   C256    1.414   .     S
C256   H259    1.109   .     S
C256   H257    1.113   .     S
C256   H258    1.114   .     S
O260   C261    1.412   .     S
C261   H262    1.113   .     S
C261   H263    1.114   .     S
C261   H264    1.109   .     S
C265   N266    1.157   .     T
C267   N268    1.156   .     T
C269   N270    1.157   .     T
C271   N272    1.157   .     T
O273   C86     1.408   1_655 S
C274   H276    1.110   .     S
C274   H275    1.110   .     S
H277   C86     1.109   1_655 S
O278   C279    1.410   .     S
C279   H282    1.109   .     S
H280   C91     1.111   1_655 S
H281   C91     1.111   1_655 S
C283   C294    1.446   .     S
C283   O323    1.296   .     A
C283   O321    1.300   .     A
C284   C293    1.453   .     S
C284   O324    1.299   .     A
C284   O322    1.300   .     A
C285   H315    1.086   .     S
C285   C287    1.398   .     A
C285   C314    1.404   .     A
C286   H316    1.086   .     S
C286   C288    1.400   .     A
C286   C313    1.405   .     A
C287   C331    1.442   .     S
C287   C1157   1.422   1_554 S
C288   C333    1.441   .     S
C288   C1158   1.423   .     S
C289   C359    1.455   .     S
C289   C294    1.406   .     A
C289   C573    1.381   .     S
C290   C361    1.452   .     S
C290   C293    1.418   .     A
C291   C293    1.417   .     A
C291   C363    1.455   .     S
C292   C365    1.456   .     S
C292   C294    1.405   .     A
C292   C572    1.383   .     S
C295   N320    1.371   .     A
C295   O367    1.396   .     S
C295   C391    1.447   .     S
C296   O372    1.393   .     S
C296   N319    1.371   .     A
C296   C486    1.444   1_455 S
C297   H317    1.078   .     S
C297   N319    1.368   .     A
C297   C483    1.447   1_455 S
C298   N320    1.368   .     A
C298   H318    1.080   .     S
C298   C390    1.444   .     S
C299   O327    1.303   .     A
C299   O325    1.305   .     A
C299   C301    1.470   .     S
C300   O328    1.306   .     A
C300   O326    1.299   .     A
C300   C302    1.466   .     S
C301   C305    1.413   .     A
C301   C307    1.404   .     A
C302   C306    1.413   .     A
C302   C308    1.395   .     A
C303   O349    1.374   .     S
C303   C305    1.405   .     A
C303   C311    1.405   .     A
C304   C306    1.406   .     A
C304   O354    1.375   .     S
C304   C312    1.407   .     A
C305   O344    1.379   .     S
C306   O339    1.380   .     S
C307   C337    1.455   .     S
C307   C309    1.397   .     A
C308   C335    1.452   .     S
C308   C310    1.394   .     A
C309   C311    1.411   .     A
C309   C313    1.390   .     A
C310   C314    1.387   .     A
C310   C312    1.411   .     A
C311   C1133   1.422   .     S
C312   C1134   1.423   1_554 S
C313   C1160   1.392   .     S
C314   C1159   1.392   1_554 S
N319   Zn329   2.033   .     S
N320   Zn330   2.033   .     S
O321   Zn329   2.005   .     S
O322   Zn330   2.005   .     S
O323   Zn330   2.014   .     S
O324   Zn329   2.014   .     S
O325   Zn329   1.966   .     S
O326   Zn330   1.966   .     S
O327   Zn330   1.933   .     S
O328   Zn329   1.933   .     S
C331   N332    1.157   .     T
C333   N334    1.156   .     T
C335   N336    1.156   .     T
C337   N338    1.157   .     T
O339   C340    1.413   .     S
C340   H342    1.110   .     S
C340   H435    1.112   .     S
C340   H437    1.109   .     S
H341   C528    1.112   1_455 S
H343   C528    1.109   1_455 S
O344   C345    1.413   .     S
C345   H346    1.112   .     S
C345   H535    1.108   1_455 S
C345   H536    1.114   1_455 S
H347   C439    1.108   .     S
H348   C439    1.114   .     S
O349   C350    1.414   .     S
C350   H353    1.109   .     S
C350   H351    1.113   .     S
C350   H352    1.114   .     S
O354   C355    1.412   .     S
C355   H356    1.113   .     S
C355   H357    1.114   .     S
C355   H358    1.109   .     S
C359   N360    1.157   .     T
C361   N362    1.156   .     T
C363   N364    1.157   .     T
C365   N366    1.157   .     T
O367   C462    1.408   .     S
C368   H370    1.110   .     S
C368   H369    1.110   .     S
C368   O555    1.408   1_455 S
C368   H559    1.109   1_455 S
H371   C462    1.109   .     S
O372   C373    1.410   .     S
C373   H376    1.109   .     S
C373   H562    1.111   1_455 S
C373   H563    1.111   1_455 S
H374   C467    1.111   .     S
H375   C467    1.111   .     S
C377   C388    1.446   .     S
C377   O417    1.296   .     A
C377   O415    1.300   .     A
C378   C387    1.453   .     S
C378   O418    1.299   .     A
C378   O416    1.300   .     A
C379   H409    1.086   .     S
C379   C381    1.398   .     A
C379   C408    1.404   .     A
C380   H410    1.086   .     S
C380   C382    1.400   .     A
C380   C407    1.405   .     A
C381   C425    1.442   .     S
C381   C1251   1.422   1_554 S
C382   C427    1.441   .     S
C382   C1252   1.423   .     S
C383   C453    1.455   .     S
C383   C388    1.406   .     A
C383   C667    1.381   .     S
C384   C455    1.452   .     S
C384   C387    1.418   .     A
C385   C387    1.417   .     A
C385   C457    1.455   .     S
C386   C459    1.456   .     S
C386   C388    1.405   .     A
C386   C666    1.383   .     S
C389   N414    1.371   .     A
C389   O461    1.396   .     S
C389   C485    1.447   .     S
C390   O466    1.393   .     S
C390   N413    1.371   .     A
C391   H411    1.078   .     S
C391   N413    1.368   .     A
C392   N414    1.368   .     A
C392   H412    1.080   .     S
C392   C484    1.444   .     S
C393   O421    1.303   .     A
C393   O419    1.305   .     A
C393   C395    1.470   .     S
C394   O422    1.306   .     A
C394   O420    1.299   .     A
C394   C396    1.466   .     S
C395   C399    1.413   .     A
C395   C401    1.404   .     A
C396   C400    1.413   .     A
C396   C402    1.395   .     A
C397   O443    1.374   .     S
C397   C399    1.405   .     A
C397   C405    1.405   .     A
C398   C400    1.406   .     A
C398   O448    1.375   .     S
C398   C406    1.407   .     A
C399   O438    1.379   .     S
C400   O433    1.380   .     S
C401   C431    1.455   .     S
C401   C403    1.397   .     A
C402   C429    1.452   .     S
C402   C404    1.394   .     A
C403   C405    1.411   .     A
C403   C407    1.390   .     A
C404   C408    1.387   .     A
C404   C406    1.411   .     A
C405   C1227   1.422   .     S
C406   C1228   1.423   1_554 S
C407   C1254   1.392   .     S
C408   C1253   1.392   1_554 S
N413   Zn423   2.033   .     S
N414   Zn424   2.033   .     S
O415   Zn423   2.005   .     S
O416   Zn424   2.005   .     S
O417   Zn424   2.014   .     S
O418   Zn423   2.014   .     S
O419   Zn423   1.966   .     S
O420   Zn424   1.966   .     S
O421   Zn424   1.933   .     S
O422   Zn423   1.933   .     S
C425   N426    1.157   .     T
C427   N428    1.156   .     T
C429   N430    1.156   .     T
C431   N432    1.157   .     T
O433   C434    1.413   .     S
C434   H436    1.110   .     S
C434   H529    1.112   .     S
C434   H531    1.109   .     S
O438   C439    1.413   .     S
C439   H440    1.112   .     S
H441   C533    1.108   .     S
H442   C533    1.114   .     S
O443   C444    1.414   .     S
C444   H447    1.109   .     S
C444   H445    1.113   .     S
C444   H446    1.114   .     S
O448   C449    1.412   .     S
C449   H450    1.113   .     S
C449   H451    1.114   .     S
C449   H452    1.109   .     S
C453   N454    1.157   .     T
C455   N456    1.156   .     T
C457   N458    1.157   .     T
C459   N460    1.157   .     T
O461   C556    1.408   .     S
C462   H464    1.110   .     S
C462   H463    1.110   .     S
H465   C556    1.109   .     S
O466   C467    1.410   .     S
C467   H470    1.109   .     S
H468   C561    1.111   .     S
H469   C561    1.111   .     S
C471   C482    1.446   .     S
C471   O511    1.296   .     A
C471   O509    1.300   .     A
C472   C481    1.453   .     S
C472   O512    1.299   .     A
C472   O510    1.300   .     A
C473   H503    1.086   .     S
C473   C475    1.398   .     A
C473   C502    1.404   .     A
C474   H504    1.086   .     S
C474   C476    1.400   .     A
C474   C501    1.405   .     A
C475   C519    1.442   .     S
C475   C1345   1.422   1_554 S
C476   C521    1.441   .     S
C476   C1346   1.423   .     S
C477   C547    1.455   .     S
C477   C482    1.406   .     A
C477   C761    1.381   .     S
C478   C549    1.452   .     S
C478   C481    1.418   .     A
C479   C481    1.417   .     A
C479   C551    1.455   .     S
C480   C553    1.456   .     S
C480   C482    1.405   .     A
C480   C760    1.383   .     S
C483   N508    1.371   .     A
C483   O555    1.396   .     S
C483   C297    1.447   1_655 S
C484   O560    1.393   .     S
C484   N507    1.371   .     A
C485   H505    1.078   .     S
C485   N507    1.368   .     A
C486   N508    1.368   .     A
C486   H506    1.080   .     S
C486   C296    1.444   1_655 S
C487   O515    1.303   .     A
C487   O513    1.305   .     A
C487   C489    1.470   .     S
C488   O516    1.306   .     A
C488   O514    1.299   .     A
C488   C490    1.466   .     S
C489   C493    1.413   .     A
C489   C495    1.404   .     A
C490   C494    1.413   .     A
C490   C496    1.395   .     A
C491   O537    1.374   .     S
C491   C493    1.405   .     A
C491   C499    1.405   .     A
C492   C494    1.406   .     A
C492   O542    1.375   .     S
C492   C500    1.407   .     A
C493   O532    1.379   .     S
C494   O527    1.380   .     S
C495   C525    1.455   .     S
C495   C497    1.397   .     A
C496   C523    1.452   .     S
C496   C498    1.394   .     A
C497   C499    1.411   .     A
C497   C501    1.390   .     A
C498   C502    1.387   .     A
C498   C500    1.411   .     A
C499   C1321   1.422   .     S
C500   C1322   1.423   1_554 S
C501   C1348   1.392   .     S
C502   C1347   1.392   1_554 S
N507   Zn517   2.033   .     S
N508   Zn518   2.033   .     S
O509   Zn517   2.005   .     S
O510   Zn518   2.005   .     S
O511   Zn518   2.014   .     S
O512   Zn517   2.014   .     S
O513   Zn517   1.966   .     S
O514   Zn518   1.966   .     S
O515   Zn518   1.933   .     S
O516   Zn517   1.933   .     S
C519   N520    1.157   .     T
C521   N522    1.156   .     T
C523   N524    1.156   .     T
C525   N526    1.157   .     T
O527   C528    1.413   .     S
C528   H530    1.110   .     S
C528   H341    1.112   1_655 S
C528   H343    1.109   1_655 S
O532   C533    1.413   .     S
C533   H534    1.112   .     S
H535   C345    1.108   1_655 S
H536   C345    1.114   1_655 S
O537   C538    1.414   .     S
C538   H541    1.109   .     S
C538   H539    1.113   .     S
C538   H540    1.114   .     S
O542   C543    1.412   .     S
C543   H544    1.113   .     S
C543   H545    1.114   .     S
C543   H546    1.109   .     S
C547   N548    1.157   .     T
C549   N550    1.156   .     T
C551   N552    1.157   .     T
C553   N554    1.157   .     T
O555   C368    1.408   1_655 S
C556   H558    1.110   .     S
C556   H557    1.110   .     S
H559   C368    1.109   1_655 S
O560   C561    1.410   .     S
C561   H564    1.109   .     S
H562   C373    1.111   1_655 S
H563   C373    1.111   1_655 S
C565   C576    1.446   .     S
C565   O605    1.296   .     A
C565   O603    1.300   .     A
C566   C575    1.453   .     S
C566   O606    1.299   .     A
C566   O604    1.300   .     A
C567   H597    1.086   .     S
C567   C569    1.398   .     A
C567   C596    1.404   .     A
C568   H598    1.086   .     S
C568   C570    1.400   .     A
C568   C595    1.405   .     A
C569   C613    1.442   .     S
C569   C1439   1.422   1_554 S
C570   C615    1.441   .     S
C570   C1440   1.423   .     S
C571   C641    1.455   .     S
C571   C576    1.406   .     A
C571   C9      1.381   1_565 S
C572   C643    1.452   .     S
C572   C575    1.418   .     A
C573   C575    1.417   .     A
C573   C645    1.455   .     S
C574   C647    1.456   .     S
C574   C576    1.405   .     A
C574   C8      1.383   1_565 S
C577   N602    1.371   .     A
C577   O649    1.396   .     S
C577   C673    1.447   .     S
C578   O654    1.393   .     S
C578   N601    1.371   .     A
C578   C768    1.444   1_455 S
C579   H599    1.078   .     S
C579   N601    1.368   .     A
C579   C765    1.447   1_455 S
C580   N602    1.368   .     A
C580   H600    1.080   .     S
C580   C672    1.444   .     S
C581   O609    1.303   .     A
C581   O607    1.305   .     A
C581   C583    1.470   .     S
C582   O610    1.306   .     A
C582   O608    1.299   .     A
C582   C584    1.466   .     S
C583   C587    1.413   .     A
C583   C589    1.404   .     A
C584   C588    1.413   .     A
C584   C590    1.395   .     A
C585   O631    1.374   .     S
C585   C587    1.405   .     A
C585   C593    1.405   .     A
C586   C588    1.406   .     A
C586   O636    1.375   .     S
C586   C594    1.407   .     A
C587   O626    1.379   .     S
C588   O621    1.380   .     S
C589   C619    1.455   .     S
C589   C591    1.397   .     A
C590   C617    1.452   .     S
C590   C592    1.394   .     A
C591   C593    1.411   .     A
C591   C595    1.390   .     A
C592   C596    1.387   .     A
C592   C594    1.411   .     A
C593   C1415   1.422   .     S
C594   C1416   1.423   1_554 S
C595   C1442   1.392   .     S
C596   C1441   1.392   1_554 S
N601   Zn611   2.033   .     S
N602   Zn612   2.033   .     S
O603   Zn611   2.005   .     S
O604   Zn612   2.005   .     S
O605   Zn612   2.014   .     S
O606   Zn611   2.014   .     S
O607   Zn611   1.966   .     S
O608   Zn612   1.966   .     S
O609   Zn612   1.933   .     S
O610   Zn611   1.933   .     S
C613   N614    1.157   .     T
C615   N616    1.156   .     T
C617   N618    1.156   .     T
C619   N620    1.157   .     T
O621   C622    1.413   .     S
C622   H624    1.110   .     S
C622   H717    1.112   .     S
C622   H719    1.109   .     S
H623   C810    1.112   1_455 S
H625   C810    1.109   1_455 S
O626   C627    1.413   .     S
C627   H628    1.112   .     S
C627   H817    1.108   1_455 S
C627   H818    1.114   1_455 S
H629   C721    1.108   .     S
H630   C721    1.114   .     S
O631   C632    1.414   .     S
C632   H635    1.109   .     S
C632   H633    1.113   .     S
C632   H634    1.114   .     S
O636   C637    1.412   .     S
C637   H638    1.113   .     S
C637   H639    1.114   .     S
C637   H640    1.109   .     S
C641   N642    1.157   .     T
C643   N644    1.156   .     T
C645   N646    1.157   .     T
C647   N648    1.157   .     T
O649   C744    1.408   .     S
C650   H652    1.110   .     S
C650   H651    1.110   .     S
C650   O837    1.408   1_455 S
C650   H841    1.109   1_455 S
H653   C744    1.109   .     S
O654   C655    1.410   .     S
C655   H658    1.109   .     S
C655   H844    1.111   1_455 S
C655   H845    1.111   1_455 S
H656   C749    1.111   .     S
H657   C749    1.111   .     S
C659   C670    1.446   .     S
C659   O699    1.296   .     A
C659   O697    1.300   .     A
C660   C669    1.453   .     S
C660   O700    1.299   .     A
C660   O698    1.300   .     A
C661   H691    1.086   .     S
C661   C663    1.398   .     A
C661   C690    1.404   .     A
C662   H692    1.086   .     S
C662   C664    1.400   .     A
C662   C689    1.405   .     A
C663   C707    1.442   .     S
C663   C1533   1.422   1_554 S
C664   C709    1.441   .     S
C664   C1534   1.423   .     S
C665   C735    1.455   .     S
C665   C670    1.406   .     A
C665   C103    1.381   1_565 S
C666   C737    1.452   .     S
C666   C669    1.418   .     A
C667   C669    1.417   .     A
C667   C739    1.455   .     S
C668   C741    1.456   .     S
C668   C670    1.405   .     A
C668   C102    1.383   1_565 S
C671   N696    1.371   .     A
C671   O743    1.396   .     S
C671   C767    1.447   .     S
C672   O748    1.393   .     S
C672   N695    1.371   .     A
C673   H693    1.078   .     S
C673   N695    1.368   .     A
C674   N696    1.368   .     A
C674   H694    1.080   .     S
C674   C766    1.444   .     S
C675   O703    1.303   .     A
C675   O701    1.305   .     A
C675   C677    1.470   .     S
C676   O704    1.306   .     A
C676   O702    1.299   .     A
C676   C678    1.466   .     S
C677   C681    1.413   .     A
C677   C683    1.404   .     A
C678   C682    1.413   .     A
C678   C684    1.395   .     A
C679   O725    1.374   .     S
C679   C681    1.405   .     A
C679   C687    1.405   .     A
C680   C682    1.406   .     A
C680   O730    1.375   .     S
C680   C688    1.407   .     A
C681   O720    1.379   .     S
C682   O715    1.380   .     S
C683   C713    1.455   .     S
C683   C685    1.397   .     A
C684   C711    1.452   .     S
C684   C686    1.394   .     A
C685   C687    1.411   .     A
C685   C689    1.390   .     A
C686   C690    1.387   .     A
C686   C688    1.411   .     A
C687   C1509   1.422   .     S
C688   C1510   1.423   1_554 S
C689   C1536   1.392   .     S
C690   C1535   1.392   1_554 S
N695   Zn705   2.033   .     S
N696   Zn706   2.033   .     S
O697   Zn705   2.005   .     S
O698   Zn706   2.005   .     S
O699   Zn706   2.014   .     S
O700   Zn705   2.014   .     S
O701   Zn705   1.966   .     S
O702   Zn706   1.966   .     S
O703   Zn706   1.933   .     S
O704   Zn705   1.933   .     S
C707   N708    1.157   .     T
C709   N710    1.156   .     T
C711   N712    1.156   .     T
C713   N714    1.157   .     T
O715   C716    1.413   .     S
C716   H718    1.110   .     S
C716   H811    1.112   .     S
C716   H813    1.109   .     S
O720   C721    1.413   .     S
C721   H722    1.112   .     S
H723   C815    1.108   .     S
H724   C815    1.114   .     S
O725   C726    1.414   .     S
C726   H729    1.109   .     S
C726   H727    1.113   .     S
C726   H728    1.114   .     S
O730   C731    1.412   .     S
C731   H732    1.113   .     S
C731   H733    1.114   .     S
C731   H734    1.109   .     S
C735   N736    1.157   .     T
C737   N738    1.156   .     T
C739   N740    1.157   .     T
C741   N742    1.157   .     T
O743   C838    1.408   .     S
C744   H746    1.110   .     S
C744   H745    1.110   .     S
H747   C838    1.109   .     S
O748   C749    1.410   .     S
C749   H752    1.109   .     S
H750   C843    1.111   .     S
H751   C843    1.111   .     S
C753   C764    1.446   .     S
C753   O793    1.296   .     A
C753   O791    1.300   .     A
C754   C763    1.453   .     S
C754   O794    1.299   .     A
C754   O792    1.300   .     A
C755   H785    1.086   .     S
C755   C757    1.398   .     A
C755   C784    1.404   .     A
C756   H786    1.086   .     S
C756   C758    1.400   .     A
C756   C783    1.405   .     A
C757   C801    1.442   .     S
C757   C1627   1.422   1_554 S
C758   C803    1.441   .     S
C758   C1628   1.423   .     S
C759   C829    1.455   .     S
C759   C764    1.406   .     A
C759   C197    1.381   1_565 S
C760   C831    1.452   .     S
C760   C763    1.418   .     A
C761   C763    1.417   .     A
C761   C833    1.455   .     S
C762   C835    1.456   .     S
C762   C764    1.405   .     A
C762   C196    1.383   1_565 S
C765   N790    1.371   .     A
C765   O837    1.396   .     S
C765   C579    1.447   1_655 S
C766   O842    1.393   .     S
C766   N789    1.371   .     A
C767   H787    1.078   .     S
C767   N789    1.368   .     A
C768   N790    1.368   .     A
C768   H788    1.080   .     S
C768   C578    1.444   1_655 S
C769   O797    1.303   .     A
C769   O795    1.305   .     A
C769   C771    1.470   .     S
C770   O798    1.306   .     A
C770   O796    1.299   .     A
C770   C772    1.466   .     S
C771   C775    1.413   .     A
C771   C777    1.404   .     A
C772   C776    1.413   .     A
C772   C778    1.395   .     A
C773   O819    1.374   .     S
C773   C775    1.405   .     A
C773   C781    1.405   .     A
C774   C776    1.406   .     A
C774   O824    1.375   .     S
C774   C782    1.407   .     A
C775   O814    1.379   .     S
C776   O809    1.380   .     S
C777   C807    1.455   .     S
C777   C779    1.397   .     A
C778   C805    1.452   .     S
C778   C780    1.394   .     A
C779   C781    1.411   .     A
C779   C783    1.390   .     A
C780   C784    1.387   .     A
C780   C782    1.411   .     A
C781   C1603   1.422   .     S
C782   C1604   1.423   1_554 S
C783   C1630   1.392   .     S
C784   C1629   1.392   1_554 S
N789   Zn799   2.033   .     S
N790   Zn800   2.033   .     S
O791   Zn799   2.005   .     S
O792   Zn800   2.005   .     S
O793   Zn800   2.014   .     S
O794   Zn799   2.014   .     S
O795   Zn799   1.966   .     S
O796   Zn800   1.966   .     S
O797   Zn800   1.933   .     S
O798   Zn799   1.933   .     S
C801   N802    1.157   .     T
C803   N804    1.156   .     T
C805   N806    1.156   .     T
C807   N808    1.157   .     T
O809   C810    1.413   .     S
C810   H812    1.110   .     S
C810   H623    1.112   1_655 S
C810   H625    1.109   1_655 S
O814   C815    1.413   .     S
C815   H816    1.112   .     S
H817   C627    1.108   1_655 S
H818   C627    1.114   1_655 S
O819   C820    1.414   .     S
C820   H823    1.109   .     S
C820   H821    1.113   .     S
C820   H822    1.114   .     S
O824   C825    1.412   .     S
C825   H826    1.113   .     S
C825   H827    1.114   .     S
C825   H828    1.109   .     S
C829   N830    1.157   .     T
C831   N832    1.156   .     T
C833   N834    1.157   .     T
C835   N836    1.157   .     T
O837   C650    1.408   1_655 S
C838   H840    1.110   .     S
C838   H839    1.110   .     S
H841   C650    1.109   1_655 S
O842   C843    1.410   .     S
C843   H846    1.109   .     S
H844   C655    1.111   1_655 S
H845   C655    1.111   1_655 S
C847   C858    1.446   .     S
C847   O887    1.296   .     A
C847   O885    1.300   .     A
C848   C857    1.453   .     S
C848   O888    1.299   .     A
C848   O886    1.300   .     A
C849   H879    1.086   .     S
C849   C851    1.398   .     A
C849   C878    1.404   .     A
C850   H880    1.086   .     S
C850   C852    1.400   .     A
C850   C877    1.405   .     A
C851   C895    1.442   .     S
C852   C897    1.441   .     S
C852   C30     1.423   1_556 S
C853   C923    1.455   .     S
C853   C858    1.406   .     A
C853   C1137   1.381   .     S
C854   C925    1.452   .     S
C854   C857    1.418   .     A
C854   C1420   1.383   1_545 S
C855   C857    1.417   .     A
C855   C927    1.455   .     S
C855   C1417   1.381   1_545 S
C856   C929    1.456   .     S
C856   C858    1.405   .     A
C856   C1136   1.383   .     S
C859   N884    1.371   .     A
C859   O931    1.396   .     S
C859   C955    1.447   .     S
C860   O936    1.393   .     S
C860   N883    1.371   .     A
C860   C1050   1.444   1_455 S
C861   H881    1.078   .     S
C861   N883    1.368   .     A
C861   C1047   1.447   1_455 S
C862   N884    1.368   .     A
C862   H882    1.080   .     S
C862   C954    1.444   .     S
C863   O891    1.303   .     A
C863   O889    1.305   .     A
C863   C865    1.470   .     S
C864   O892    1.306   .     A
C864   O890    1.299   .     A
C864   C866    1.466   .     S
C865   C869    1.413   .     A
C865   C871    1.404   .     A
C866   C870    1.413   .     A
C866   C872    1.395   .     A
C867   O913    1.374   .     S
C867   C869    1.405   .     A
C867   C875    1.405   .     A
C868   C870    1.406   .     A
C868   O918    1.375   .     S
C868   C876    1.407   .     A
C869   O908    1.379   .     S
C870   O903    1.380   .     S
C871   C901    1.455   .     S
C871   C873    1.397   .     A
C872   C899    1.452   .     S
C872   C874    1.394   .     A
C873   C875    1.411   .     A
C873   C877    1.390   .     A
C874   C878    1.387   .     A
C874   C876    1.411   .     A
C875   C5      1.422   1_556 S
C877   C32     1.392   1_556 S
N883   Zn893   2.033   .     S
N884   Zn894   2.033   .     S
O885   Zn893   2.005   .     S
O886   Zn894   2.005   .     S
O887   Zn894   2.014   .     S
O888   Zn893   2.014   .     S
O889   Zn893   1.966   .     S
O890   Zn894   1.966   .     S
O891   Zn894   1.933   .     S
O892   Zn893   1.933   .     S
C895   N896    1.157   .     T
C897   N898    1.156   .     T
C899   N900    1.156   .     T
C901   N902    1.157   .     T
O903   C904    1.413   .     S
C904   H906    1.110   .     S
C904   H999    1.112   .     S
C904   H1001   1.109   .     S
H905   C1092   1.112   1_455 S
H907   C1092   1.109   1_455 S
O908   C909    1.413   .     S
C909   H910    1.112   .     S
C909   H1099   1.108   1_455 S
C909   H1100   1.114   1_455 S
H911   C1003   1.108   .     S
H912   C1003   1.114   .     S
O913   C914    1.414   .     S
C914   H917    1.109   .     S
C914   H915    1.113   .     S
C914   H916    1.114   .     S
O918   C919    1.412   .     S
C919   H920    1.113   .     S
C919   H921    1.114   .     S
C919   H922    1.109   .     S
C923   N924    1.157   .     T
C925   N926    1.156   .     T
C927   N928    1.157   .     T
C929   N930    1.157   .     T
O931   C1026   1.408   .     S
C932   H934    1.110   .     S
C932   H933    1.110   .     S
C932   O1119   1.408   1_455 S
C932   H1123   1.109   1_455 S
H935   C1026   1.109   .     S
O936   C937    1.410   .     S
C937   H940    1.109   .     S
C937   H1126   1.111   1_455 S
C937   H1127   1.111   1_455 S
H938   C1031   1.111   .     S
H939   C1031   1.111   .     S
C941   C952    1.446   .     S
C941   O981    1.296   .     A
C941   O979    1.300   .     A
C942   C951    1.453   .     S
C942   O982    1.299   .     A
C942   O980    1.300   .     A
C943   H973    1.086   .     S
C943   C945    1.398   .     A
C943   C972    1.404   .     A
C944   H974    1.086   .     S
C944   C946    1.400   .     A
C944   C971    1.405   .     A
C945   C989    1.442   .     S
C946   C991    1.441   .     S
C946   C124    1.423   1_556 S
C947   C1017   1.455   .     S
C947   C952    1.406   .     A
C947   C1231   1.381   .     S
C948   C1019   1.452   .     S
C948   C951    1.418   .     A
C948   C1514   1.383   1_545 S
C949   C951    1.417   .     A
C949   C1021   1.455   .     S
C949   C1511   1.381   1_545 S
C950   C1023   1.456   .     S
C950   C952    1.405   .     A
C950   C1230   1.383   .     S
C953   N978    1.371   .     A
C953   O1025   1.396   .     S
C953   C1049   1.447   .     S
C954   O1030   1.393   .     S
C954   N977    1.371   .     A
C955   H975    1.078   .     S
C955   N977    1.368   .     A
C956   N978    1.368   .     A
C956   H976    1.080   .     S
C956   C1048   1.444   .     S
C957   O985    1.303   .     A
C957   O983    1.305   .     A
C957   C959    1.470   .     S
C958   O986    1.306   .     A
C958   O984    1.299   .     A
C958   C960    1.466   .     S
C959   C963    1.413   .     A
C959   C965    1.404   .     A
C960   C964    1.413   .     A
C960   C966    1.395   .     A
C961   O1007   1.374   .     S
C961   C963    1.405   .     A
C961   C969    1.405   .     A
C962   C964    1.406   .     A
C962   O1012   1.375   .     S
C962   C970    1.407   .     A
C963   O1002   1.379   .     S
C964   O997    1.380   .     S
C965   C995    1.455   .     S
C965   C967    1.397   .     A
C966   C993    1.452   .     S
C966   C968    1.394   .     A
C967   C969    1.411   .     A
C967   C971    1.390   .     A
C968   C972    1.387   .     A
C968   C970    1.411   .     A
C969   C99     1.422   1_556 S
C971   C126    1.392   1_556 S
N977   Zn987   2.033   .     S
N978   Zn988   2.033   .     S
O979   Zn987   2.005   .     S
O980   Zn988   2.005   .     S
O981   Zn988   2.014   .     S
O982   Zn987   2.014   .     S
O983   Zn987   1.966   .     S
O984   Zn988   1.966   .     S
O985   Zn988   1.933   .     S
O986   Zn987   1.933   .     S
C989   N990    1.157   .     T
C991   N992    1.156   .     T
C993   N994    1.156   .     T
C995   N996    1.157   .     T
O997   C998    1.413   .     S
C998   H1000   1.110   .     S
C998   H1093   1.112   .     S
C998   H1095   1.109   .     S
O1002  C1003   1.413   .     S
C1003  H1004   1.112   .     S
H1005  C1097   1.108   .     S
H1006  C1097   1.114   .     S
O1007  C1008   1.414   .     S
C1008  H1011   1.109   .     S
C1008  H1009   1.113   .     S
C1008  H1010   1.114   .     S
O1012  C1013   1.412   .     S
C1013  H1014   1.113   .     S
C1013  H1015   1.114   .     S
C1013  H1016   1.109   .     S
C1017  N1018   1.157   .     T
C1019  N1020   1.156   .     T
C1021  N1022   1.157   .     T
C1023  N1024   1.157   .     T
O1025  C1120   1.408   .     S
C1026  H1028   1.110   .     S
C1026  H1027   1.110   .     S
H1029  C1120   1.109   .     S
O1030  C1031   1.410   .     S
C1031  H1034   1.109   .     S
H1032  C1125   1.111   .     S
H1033  C1125   1.111   .     S
C1035  C1046   1.446   .     S
C1035  O1075   1.296   .     A
C1035  O1073   1.300   .     A
C1036  C1045   1.453   .     S
C1036  O1076   1.299   .     A
C1036  O1074   1.300   .     A
C1037  H1067   1.086   .     S
C1037  C1039   1.398   .     A
C1037  C1066   1.404   .     A
C1038  H1068   1.086   .     S
C1038  C1040   1.400   .     A
C1038  C1065   1.405   .     A
C1039  C1083   1.442   .     S
C1040  C1085   1.441   .     S
C1040  C218    1.423   1_556 S
C1041  C1111   1.455   .     S
C1041  C1046   1.406   .     A
C1041  C1325   1.381   .     S
C1042  C1113   1.452   .     S
C1042  C1045   1.418   .     A
C1042  C1608   1.383   1_545 S
C1043  C1045   1.417   .     A
C1043  C1115   1.455   .     S
C1043  C1605   1.381   1_545 S
C1044  C1117   1.456   .     S
C1044  C1046   1.405   .     A
C1044  C1324   1.383   .     S
C1047  N1072   1.371   .     A
C1047  O1119   1.396   .     S
C1047  C861    1.447   1_655 S
C1048  O1124   1.393   .     S
C1048  N1071   1.371   .     A
C1049  H1069   1.078   .     S
C1049  N1071   1.368   .     A
C1050  N1072   1.368   .     A
C1050  H1070   1.080   .     S
C1050  C860    1.444   1_655 S
C1051  O1079   1.303   .     A
C1051  O1077   1.305   .     A
C1051  C1053   1.470   .     S
C1052  O1080   1.306   .     A
C1052  O1078   1.299   .     A
C1052  C1054   1.466   .     S
C1053  C1057   1.413   .     A
C1053  C1059   1.404   .     A
C1054  C1058   1.413   .     A
C1054  C1060   1.395   .     A
C1055  O1101   1.374   .     S
C1055  C1057   1.405   .     A
C1055  C1063   1.405   .     A
C1056  C1058   1.406   .     A
C1056  O1106   1.375   .     S
C1056  C1064   1.407   .     A
C1057  O1096   1.379   .     S
C1058  O1091   1.380   .     S
C1059  C1089   1.455   .     S
C1059  C1061   1.397   .     A
C1060  C1087   1.452   .     S
C1060  C1062   1.394   .     A
C1061  C1063   1.411   .     A
C1061  C1065   1.390   .     A
C1062  C1066   1.387   .     A
C1062  C1064   1.411   .     A
C1063  C193    1.422   1_556 S
C1065  C220    1.392   1_556 S
N1071  Zn1081  2.033   .     S
N1072  Zn1082  2.033   .     S
O1073  Zn1081  2.005   .     S
O1074  Zn1082  2.005   .     S
O1075  Zn1082  2.014   .     S
O1076  Zn1081  2.014   .     S
O1077  Zn1081  1.966   .     S
O1078  Zn1082  1.966   .     S
O1079  Zn1082  1.933   .     S
O1080  Zn1081  1.933   .     S
C1083  N1084   1.157   .     T
C1085  N1086   1.156   .     T
C1087  N1088   1.156   .     T
C1089  N1090   1.157   .     T
O1091  C1092   1.413   .     S
C1092  H1094   1.110   .     S
C1092  H905    1.112   1_655 S
C1092  H907    1.109   1_655 S
O1096  C1097   1.413   .     S
C1097  H1098   1.112   .     S
H1099  C909    1.108   1_655 S
H1100  C909    1.114   1_655 S
O1101  C1102   1.414   .     S
C1102  H1105   1.109   .     S
C1102  H1103   1.113   .     S
C1102  H1104   1.114   .     S
O1106  C1107   1.412   .     S
C1107  H1108   1.113   .     S
C1107  H1109   1.114   .     S
C1107  H1110   1.109   .     S
C1111  N1112   1.157   .     T
C1113  N1114   1.156   .     T
C1115  N1116   1.157   .     T
C1117  N1118   1.157   .     T
O1119  C932    1.408   1_655 S
C1120  H1122   1.110   .     S
C1120  H1121   1.110   .     S
H1123  C932    1.109   1_655 S
O1124  C1125   1.410   .     S
C1125  H1128   1.109   .     S
H1126  C937    1.111   1_655 S
H1127  C937    1.111   1_655 S
C1129  C1140   1.446   .     S
C1129  O1169   1.296   .     A
C1129  O1167   1.300   .     A
C1130  C1139   1.453   .     S
C1130  O1170   1.299   .     A
C1130  O1168   1.300   .     A
C1131  H1161   1.086   .     S
C1131  C1133   1.398   .     A
C1131  C1160   1.404   .     A
C1132  H1162   1.086   .     S
C1132  C1134   1.400   .     A
C1132  C1159   1.405   .     A
C1133  C1177   1.442   .     S
C1134  C1179   1.441   .     S
C1134  C312    1.423   1_556 S
C1135  C1205   1.455   .     S
C1135  C1140   1.406   .     A
C1135  C1419   1.381   .     S
C1136  C1207   1.452   .     S
C1136  C1139   1.418   .     A
C1137  C1139   1.417   .     A
C1137  C1209   1.455   .     S
C1138  C1211   1.456   .     S
C1138  C1140   1.405   .     A
C1138  C1418   1.383   .     S
C1141  N1166   1.371   .     A
C1141  O1213   1.396   .     S
C1141  C1237   1.447   .     S
C1142  O1218   1.393   .     S
C1142  N1165   1.371   .     A
C1142  C1332   1.444   1_455 S
C1143  H1163   1.078   .     S
C1143  N1165   1.368   .     A
C1143  C1329   1.447   1_455 S
C1144  N1166   1.368   .     A
C1144  H1164   1.080   .     S
C1144  C1236   1.444   .     S
C1145  O1173   1.303   .     A
C1145  O1171   1.305   .     A
C1145  C1147   1.470   .     S
C1146  O1174   1.306   .     A
C1146  O1172   1.299   .     A
C1146  C1148   1.466   .     S
C1147  C1151   1.413   .     A
C1147  C1153   1.404   .     A
C1148  C1152   1.413   .     A
C1148  C1154   1.395   .     A
C1149  O1195   1.374   .     S
C1149  C1151   1.405   .     A
C1149  C1157   1.405   .     A
C1150  C1152   1.406   .     A
C1150  O1200   1.375   .     S
C1150  C1158   1.407   .     A
C1151  O1190   1.379   .     S
C1152  O1185   1.380   .     S
C1153  C1183   1.455   .     S
C1153  C1155   1.397   .     A
C1154  C1181   1.452   .     S
C1154  C1156   1.394   .     A
C1155  C1157   1.411   .     A
C1155  C1159   1.390   .     A
C1156  C1160   1.387   .     A
C1156  C1158   1.411   .     A
C1157  C287    1.422   1_556 S
C1159  C314    1.392   1_556 S
N1165  Zn1175  2.033   .     S
N1166  Zn1176  2.033   .     S
O1167  Zn1175  2.005   .     S
O1168  Zn1176  2.005   .     S
O1169  Zn1176  2.014   .     S
O1170  Zn1175  2.014   .     S
O1171  Zn1175  1.966   .     S
O1172  Zn1176  1.966   .     S
O1173  Zn1176  1.933   .     S
O1174  Zn1175  1.933   .     S
C1177  N1178   1.157   .     T
C1179  N1180   1.156   .     T
C1181  N1182   1.156   .     T
C1183  N1184   1.157   .     T
O1185  C1186   1.413   .     S
C1186  H1188   1.110   .     S
C1186  H1281   1.112   .     S
C1186  H1283   1.109   .     S
H1187  C1374   1.112   1_455 S
H1189  C1374   1.109   1_455 S
O1190  C1191   1.413   .     S
C1191  H1192   1.112   .     S
C1191  H1381   1.108   1_455 S
C1191  H1382   1.114   1_455 S
H1193  C1285   1.108   .     S
H1194  C1285   1.114   .     S
O1195  C1196   1.414   .     S
C1196  H1199   1.109   .     S
C1196  H1197   1.113   .     S
C1196  H1198   1.114   .     S
O1200  C1201   1.412   .     S
C1201  H1202   1.113   .     S
C1201  H1203   1.114   .     S
C1201  H1204   1.109   .     S
C1205  N1206   1.157   .     T
C1207  N1208   1.156   .     T
C1209  N1210   1.157   .     T
C1211  N1212   1.157   .     T
O1213  C1308   1.408   .     S
C1214  H1216   1.110   .     S
C1214  H1215   1.110   .     S
C1214  O1401   1.408   1_455 S
C1214  H1405   1.109   1_455 S
H1217  C1308   1.109   .     S
O1218  C1219   1.410   .     S
C1219  H1222   1.109   .     S
C1219  H1408   1.111   1_455 S
C1219  H1409   1.111   1_455 S
H1220  C1313   1.111   .     S
H1221  C1313   1.111   .     S
C1223  C1234   1.446   .     S
C1223  O1263   1.296   .     A
C1223  O1261   1.300   .     A
C1224  C1233   1.453   .     S
C1224  O1264   1.299   .     A
C1224  O1262   1.300   .     A
C1225  H1255   1.086   .     S
C1225  C1227   1.398   .     A
C1225  C1254   1.404   .     A
C1226  H1256   1.086   .     S
C1226  C1228   1.400   .     A
C1226  C1253   1.405   .     A
C1227  C1271   1.442   .     S
C1228  C1273   1.441   .     S
C1228  C406    1.423   1_556 S
C1229  C1299   1.455   .     S
C1229  C1234   1.406   .     A
C1229  C1513   1.381   .     S
C1230  C1301   1.452   .     S
C1230  C1233   1.418   .     A
C1231  C1233   1.417   .     A
C1231  C1303   1.455   .     S
C1232  C1305   1.456   .     S
C1232  C1234   1.405   .     A
C1232  C1512   1.383   .     S
C1235  N1260   1.371   .     A
C1235  O1307   1.396   .     S
C1235  C1331   1.447   .     S
C1236  O1312   1.393   .     S
C1236  N1259   1.371   .     A
C1237  H1257   1.078   .     S
C1237  N1259   1.368   .     A
C1238  N1260   1.368   .     A
C1238  H1258   1.080   .     S
C1238  C1330   1.444   .     S
C1239  O1267   1.303   .     A
C1239  O1265   1.305   .     A
C1239  C1241   1.470   .     S
C1240  O1268   1.306   .     A
C1240  O1266   1.299   .     A
C1240  C1242   1.466   .     S
C1241  C1245   1.413   .     A
C1241  C1247   1.404   .     A
C1242  C1246   1.413   .     A
C1242  C1248   1.395   .     A
C1243  O1289   1.374   .     S
C1243  C1245   1.405   .     A
C1243  C1251   1.405   .     A
C1244  C1246   1.406   .     A
C1244  O1294   1.375   .     S
C1244  C1252   1.407   .     A
C1245  O1284   1.379   .     S
C1246  O1279   1.380   .     S
C1247  C1277   1.455   .     S
C1247  C1249   1.397   .     A
C1248  C1275   1.452   .     S
C1248  C1250   1.394   .     A
C1249  C1251   1.411   .     A
C1249  C1253   1.390   .     A
C1250  C1254   1.387   .     A
C1250  C1252   1.411   .     A
C1251  C381    1.422   1_556 S
C1253  C408    1.392   1_556 S
N1259  Zn1269  2.033   .     S
N1260  Zn1270  2.033   .     S
O1261  Zn1269  2.005   .     S
O1262  Zn1270  2.005   .     S
O1263  Zn1270  2.014   .     S
O1264  Zn1269  2.014   .     S
O1265  Zn1269  1.966   .     S
O1266  Zn1270  1.966   .     S
O1267  Zn1270  1.933   .     S
O1268  Zn1269  1.933   .     S
C1271  N1272   1.157   .     T
C1273  N1274   1.156   .     T
C1275  N1276   1.156   .     T
C1277  N1278   1.157   .     T
O1279  C1280   1.413   .     S
C1280  H1282   1.110   .     S
C1280  H1375   1.112   .     S
C1280  H1377   1.109   .     S
O1284  C1285   1.413   .     S
C1285  H1286   1.112   .     S
H1287  C1379   1.108   .     S
H1288  C1379   1.114   .     S
O1289  C1290   1.414   .     S
C1290  H1293   1.109   .     S
C1290  H1291   1.113   .     S
C1290  H1292   1.114   .     S
O1294  C1295   1.412   .     S
C1295  H1296   1.113   .     S
C1295  H1297   1.114   .     S
C1295  H1298   1.109   .     S
C1299  N1300   1.157   .     T
C1301  N1302   1.156   .     T
C1303  N1304   1.157   .     T
C1305  N1306   1.157   .     T
O1307  C1402   1.408   .     S
C1308  H1310   1.110   .     S
C1308  H1309   1.110   .     S
H1311  C1402   1.109   .     S
O1312  C1313   1.410   .     S
C1313  H1316   1.109   .     S
H1314  C1407   1.111   .     S
H1315  C1407   1.111   .     S
C1317  C1328   1.446   .     S
C1317  O1357   1.296   .     A
C1317  O1355   1.300   .     A
C1318  C1327   1.453   .     S
C1318  O1358   1.299   .     A
C1318  O1356   1.300   .     A
C1319  H1349   1.086   .     S
C1319  C1321   1.398   .     A
C1319  C1348   1.404   .     A
C1320  H1350   1.086   .     S
C1320  C1322   1.400   .     A
C1320  C1347   1.405   .     A
C1321  C1365   1.442   .     S
C1322  C1367   1.441   .     S
C1322  C500    1.423   1_556 S
C1323  C1393   1.455   .     S
C1323  C1328   1.406   .     A
C1323  C1607   1.381   .     S
C1324  C1395   1.452   .     S
C1324  C1327   1.418   .     A
C1325  C1327   1.417   .     A
C1325  C1397   1.455   .     S
C1326  C1399   1.456   .     S
C1326  C1328   1.405   .     A
C1326  C1606   1.383   .     S
C1329  N1354   1.371   .     A
C1329  O1401   1.396   .     S
C1329  C1143   1.447   1_655 S
C1330  O1406   1.393   .     S
C1330  N1353   1.371   .     A
C1331  H1351   1.078   .     S
C1331  N1353   1.368   .     A
C1332  N1354   1.368   .     A
C1332  H1352   1.080   .     S
C1332  C1142   1.444   1_655 S
C1333  O1361   1.303   .     A
C1333  O1359   1.305   .     A
C1333  C1335   1.470   .     S
C1334  O1362   1.306   .     A
C1334  O1360   1.299   .     A
C1334  C1336   1.466   .     S
C1335  C1339   1.413   .     A
C1335  C1341   1.404   .     A
C1336  C1340   1.413   .     A
C1336  C1342   1.395   .     A
C1337  O1383   1.374   .     S
C1337  C1339   1.405   .     A
C1337  C1345   1.405   .     A
C1338  C1340   1.406   .     A
C1338  O1388   1.375   .     S
C1338  C1346   1.407   .     A
C1339  O1378   1.379   .     S
C1340  O1373   1.380   .     S
C1341  C1371   1.455   .     S
C1341  C1343   1.397   .     A
C1342  C1369   1.452   .     S
C1342  C1344   1.394   .     A
C1343  C1345   1.411   .     A
C1343  C1347   1.390   .     A
C1344  C1348   1.387   .     A
C1344  C1346   1.411   .     A
C1345  C475    1.422   1_556 S
C1347  C502    1.392   1_556 S
N1353  Zn1363  2.033   .     S
N1354  Zn1364  2.033   .     S
O1355  Zn1363  2.005   .     S
O1356  Zn1364  2.005   .     S
O1357  Zn1364  2.014   .     S
O1358  Zn1363  2.014   .     S
O1359  Zn1363  1.966   .     S
O1360  Zn1364  1.966   .     S
O1361  Zn1364  1.933   .     S
O1362  Zn1363  1.933   .     S
C1365  N1366   1.157   .     T
C1367  N1368   1.156   .     T
C1369  N1370   1.156   .     T
C1371  N1372   1.157   .     T
O1373  C1374   1.413   .     S
C1374  H1376   1.110   .     S
C1374  H1187   1.112   1_655 S
C1374  H1189   1.109   1_655 S
O1378  C1379   1.413   .     S
C1379  H1380   1.112   .     S
H1381  C1191   1.108   1_655 S
H1382  C1191   1.114   1_655 S
O1383  C1384   1.414   .     S
C1384  H1387   1.109   .     S
C1384  H1385   1.113   .     S
C1384  H1386   1.114   .     S
O1388  C1389   1.412   .     S
C1389  H1390   1.113   .     S
C1389  H1391   1.114   .     S
C1389  H1392   1.109   .     S
C1393  N1394   1.157   .     T
C1395  N1396   1.156   .     T
C1397  N1398   1.157   .     T
C1399  N1400   1.157   .     T
O1401  C1214   1.408   1_655 S
C1402  H1404   1.110   .     S
C1402  H1403   1.110   .     S
H1405  C1214   1.109   1_655 S
O1406  C1407   1.410   .     S
C1407  H1410   1.109   .     S
H1408  C1219   1.111   1_655 S
H1409  C1219   1.111   1_655 S
C1411  C1422   1.446   .     S
C1411  O1451   1.296   .     A
C1411  O1449   1.300   .     A
C1412  C1421   1.453   .     S
C1412  O1452   1.299   .     A
C1412  O1450   1.300   .     A
C1413  H1443   1.086   .     S
C1413  C1415   1.398   .     A
C1413  C1442   1.404   .     A
C1414  H1444   1.086   .     S
C1414  C1416   1.400   .     A
C1414  C1441   1.405   .     A
C1415  C1459   1.442   .     S
C1416  C1461   1.441   .     S
C1416  C594    1.423   1_556 S
C1417  C1487   1.455   .     S
C1417  C1422   1.406   .     A
C1417  C855    1.381   1_565 S
C1418  C1489   1.452   .     S
C1418  C1421   1.418   .     A
C1419  C1421   1.417   .     A
C1419  C1491   1.455   .     S
C1420  C1493   1.456   .     S
C1420  C1422   1.405   .     A
C1420  C854    1.383   1_565 S
C1423  N1448   1.371   .     A
C1423  O1495   1.396   .     S
C1423  C1519   1.447   .     S
C1424  O1500   1.393   .     S
C1424  N1447   1.371   .     A
C1424  C1614   1.444   1_455 S
C1425  H1445   1.078   .     S
C1425  N1447   1.368   .     A
C1425  C1611   1.447   1_455 S
C1426  N1448   1.368   .     A
C1426  H1446   1.080   .     S
C1426  C1518   1.444   .     S
C1427  O1455   1.303   .     A
C1427  O1453   1.305   .     A
C1427  C1429   1.470   .     S
C1428  O1456   1.306   .     A
C1428  O1454   1.299   .     A
C1428  C1430   1.466   .     S
C1429  C1433   1.413   .     A
C1429  C1435   1.404   .     A
C1430  C1434   1.413   .     A
C1430  C1436   1.395   .     A
C1431  O1477   1.374   .     S
C1431  C1433   1.405   .     A
C1431  C1439   1.405   .     A
C1432  C1434   1.406   .     A
C1432  O1482   1.375   .     S
C1432  C1440   1.407   .     A
C1433  O1472   1.379   .     S
C1434  O1467   1.380   .     S
C1435  C1465   1.455   .     S
C1435  C1437   1.397   .     A
C1436  C1463   1.452   .     S
C1436  C1438   1.394   .     A
C1437  C1439   1.411   .     A
C1437  C1441   1.390   .     A
C1438  C1442   1.387   .     A
C1438  C1440   1.411   .     A
C1439  C569    1.422   1_556 S
C1441  C596    1.392   1_556 S
N1447  Zn1457  2.033   .     S
N1448  Zn1458  2.033   .     S
O1449  Zn1457  2.005   .     S
O1450  Zn1458  2.005   .     S
O1451  Zn1458  2.014   .     S
O1452  Zn1457  2.014   .     S
O1453  Zn1457  1.966   .     S
O1454  Zn1458  1.966   .     S
O1455  Zn1458  1.933   .     S
O1456  Zn1457  1.933   .     S
C1459  N1460   1.157   .     T
C1461  N1462   1.156   .     T
C1463  N1464   1.156   .     T
C1465  N1466   1.157   .     T
O1467  C1468   1.413   .     S
C1468  H1470   1.110   .     S
C1468  H1563   1.112   .     S
C1468  H1565   1.109   .     S
H1469  C1656   1.112   1_455 S
H1471  C1656   1.109   1_455 S
O1472  C1473   1.413   .     S
C1473  H1474   1.112   .     S
C1473  H1663   1.108   1_455 S
C1473  H1664   1.114   1_455 S
H1475  C1567   1.108   .     S
H1476  C1567   1.114   .     S
O1477  C1478   1.414   .     S
C1478  H1481   1.109   .     S
C1478  H1479   1.113   .     S
C1478  H1480   1.114   .     S
O1482  C1483   1.412   .     S
C1483  H1484   1.113   .     S
C1483  H1485   1.114   .     S
C1483  H1486   1.109   .     S
C1487  N1488   1.157   .     T
C1489  N1490   1.156   .     T
C1491  N1492   1.157   .     T
C1493  N1494   1.157   .     T
O1495  C1590   1.408   .     S
C1496  H1498   1.110   .     S
C1496  H1497   1.110   .     S
C1496  O1683   1.408   1_455 S
C1496  H1687   1.109   1_455 S
H1499  C1590   1.109   .     S
O1500  C1501   1.410   .     S
C1501  H1504   1.109   .     S
C1501  H1690   1.111   1_455 S
C1501  H1691   1.111   1_455 S
H1502  C1595   1.111   .     S
H1503  C1595   1.111   .     S
C1505  C1516   1.446   .     S
C1505  O1545   1.296   .     A
C1505  O1543   1.300   .     A
C1506  C1515   1.453   .     S
C1506  O1546   1.299   .     A
C1506  O1544   1.300   .     A
C1507  H1537   1.086   .     S
C1507  C1509   1.398   .     A
C1507  C1536   1.404   .     A
C1508  H1538   1.086   .     S
C1508  C1510   1.400   .     A
C1508  C1535   1.405   .     A
C1509  C1553   1.442   .     S
C1510  C1555   1.441   .     S
C1510  C688    1.423   1_556 S
C1511  C1581   1.455   .     S
C1511  C1516   1.406   .     A
C1511  C949    1.381   1_565 S
C1512  C1583   1.452   .     S
C1512  C1515   1.418   .     A
C1513  C1515   1.417   .     A
C1513  C1585   1.455   .     S
C1514  C1587   1.456   .     S
C1514  C1516   1.405   .     A
C1514  C948    1.383   1_565 S
C1517  N1542   1.371   .     A
C1517  O1589   1.396   .     S
C1517  C1613   1.447   .     S
C1518  O1594   1.393   .     S
C1518  N1541   1.371   .     A
C1519  H1539   1.078   .     S
C1519  N1541   1.368   .     A
C1520  N1542   1.368   .     A
C1520  H1540   1.080   .     S
C1520  C1612   1.444   .     S
C1521  O1549   1.303   .     A
C1521  O1547   1.305   .     A
C1521  C1523   1.470   .     S
C1522  O1550   1.306   .     A
C1522  O1548   1.299   .     A
C1522  C1524   1.466   .     S
C1523  C1527   1.413   .     A
C1523  C1529   1.404   .     A
C1524  C1528   1.413   .     A
C1524  C1530   1.395   .     A
C1525  O1571   1.374   .     S
C1525  C1527   1.405   .     A
C1525  C1533   1.405   .     A
C1526  C1528   1.406   .     A
C1526  O1576   1.375   .     S
C1526  C1534   1.407   .     A
C1527  O1566   1.379   .     S
C1528  O1561   1.380   .     S
C1529  C1559   1.455   .     S
C1529  C1531   1.397   .     A
C1530  C1557   1.452   .     S
C1530  C1532   1.394   .     A
C1531  C1533   1.411   .     A
C1531  C1535   1.390   .     A
C1532  C1536   1.387   .     A
C1532  C1534   1.411   .     A
C1533  C663    1.422   1_556 S
C1535  C690    1.392   1_556 S
N1541  Zn1551  2.033   .     S
N1542  Zn1552  2.033   .     S
O1543  Zn1551  2.005   .     S
O1544  Zn1552  2.005   .     S
O1545  Zn1552  2.014   .     S
O1546  Zn1551  2.014   .     S
O1547  Zn1551  1.966   .     S
O1548  Zn1552  1.966   .     S
O1549  Zn1552  1.933   .     S
O1550  Zn1551  1.933   .     S
C1553  N1554   1.157   .     T
C1555  N1556   1.156   .     T
C1557  N1558   1.156   .     T
C1559  N1560   1.157   .     T
O1561  C1562   1.413   .     S
C1562  H1564   1.110   .     S
C1562  H1657   1.112   .     S
C1562  H1659   1.109   .     S
O1566  C1567   1.413   .     S
C1567  H1568   1.112   .     S
H1569  C1661   1.108   .     S
H1570  C1661   1.114   .     S
O1571  C1572   1.414   .     S
C1572  H1575   1.109   .     S
C1572  H1573   1.113   .     S
C1572  H1574   1.114   .     S
O1576  C1577   1.412   .     S
C1577  H1578   1.113   .     S
C1577  H1579   1.114   .     S
C1577  H1580   1.109   .     S
C1581  N1582   1.157   .     T
C1583  N1584   1.156   .     T
C1585  N1586   1.157   .     T
C1587  N1588   1.157   .     T
O1589  C1684   1.408   .     S
C1590  H1592   1.110   .     S
C1590  H1591   1.110   .     S
H1593  C1684   1.109   .     S
O1594  C1595   1.410   .     S
C1595  H1598   1.109   .     S
H1596  C1689   1.111   .     S
H1597  C1689   1.111   .     S
C1599  C1610   1.446   .     S
C1599  O1639   1.296   .     A
C1599  O1637   1.300   .     A
C1600  C1609   1.453   .     S
C1600  O1640   1.299   .     A
C1600  O1638   1.300   .     A
C1601  H1631   1.086   .     S
C1601  C1603   1.398   .     A
C1601  C1630   1.404   .     A
C1602  H1632   1.086   .     S
C1602  C1604   1.400   .     A
C1602  C1629   1.405   .     A
C1603  C1647   1.442   .     S
C1604  C1649   1.441   .     S
C1604  C782    1.423   1_556 S
C1605  C1675   1.455   .     S
C1605  C1610   1.406   .     A
C1605  C1043   1.381   1_565 S
C1606  C1677   1.452   .     S
C1606  C1609   1.418   .     A
C1607  C1609   1.417   .     A
C1607  C1679   1.455   .     S
C1608  C1681   1.456   .     S
C1608  C1610   1.405   .     A
C1608  C1042   1.383   1_565 S
C1611  N1636   1.371   .     A
C1611  O1683   1.396   .     S
C1611  C1425   1.447   1_655 S
C1612  O1688   1.393   .     S
C1612  N1635   1.371   .     A
C1613  H1633   1.078   .     S
C1613  N1635   1.368   .     A
C1614  N1636   1.368   .     A
C1614  H1634   1.080   .     S
C1614  C1424   1.444   1_655 S
C1615  O1643   1.303   .     A
C1615  O1641   1.305   .     A
C1615  C1617   1.470   .     S
C1616  O1644   1.306   .     A
C1616  O1642   1.299   .     A
C1616  C1618   1.466   .     S
C1617  C1621   1.413   .     A
C1617  C1623   1.404   .     A
C1618  C1622   1.413   .     A
C1618  C1624   1.395   .     A
C1619  O1665   1.374   .     S
C1619  C1621   1.405   .     A
C1619  C1627   1.405   .     A
C1620  C1622   1.406   .     A
C1620  O1670   1.375   .     S
C1620  C1628   1.407   .     A
C1621  O1660   1.379   .     S
C1622  O1655   1.380   .     S
C1623  C1653   1.455   .     S
C1623  C1625   1.397   .     A
C1624  C1651   1.452   .     S
C1624  C1626   1.394   .     A
C1625  C1627   1.411   .     A
C1625  C1629   1.390   .     A
C1626  C1630   1.387   .     A
C1626  C1628   1.411   .     A
C1627  C757    1.422   1_556 S
C1629  C784    1.392   1_556 S
N1635  Zn1645  2.033   .     S
N1636  Zn1646  2.033   .     S
O1637  Zn1645  2.005   .     S
O1638  Zn1646  2.005   .     S
O1639  Zn1646  2.014   .     S
O1640  Zn1645  2.014   .     S
O1641  Zn1645  1.966   .     S
O1642  Zn1646  1.966   .     S
O1643  Zn1646  1.933   .     S
O1644  Zn1645  1.933   .     S
C1647  N1648   1.157   .     T
C1649  N1650   1.156   .     T
C1651  N1652   1.156   .     T
C1653  N1654   1.157   .     T
O1655  C1656   1.413   .     S
C1656  H1658   1.110   .     S
C1656  H1469   1.112   1_655 S
C1656  H1471   1.109   1_655 S
O1660  C1661   1.413   .     S
C1661  H1662   1.112   .     S
H1663  C1473   1.108   1_655 S
H1664  C1473   1.114   1_655 S
O1665  C1666   1.414   .     S
C1666  H1669   1.109   .     S
C1666  H1667   1.113   .     S
C1666  H1668   1.114   .     S
O1670  C1671   1.412   .     S
C1671  H1672   1.113   .     S
C1671  H1673   1.114   .     S
C1671  H1674   1.109   .     S
C1675  N1676   1.157   .     T
C1677  N1678   1.156   .     T
C1679  N1680   1.157   .     T
C1681  N1682   1.157   .     T
O1683  C1496   1.408   1_655 S
C1684  H1686   1.110   .     S
C1684  H1685   1.110   .     S
H1687  C1496   1.109   1_655 S
O1688  C1689   1.410   .     S
C1689  H1692   1.109   .     S
H1690  C1501   1.111   1_655 S
H1691  C1501   1.111   1_655 S
