data_str_m3_o1_o5_pcu_sym.43
_audit_creation_date              2020-01-03
_audit_creation_method            'Materials Studio'
_symmetry_space_group_name_H-M    'P1'
_symmetry_Int_Tables_number       1
_symmetry_cell_setting            triclinic
loop_
_symmetry_equiv_pos_as_xyz
  x,y,z
_cell_length_a                    32.0978
_cell_length_b                    30.2920
_cell_length_c                    26.8206
_cell_angle_alpha                 91.0514
_cell_angle_beta                  95.2856
_cell_angle_gamma                 89.2024
loop_
_atom_site_label
_atom_site_type_symbol
_atom_site_fract_x
_atom_site_fract_y
_atom_site_fract_z
_atom_site_U_iso_or_equiv
_atom_site_adp_type
_atom_site_occupancy
C1     C     0.08686   0.16685   0.16619   0.00000  Uiso   1.00
C2     C     0.02181   0.20569   0.17902   0.00000  Uiso   1.00
C3     C     0.29079   0.16637   0.16739   0.00000  Uiso   1.00
C4     C     0.04255   0.16697   0.16601   0.00000  Uiso   1.00
C5     C     0.19187   0.02415   0.20189   0.00000  Uiso   1.00
C6     C     0.14153   0.30930   0.13126   0.00000  Uiso   1.00
C7     C     0.14184   0.02382   0.13108   0.00000  Uiso   1.00
C8     C     0.19096   0.30974   0.20267   0.00000  Uiso   1.00
C9     C     0.22376   0.04882   0.23750   0.00000  Uiso   1.00
C10    C     0.21284   0.05353   0.29153   0.00000  Uiso   1.00
C11    C     0.11045   0.28471   0.09441   0.00000  Uiso   1.00
C12    C     0.24648   0.16648   0.16717   0.00000  Uiso   1.00
C13    C     0.12546   0.27576   0.04287   0.00000  Uiso   1.00
C14    C     0.11381   0.04847   0.09151   0.00000  Uiso   1.00
C15    C     0.13024   0.04734   0.03967   0.00000  Uiso   1.00
C16    C     0.21619   0.28540   0.24460   0.00000  Uiso   1.00
C17    C     0.19170   0.28005   0.29028   0.00000  Uiso   1.00
C18    C     0.16663   0.16642   0.07313   0.00000  Uiso   1.00
C19    C     0.16682   0.16690   0.26022   0.00000  Uiso   1.00
C20    C     0.16680   0.16631   0.02183   0.00000  Uiso   1.00
C21    C     0.16677   0.16697   0.31152   0.00000  Uiso   1.00
C22    C     0.02084   0.12795   0.15362   0.00000  Uiso   1.00
C23    C     0.31250   0.20538   0.17981   0.00000  Uiso   1.00
C24    C     0.31153   0.12763   0.15441   0.00000  Uiso   1.00
H25    H     0.03665   0.09783   0.14311   0.00000  Uiso   1.00
H26    H     0.16005   0.27659   0.04524   0.00000  Uiso   1.00
H27    H     0.11491   0.24278   0.02849   0.00000  Uiso   1.00
H28    H     0.11138   0.29910   0.01495   0.00000  Uiso   1.00
H29    H     0.10383   0.25286   0.10845   0.00000  Uiso   1.00
H30    H     0.07902   0.30037   0.09104   0.00000  Uiso   1.00
H31    H     0.13967   0.08038   0.02858   0.00000  Uiso   1.00
H32    H     0.15783   0.02506   0.03852   0.00000  Uiso   1.00
H33    H     0.10495   0.03748   0.01080   0.00000  Uiso   1.00
H34    H     0.08124   0.03659   0.08928   0.00000  Uiso   1.00
H35    H     0.10972   0.08293   0.10162   0.00000  Uiso   1.00
H36    H     0.29668   0.23550   0.19033   0.00000  Uiso   1.00
H37    H     0.15776   0.27605   0.27916   0.00000  Uiso   1.00
H38    H     0.20407   0.25098   0.31174   0.00000  Uiso   1.00
H39    H     0.19510   0.30822   0.31644   0.00000  Uiso   1.00
H40    H     0.22544   0.25264   0.23180   0.00000  Uiso   1.00
H41    H     0.24665   0.30076   0.25630   0.00000  Uiso   1.00
H42    H     0.29491   0.09740   0.14436   0.00000  Uiso   1.00
H43    H     0.03844   0.23593   0.18907   0.00000  Uiso   1.00
H44    H     0.21902   0.08761   0.30608   0.00000  Uiso   1.00
H45    H     0.17927   0.04677   0.29387   0.00000  Uiso   1.00
H46    H     0.23350   0.03191   0.31615   0.00000  Uiso   1.00
H47    H     0.25571   0.03484   0.23560   0.00000  Uiso   1.00
H48    H     0.22695   0.08211   0.22585   0.00000  Uiso   1.00
N49    N     0.16667   0.28573   0.16667   0.00000  Uiso   1.00
N50    N     0.16667   0.04760   0.16667   0.00000  Uiso   1.00
O51    O     0.10559   0.20487   0.16666   0.00000  Uiso   1.00
O52    O     0.22774   0.12846   0.16667   0.00000  Uiso   1.00
O53    O     0.22774   0.20487   0.16667   0.00000  Uiso   1.00
O54    O     0.10559   0.12846   0.16666   0.00000  Uiso   1.00
O55    O     0.16667   0.20488   0.09511   0.00000  Uiso   1.00
O56    O     0.16666   0.12845   0.23822   0.00000  Uiso   1.00
O57    O     0.16666   0.20488   0.23822   0.00000  Uiso   1.00
O58    O     0.16667   0.12845   0.09511   0.00000  Uiso   1.00
Zn59   Zn    0.16667   0.21771   0.16667   0.00000  Uiso   1.00
Zn60   Zn    0.16667   0.11563   0.16667   0.00000  Uiso   1.00
C61    C     0.42019   0.16685   0.16619   0.00000  Uiso   1.00
C62    C     0.35514   0.20569   0.17902   0.00000  Uiso   1.00
C63    C     0.62412   0.16637   0.16739   0.00000  Uiso   1.00
C64    C     0.37588   0.16697   0.16601   0.00000  Uiso   1.00
C65    C     0.52521   0.02415   0.20189   0.00000  Uiso   1.00
C66    C     0.47486   0.30930   0.13126   0.00000  Uiso   1.00
C67    C     0.47517   0.02382   0.13108   0.00000  Uiso   1.00
C68    C     0.52429   0.30974   0.20267   0.00000  Uiso   1.00
C69    C     0.55709   0.04882   0.23750   0.00000  Uiso   1.00
C70    C     0.54618   0.05353   0.29153   0.00000  Uiso   1.00
C71    C     0.44378   0.28471   0.09441   0.00000  Uiso   1.00
C72    C     0.57981   0.16648   0.16717   0.00000  Uiso   1.00
C73    C     0.45879   0.27576   0.04287   0.00000  Uiso   1.00
C74    C     0.44714   0.04847   0.09151   0.00000  Uiso   1.00
C75    C     0.46357   0.04734   0.03967   0.00000  Uiso   1.00
C76    C     0.54953   0.28540   0.24460   0.00000  Uiso   1.00
C77    C     0.52503   0.28005   0.29028   0.00000  Uiso   1.00
C78    C     0.49996   0.16642   0.07313   0.00000  Uiso   1.00
C79    C     0.50015   0.16690   0.26022   0.00000  Uiso   1.00
C80    C     0.50013   0.16631   0.02183   0.00000  Uiso   1.00
C81    C     0.50010   0.16697   0.31152   0.00000  Uiso   1.00
C82    C     0.35417   0.12795   0.15362   0.00000  Uiso   1.00
C83    C     0.64583   0.20538   0.17981   0.00000  Uiso   1.00
C84    C     0.64487   0.12763   0.15441   0.00000  Uiso   1.00
H85    H     0.36999   0.09783   0.14311   0.00000  Uiso   1.00
H86    H     0.49338   0.27659   0.04524   0.00000  Uiso   1.00
H87    H     0.44825   0.24278   0.02849   0.00000  Uiso   1.00
H88    H     0.44471   0.29910   0.01495   0.00000  Uiso   1.00
H89    H     0.43716   0.25286   0.10845   0.00000  Uiso   1.00
H90    H     0.41235   0.30037   0.09104   0.00000  Uiso   1.00
H91    H     0.47300   0.08038   0.02858   0.00000  Uiso   1.00
H92    H     0.49116   0.02506   0.03852   0.00000  Uiso   1.00
H93    H     0.43828   0.03748   0.01080   0.00000  Uiso   1.00
H94    H     0.41457   0.03659   0.08928   0.00000  Uiso   1.00
H95    H     0.44305   0.08293   0.10162   0.00000  Uiso   1.00
H96    H     0.63001   0.23550   0.19033   0.00000  Uiso   1.00
H97    H     0.49109   0.27605   0.27916   0.00000  Uiso   1.00
H98    H     0.53740   0.25098   0.31174   0.00000  Uiso   1.00
H99    H     0.52843   0.30822   0.31644   0.00000  Uiso   1.00
H100   H     0.55878   0.25264   0.23180   0.00000  Uiso   1.00
H101   H     0.57998   0.30076   0.25630   0.00000  Uiso   1.00
H102   H     0.62824   0.09740   0.14436   0.00000  Uiso   1.00
H103   H     0.37177   0.23593   0.18907   0.00000  Uiso   1.00
H104   H     0.55236   0.08761   0.30608   0.00000  Uiso   1.00
H105   H     0.51260   0.04677   0.29387   0.00000  Uiso   1.00
H106   H     0.56684   0.03191   0.31615   0.00000  Uiso   1.00
H107   H     0.58904   0.03484   0.23560   0.00000  Uiso   1.00
H108   H     0.56028   0.08211   0.22585   0.00000  Uiso   1.00
N109   N     0.50000   0.28573   0.16667   0.00000  Uiso   1.00
N110   N     0.50000   0.04760   0.16667   0.00000  Uiso   1.00
O111   O     0.43892   0.20487   0.16666   0.00000  Uiso   1.00
O112   O     0.56108   0.12846   0.16667   0.00000  Uiso   1.00
O113   O     0.56108   0.20487   0.16667   0.00000  Uiso   1.00
O114   O     0.43892   0.12846   0.16666   0.00000  Uiso   1.00
O115   O     0.50000   0.20488   0.09511   0.00000  Uiso   1.00
O116   O     0.50000   0.12845   0.23822   0.00000  Uiso   1.00
O117   O     0.50000   0.20488   0.23822   0.00000  Uiso   1.00
O118   O     0.50000   0.12845   0.09511   0.00000  Uiso   1.00
Zn119  Zn    0.50000   0.21771   0.16667   0.00000  Uiso   1.00
Zn120  Zn    0.50000   0.11563   0.16667   0.00000  Uiso   1.00
C121   C     0.75352   0.16685   0.16619   0.00000  Uiso   1.00
C122   C     0.68847   0.20569   0.17902   0.00000  Uiso   1.00
C123   C     0.95746   0.16637   0.16739   0.00000  Uiso   1.00
C124   C     0.70921   0.16697   0.16601   0.00000  Uiso   1.00
C125   C     0.85854   0.02415   0.20189   0.00000  Uiso   1.00
C126   C     0.80820   0.30930   0.13126   0.00000  Uiso   1.00
C127   C     0.80851   0.02382   0.13108   0.00000  Uiso   1.00
C128   C     0.85763   0.30974   0.20267   0.00000  Uiso   1.00
C129   C     0.89042   0.04882   0.23750   0.00000  Uiso   1.00
C130   C     0.87951   0.05353   0.29153   0.00000  Uiso   1.00
C131   C     0.77712   0.28471   0.09441   0.00000  Uiso   1.00
C132   C     0.91315   0.16648   0.16717   0.00000  Uiso   1.00
C133   C     0.79213   0.27576   0.04287   0.00000  Uiso   1.00
C134   C     0.78047   0.04847   0.09151   0.00000  Uiso   1.00
C135   C     0.79691   0.04734   0.03967   0.00000  Uiso   1.00
C136   C     0.88286   0.28540   0.24460   0.00000  Uiso   1.00
C137   C     0.85836   0.28005   0.29028   0.00000  Uiso   1.00
C138   C     0.83329   0.16642   0.07313   0.00000  Uiso   1.00
C139   C     0.83348   0.16690   0.26022   0.00000  Uiso   1.00
C140   C     0.83346   0.16631   0.02183   0.00000  Uiso   1.00
C141   C     0.83344   0.16697   0.31152   0.00000  Uiso   1.00
C142   C     0.68751   0.12795   0.15362   0.00000  Uiso   1.00
C143   C     0.97916   0.20538   0.17981   0.00000  Uiso   1.00
C144   C     0.97820   0.12763   0.15441   0.00000  Uiso   1.00
H145   H     0.70332   0.09783   0.14311   0.00000  Uiso   1.00
H146   H     0.82671   0.27659   0.04524   0.00000  Uiso   1.00
H147   H     0.78158   0.24278   0.02849   0.00000  Uiso   1.00
H148   H     0.77804   0.29910   0.01495   0.00000  Uiso   1.00
H149   H     0.77050   0.25286   0.10845   0.00000  Uiso   1.00
H150   H     0.74568   0.30037   0.09104   0.00000  Uiso   1.00
H151   H     0.80634   0.08038   0.02858   0.00000  Uiso   1.00
H152   H     0.82449   0.02506   0.03852   0.00000  Uiso   1.00
H153   H     0.77162   0.03748   0.01080   0.00000  Uiso   1.00
H154   H     0.74791   0.03659   0.08928   0.00000  Uiso   1.00
H155   H     0.77639   0.08293   0.10162   0.00000  Uiso   1.00
H156   H     0.96335   0.23550   0.19033   0.00000  Uiso   1.00
H157   H     0.82442   0.27605   0.27916   0.00000  Uiso   1.00
H158   H     0.87074   0.25098   0.31174   0.00000  Uiso   1.00
H159   H     0.86176   0.30822   0.31644   0.00000  Uiso   1.00
H160   H     0.89211   0.25264   0.23180   0.00000  Uiso   1.00
H161   H     0.91331   0.30076   0.25630   0.00000  Uiso   1.00
H162   H     0.96157   0.09740   0.14436   0.00000  Uiso   1.00
H163   H     0.70510   0.23593   0.18907   0.00000  Uiso   1.00
H164   H     0.88569   0.08761   0.30608   0.00000  Uiso   1.00
H165   H     0.84593   0.04677   0.29387   0.00000  Uiso   1.00
H166   H     0.90017   0.03191   0.31615   0.00000  Uiso   1.00
H167   H     0.92238   0.03484   0.23560   0.00000  Uiso   1.00
H168   H     0.89362   0.08211   0.22585   0.00000  Uiso   1.00
N169   N     0.83333   0.28573   0.16667   0.00000  Uiso   1.00
N170   N     0.83333   0.04760   0.16667   0.00000  Uiso   1.00
O171   O     0.77226   0.20487   0.16666   0.00000  Uiso   1.00
O172   O     0.89441   0.12846   0.16667   0.00000  Uiso   1.00
O173   O     0.89441   0.20487   0.16667   0.00000  Uiso   1.00
O174   O     0.77226   0.12846   0.16666   0.00000  Uiso   1.00
O175   O     0.83334   0.20488   0.09511   0.00000  Uiso   1.00
O176   O     0.83333   0.12845   0.23822   0.00000  Uiso   1.00
O177   O     0.83333   0.20488   0.23822   0.00000  Uiso   1.00
O178   O     0.83334   0.12845   0.09511   0.00000  Uiso   1.00
Zn179  Zn    0.83333   0.21771   0.16667   0.00000  Uiso   1.00
Zn180  Zn    0.83333   0.11563   0.16667   0.00000  Uiso   1.00
C181   C     0.08686   0.50019   0.16619   0.00000  Uiso   1.00
C182   C     0.02181   0.53903   0.17902   0.00000  Uiso   1.00
C183   C     0.29079   0.49970   0.16739   0.00000  Uiso   1.00
C184   C     0.04255   0.50030   0.16601   0.00000  Uiso   1.00
C185   C     0.19187   0.35748   0.20189   0.00000  Uiso   1.00
C186   C     0.14153   0.64264   0.13126   0.00000  Uiso   1.00
C187   C     0.14184   0.35716   0.13108   0.00000  Uiso   1.00
C188   C     0.19096   0.64308   0.20267   0.00000  Uiso   1.00
C189   C     0.22376   0.38216   0.23750   0.00000  Uiso   1.00
C190   C     0.21284   0.38687   0.29153   0.00000  Uiso   1.00
C191   C     0.11045   0.61804   0.09441   0.00000  Uiso   1.00
C192   C     0.24648   0.49982   0.16717   0.00000  Uiso   1.00
C193   C     0.12546   0.60909   0.04287   0.00000  Uiso   1.00
C194   C     0.11381   0.38180   0.09151   0.00000  Uiso   1.00
C195   C     0.13024   0.38068   0.03967   0.00000  Uiso   1.00
C196   C     0.21619   0.61873   0.24460   0.00000  Uiso   1.00
C197   C     0.19170   0.61339   0.29028   0.00000  Uiso   1.00
C198   C     0.16663   0.49975   0.07313   0.00000  Uiso   1.00
C199   C     0.16682   0.50024   0.26022   0.00000  Uiso   1.00
C200   C     0.16680   0.49964   0.02183   0.00000  Uiso   1.00
C201   C     0.16677   0.50031   0.31152   0.00000  Uiso   1.00
C202   C     0.02084   0.46129   0.15362   0.00000  Uiso   1.00
C203   C     0.31250   0.53871   0.17981   0.00000  Uiso   1.00
C204   C     0.31153   0.46097   0.15441   0.00000  Uiso   1.00
H205   H     0.03665   0.43116   0.14311   0.00000  Uiso   1.00
H206   H     0.16005   0.60993   0.04524   0.00000  Uiso   1.00
H207   H     0.11491   0.57611   0.02849   0.00000  Uiso   1.00
H208   H     0.11138   0.63244   0.01495   0.00000  Uiso   1.00
H209   H     0.10383   0.58620   0.10845   0.00000  Uiso   1.00
H210   H     0.07902   0.63370   0.09104   0.00000  Uiso   1.00
H211   H     0.13967   0.41371   0.02858   0.00000  Uiso   1.00
H212   H     0.15783   0.35839   0.03852   0.00000  Uiso   1.00
H213   H     0.10495   0.37081   0.01080   0.00000  Uiso   1.00
H214   H     0.08124   0.36992   0.08928   0.00000  Uiso   1.00
H215   H     0.10972   0.41626   0.10162   0.00000  Uiso   1.00
H216   H     0.29668   0.56883   0.19033   0.00000  Uiso   1.00
H217   H     0.15776   0.60939   0.27916   0.00000  Uiso   1.00
H218   H     0.20407   0.58431   0.31174   0.00000  Uiso   1.00
H219   H     0.19510   0.64155   0.31644   0.00000  Uiso   1.00
H220   H     0.22544   0.58597   0.23180   0.00000  Uiso   1.00
H221   H     0.24665   0.63410   0.25630   0.00000  Uiso   1.00
H222   H     0.29491   0.43073   0.14436   0.00000  Uiso   1.00
H223   H     0.03844   0.56926   0.18907   0.00000  Uiso   1.00
H224   H     0.21902   0.42095   0.30608   0.00000  Uiso   1.00
H225   H     0.17927   0.38011   0.29387   0.00000  Uiso   1.00
H226   H     0.23350   0.36524   0.31615   0.00000  Uiso   1.00
H227   H     0.25571   0.36817   0.23560   0.00000  Uiso   1.00
H228   H     0.22695   0.41544   0.22585   0.00000  Uiso   1.00
N229   N     0.16667   0.61907   0.16667   0.00000  Uiso   1.00
N230   N     0.16667   0.38093   0.16667   0.00000  Uiso   1.00
O231   O     0.10559   0.53821   0.16666   0.00000  Uiso   1.00
O232   O     0.22774   0.46179   0.16667   0.00000  Uiso   1.00
O233   O     0.22774   0.53821   0.16667   0.00000  Uiso   1.00
O234   O     0.10559   0.46179   0.16666   0.00000  Uiso   1.00
O235   O     0.16667   0.53821   0.09511   0.00000  Uiso   1.00
O236   O     0.16666   0.46179   0.23822   0.00000  Uiso   1.00
O237   O     0.16666   0.53821   0.23822   0.00000  Uiso   1.00
O238   O     0.16667   0.46179   0.09511   0.00000  Uiso   1.00
Zn239  Zn    0.16667   0.55104   0.16667   0.00000  Uiso   1.00
Zn240  Zn    0.16667   0.44896   0.16667   0.00000  Uiso   1.00
C241   C     0.42019   0.50019   0.16619   0.00000  Uiso   1.00
C242   C     0.35514   0.53903   0.17902   0.00000  Uiso   1.00
C243   C     0.62412   0.49970   0.16739   0.00000  Uiso   1.00
C244   C     0.37588   0.50030   0.16601   0.00000  Uiso   1.00
C245   C     0.52521   0.35748   0.20189   0.00000  Uiso   1.00
C246   C     0.47486   0.64264   0.13126   0.00000  Uiso   1.00
C247   C     0.47517   0.35716   0.13108   0.00000  Uiso   1.00
C248   C     0.52429   0.64308   0.20267   0.00000  Uiso   1.00
C249   C     0.55709   0.38216   0.23750   0.00000  Uiso   1.00
C250   C     0.54618   0.38687   0.29153   0.00000  Uiso   1.00
C251   C     0.44378   0.61804   0.09441   0.00000  Uiso   1.00
C252   C     0.57981   0.49982   0.16717   0.00000  Uiso   1.00
C253   C     0.45879   0.60909   0.04287   0.00000  Uiso   1.00
C254   C     0.44714   0.38180   0.09151   0.00000  Uiso   1.00
C255   C     0.46357   0.38068   0.03967   0.00000  Uiso   1.00
C256   C     0.54953   0.61873   0.24460   0.00000  Uiso   1.00
C257   C     0.52503   0.61339   0.29028   0.00000  Uiso   1.00
C258   C     0.49996   0.49975   0.07313   0.00000  Uiso   1.00
C259   C     0.50015   0.50024   0.26022   0.00000  Uiso   1.00
C260   C     0.50013   0.49964   0.02183   0.00000  Uiso   1.00
C261   C     0.50010   0.50031   0.31152   0.00000  Uiso   1.00
C262   C     0.35417   0.46129   0.15362   0.00000  Uiso   1.00
C263   C     0.64583   0.53871   0.17981   0.00000  Uiso   1.00
C264   C     0.64487   0.46097   0.15441   0.00000  Uiso   1.00
H265   H     0.36999   0.43116   0.14311   0.00000  Uiso   1.00
H266   H     0.49338   0.60993   0.04524   0.00000  Uiso   1.00
H267   H     0.44825   0.57611   0.02849   0.00000  Uiso   1.00
H268   H     0.44471   0.63244   0.01495   0.00000  Uiso   1.00
H269   H     0.43716   0.58620   0.10845   0.00000  Uiso   1.00
H270   H     0.41235   0.63370   0.09104   0.00000  Uiso   1.00
H271   H     0.47300   0.41371   0.02858   0.00000  Uiso   1.00
H272   H     0.49116   0.35839   0.03852   0.00000  Uiso   1.00
H273   H     0.43828   0.37081   0.01080   0.00000  Uiso   1.00
H274   H     0.41457   0.36992   0.08928   0.00000  Uiso   1.00
H275   H     0.44305   0.41626   0.10162   0.00000  Uiso   1.00
H276   H     0.63001   0.56883   0.19033   0.00000  Uiso   1.00
H277   H     0.49109   0.60939   0.27916   0.00000  Uiso   1.00
H278   H     0.53740   0.58431   0.31174   0.00000  Uiso   1.00
H279   H     0.52843   0.64155   0.31644   0.00000  Uiso   1.00
H280   H     0.55878   0.58597   0.23180   0.00000  Uiso   1.00
H281   H     0.57998   0.63410   0.25630   0.00000  Uiso   1.00
H282   H     0.62824   0.43073   0.14436   0.00000  Uiso   1.00
H283   H     0.37177   0.56926   0.18907   0.00000  Uiso   1.00
H284   H     0.55236   0.42095   0.30608   0.00000  Uiso   1.00
H285   H     0.51260   0.38011   0.29387   0.00000  Uiso   1.00
H286   H     0.56684   0.36524   0.31615   0.00000  Uiso   1.00
H287   H     0.58904   0.36817   0.23560   0.00000  Uiso   1.00
H288   H     0.56028   0.41544   0.22585   0.00000  Uiso   1.00
N289   N     0.50000   0.61907   0.16667   0.00000  Uiso   1.00
N290   N     0.50000   0.38093   0.16667   0.00000  Uiso   1.00
O291   O     0.43892   0.53821   0.16666   0.00000  Uiso   1.00
O292   O     0.56108   0.46179   0.16667   0.00000  Uiso   1.00
O293   O     0.56108   0.53821   0.16667   0.00000  Uiso   1.00
O294   O     0.43892   0.46179   0.16666   0.00000  Uiso   1.00
O295   O     0.50000   0.53821   0.09511   0.00000  Uiso   1.00
O296   O     0.50000   0.46179   0.23822   0.00000  Uiso   1.00
O297   O     0.50000   0.53821   0.23822   0.00000  Uiso   1.00
O298   O     0.50000   0.46179   0.09511   0.00000  Uiso   1.00
Zn299  Zn    0.50000   0.55104   0.16667   0.00000  Uiso   1.00
Zn300  Zn    0.50000   0.44896   0.16667   0.00000  Uiso   1.00
C301   C     0.75352   0.50019   0.16619   0.00000  Uiso   1.00
C302   C     0.68847   0.53903   0.17902   0.00000  Uiso   1.00
C303   C     0.95746   0.49970   0.16739   0.00000  Uiso   1.00
C304   C     0.70921   0.50030   0.16601   0.00000  Uiso   1.00
C305   C     0.85854   0.35748   0.20189   0.00000  Uiso   1.00
C306   C     0.80820   0.64264   0.13126   0.00000  Uiso   1.00
C307   C     0.80851   0.35716   0.13108   0.00000  Uiso   1.00
C308   C     0.85763   0.64308   0.20267   0.00000  Uiso   1.00
C309   C     0.89042   0.38216   0.23750   0.00000  Uiso   1.00
C310   C     0.87951   0.38687   0.29153   0.00000  Uiso   1.00
C311   C     0.77712   0.61804   0.09441   0.00000  Uiso   1.00
C312   C     0.91315   0.49982   0.16717   0.00000  Uiso   1.00
C313   C     0.79213   0.60909   0.04287   0.00000  Uiso   1.00
C314   C     0.78047   0.38180   0.09151   0.00000  Uiso   1.00
C315   C     0.79691   0.38068   0.03967   0.00000  Uiso   1.00
C316   C     0.88286   0.61873   0.24460   0.00000  Uiso   1.00
C317   C     0.85836   0.61339   0.29028   0.00000  Uiso   1.00
C318   C     0.83329   0.49975   0.07313   0.00000  Uiso   1.00
C319   C     0.83348   0.50024   0.26022   0.00000  Uiso   1.00
C320   C     0.83346   0.49964   0.02183   0.00000  Uiso   1.00
C321   C     0.83344   0.50031   0.31152   0.00000  Uiso   1.00
C322   C     0.68751   0.46129   0.15362   0.00000  Uiso   1.00
C323   C     0.97916   0.53871   0.17981   0.00000  Uiso   1.00
C324   C     0.97820   0.46097   0.15441   0.00000  Uiso   1.00
H325   H     0.70332   0.43116   0.14311   0.00000  Uiso   1.00
H326   H     0.82671   0.60993   0.04524   0.00000  Uiso   1.00
H327   H     0.78158   0.57611   0.02849   0.00000  Uiso   1.00
H328   H     0.77804   0.63244   0.01495   0.00000  Uiso   1.00
H329   H     0.77050   0.58620   0.10845   0.00000  Uiso   1.00
H330   H     0.74568   0.63370   0.09104   0.00000  Uiso   1.00
H331   H     0.80634   0.41371   0.02858   0.00000  Uiso   1.00
H332   H     0.82449   0.35839   0.03852   0.00000  Uiso   1.00
H333   H     0.77162   0.37081   0.01080   0.00000  Uiso   1.00
H334   H     0.74791   0.36992   0.08928   0.00000  Uiso   1.00
H335   H     0.77639   0.41626   0.10162   0.00000  Uiso   1.00
H336   H     0.96335   0.56883   0.19033   0.00000  Uiso   1.00
H337   H     0.82442   0.60939   0.27916   0.00000  Uiso   1.00
H338   H     0.87074   0.58431   0.31174   0.00000  Uiso   1.00
H339   H     0.86176   0.64155   0.31644   0.00000  Uiso   1.00
H340   H     0.89211   0.58597   0.23180   0.00000  Uiso   1.00
H341   H     0.91331   0.63410   0.25630   0.00000  Uiso   1.00
H342   H     0.96157   0.43073   0.14436   0.00000  Uiso   1.00
H343   H     0.70510   0.56926   0.18907   0.00000  Uiso   1.00
H344   H     0.88569   0.42095   0.30608   0.00000  Uiso   1.00
H345   H     0.84593   0.38011   0.29387   0.00000  Uiso   1.00
H346   H     0.90017   0.36524   0.31615   0.00000  Uiso   1.00
H347   H     0.92238   0.36817   0.23560   0.00000  Uiso   1.00
H348   H     0.89362   0.41544   0.22585   0.00000  Uiso   1.00
N349   N     0.83333   0.61907   0.16667   0.00000  Uiso   1.00
N350   N     0.83333   0.38093   0.16667   0.00000  Uiso   1.00
O351   O     0.77226   0.53821   0.16666   0.00000  Uiso   1.00
O352   O     0.89441   0.46179   0.16667   0.00000  Uiso   1.00
O353   O     0.89441   0.53821   0.16667   0.00000  Uiso   1.00
O354   O     0.77226   0.46179   0.16666   0.00000  Uiso   1.00
O355   O     0.83334   0.53821   0.09511   0.00000  Uiso   1.00
O356   O     0.83333   0.46179   0.23822   0.00000  Uiso   1.00
O357   O     0.83333   0.53821   0.23822   0.00000  Uiso   1.00
O358   O     0.83334   0.46179   0.09511   0.00000  Uiso   1.00
Zn359  Zn    0.83333   0.55104   0.16667   0.00000  Uiso   1.00
Zn360  Zn    0.83333   0.44896   0.16667   0.00000  Uiso   1.00
C361   C     0.08686   0.83352   0.16619   0.00000  Uiso   1.00
C362   C     0.02181   0.87236   0.17902   0.00000  Uiso   1.00
C363   C     0.29079   0.83303   0.16739   0.00000  Uiso   1.00
C364   C     0.04255   0.83363   0.16601   0.00000  Uiso   1.00
C365   C     0.19187   0.69082   0.20189   0.00000  Uiso   1.00
C366   C     0.14153   0.97597   0.13126   0.00000  Uiso   1.00
C367   C     0.14184   0.69049   0.13108   0.00000  Uiso   1.00
C368   C     0.19096   0.97641   0.20267   0.00000  Uiso   1.00
C369   C     0.22376   0.71549   0.23750   0.00000  Uiso   1.00
C370   C     0.21284   0.72020   0.29153   0.00000  Uiso   1.00
C371   C     0.11045   0.95137   0.09441   0.00000  Uiso   1.00
C372   C     0.24648   0.83315   0.16717   0.00000  Uiso   1.00
C373   C     0.12546   0.94243   0.04287   0.00000  Uiso   1.00
C374   C     0.11381   0.71514   0.09151   0.00000  Uiso   1.00
C375   C     0.13024   0.71401   0.03967   0.00000  Uiso   1.00
C376   C     0.21619   0.95206   0.24460   0.00000  Uiso   1.00
C377   C     0.19170   0.94672   0.29028   0.00000  Uiso   1.00
C378   C     0.16663   0.83309   0.07313   0.00000  Uiso   1.00
C379   C     0.16682   0.83357   0.26022   0.00000  Uiso   1.00
C380   C     0.16680   0.83298   0.02183   0.00000  Uiso   1.00
C381   C     0.16677   0.83364   0.31152   0.00000  Uiso   1.00
C382   C     0.02084   0.79462   0.15362   0.00000  Uiso   1.00
C383   C     0.31250   0.87204   0.17981   0.00000  Uiso   1.00
C384   C     0.31153   0.79430   0.15441   0.00000  Uiso   1.00
H385   H     0.03665   0.76449   0.14311   0.00000  Uiso   1.00
H386   H     0.16005   0.94326   0.04524   0.00000  Uiso   1.00
H387   H     0.11491   0.90944   0.02849   0.00000  Uiso   1.00
H388   H     0.11138   0.96577   0.01495   0.00000  Uiso   1.00
H389   H     0.10383   0.91953   0.10845   0.00000  Uiso   1.00
H390   H     0.07902   0.96704   0.09104   0.00000  Uiso   1.00
H391   H     0.13967   0.74705   0.02858   0.00000  Uiso   1.00
H392   H     0.15783   0.69172   0.03852   0.00000  Uiso   1.00
H393   H     0.10495   0.70415   0.01080   0.00000  Uiso   1.00
H394   H     0.08124   0.70325   0.08928   0.00000  Uiso   1.00
H395   H     0.10972   0.74959   0.10162   0.00000  Uiso   1.00
H396   H     0.29668   0.90217   0.19033   0.00000  Uiso   1.00
H397   H     0.15776   0.94272   0.27916   0.00000  Uiso   1.00
H398   H     0.20407   0.91764   0.31174   0.00000  Uiso   1.00
H399   H     0.19510   0.97488   0.31644   0.00000  Uiso   1.00
H400   H     0.22544   0.91931   0.23180   0.00000  Uiso   1.00
H401   H     0.24665   0.96743   0.25630   0.00000  Uiso   1.00
H402   H     0.29491   0.76406   0.14436   0.00000  Uiso   1.00
H403   H     0.03844   0.90259   0.18907   0.00000  Uiso   1.00
H404   H     0.21902   0.75428   0.30608   0.00000  Uiso   1.00
H405   H     0.17927   0.71344   0.29387   0.00000  Uiso   1.00
H406   H     0.23350   0.69858   0.31615   0.00000  Uiso   1.00
H407   H     0.25571   0.70151   0.23560   0.00000  Uiso   1.00
H408   H     0.22695   0.74877   0.22585   0.00000  Uiso   1.00
N409   N     0.16667   0.95240   0.16667   0.00000  Uiso   1.00
N410   N     0.16667   0.71427   0.16667   0.00000  Uiso   1.00
O411   O     0.10559   0.87154   0.16666   0.00000  Uiso   1.00
O412   O     0.22774   0.79513   0.16667   0.00000  Uiso   1.00
O413   O     0.22774   0.87154   0.16667   0.00000  Uiso   1.00
O414   O     0.10559   0.79513   0.16666   0.00000  Uiso   1.00
O415   O     0.16667   0.87155   0.09511   0.00000  Uiso   1.00
O416   O     0.16666   0.79512   0.23822   0.00000  Uiso   1.00
O417   O     0.16666   0.87155   0.23822   0.00000  Uiso   1.00
O418   O     0.16667   0.79512   0.09511   0.00000  Uiso   1.00
Zn419  Zn    0.16667   0.88437   0.16667   0.00000  Uiso   1.00
Zn420  Zn    0.16667   0.78229   0.16667   0.00000  Uiso   1.00
C421   C     0.42019   0.83352   0.16619   0.00000  Uiso   1.00
C422   C     0.35514   0.87236   0.17902   0.00000  Uiso   1.00
C423   C     0.62412   0.83303   0.16739   0.00000  Uiso   1.00
C424   C     0.37588   0.83363   0.16601   0.00000  Uiso   1.00
C425   C     0.52521   0.69082   0.20189   0.00000  Uiso   1.00
C426   C     0.47486   0.97597   0.13126   0.00000  Uiso   1.00
C427   C     0.47517   0.69049   0.13108   0.00000  Uiso   1.00
C428   C     0.52429   0.97641   0.20267   0.00000  Uiso   1.00
C429   C     0.55709   0.71549   0.23750   0.00000  Uiso   1.00
C430   C     0.54618   0.72020   0.29153   0.00000  Uiso   1.00
C431   C     0.44378   0.95137   0.09441   0.00000  Uiso   1.00
C432   C     0.57981   0.83315   0.16717   0.00000  Uiso   1.00
C433   C     0.45879   0.94243   0.04287   0.00000  Uiso   1.00
C434   C     0.44714   0.71514   0.09151   0.00000  Uiso   1.00
C435   C     0.46357   0.71401   0.03967   0.00000  Uiso   1.00
C436   C     0.54953   0.95206   0.24460   0.00000  Uiso   1.00
C437   C     0.52503   0.94672   0.29028   0.00000  Uiso   1.00
C438   C     0.49996   0.83309   0.07313   0.00000  Uiso   1.00
C439   C     0.50015   0.83357   0.26022   0.00000  Uiso   1.00
C440   C     0.50013   0.83298   0.02183   0.00000  Uiso   1.00
C441   C     0.50010   0.83364   0.31152   0.00000  Uiso   1.00
C442   C     0.35417   0.79462   0.15362   0.00000  Uiso   1.00
C443   C     0.64583   0.87204   0.17981   0.00000  Uiso   1.00
C444   C     0.64487   0.79430   0.15441   0.00000  Uiso   1.00
H445   H     0.36999   0.76449   0.14311   0.00000  Uiso   1.00
H446   H     0.49338   0.94326   0.04524   0.00000  Uiso   1.00
H447   H     0.44825   0.90944   0.02849   0.00000  Uiso   1.00
H448   H     0.44471   0.96577   0.01495   0.00000  Uiso   1.00
H449   H     0.43716   0.91953   0.10845   0.00000  Uiso   1.00
H450   H     0.41235   0.96704   0.09104   0.00000  Uiso   1.00
H451   H     0.47300   0.74705   0.02858   0.00000  Uiso   1.00
H452   H     0.49116   0.69172   0.03852   0.00000  Uiso   1.00
H453   H     0.43828   0.70415   0.01080   0.00000  Uiso   1.00
H454   H     0.41457   0.70325   0.08928   0.00000  Uiso   1.00
H455   H     0.44305   0.74959   0.10162   0.00000  Uiso   1.00
H456   H     0.63001   0.90217   0.19033   0.00000  Uiso   1.00
H457   H     0.49109   0.94272   0.27916   0.00000  Uiso   1.00
H458   H     0.53740   0.91764   0.31174   0.00000  Uiso   1.00
H459   H     0.52843   0.97488   0.31644   0.00000  Uiso   1.00
H460   H     0.55878   0.91931   0.23180   0.00000  Uiso   1.00
H461   H     0.57998   0.96743   0.25630   0.00000  Uiso   1.00
H462   H     0.62824   0.76406   0.14436   0.00000  Uiso   1.00
H463   H     0.37177   0.90259   0.18907   0.00000  Uiso   1.00
H464   H     0.55236   0.75428   0.30608   0.00000  Uiso   1.00
H465   H     0.51260   0.71344   0.29387   0.00000  Uiso   1.00
H466   H     0.56684   0.69858   0.31615   0.00000  Uiso   1.00
H467   H     0.58904   0.70151   0.23560   0.00000  Uiso   1.00
H468   H     0.56028   0.74877   0.22585   0.00000  Uiso   1.00
N469   N     0.50000   0.95240   0.16667   0.00000  Uiso   1.00
N470   N     0.50000   0.71427   0.16667   0.00000  Uiso   1.00
O471   O     0.43892   0.87154   0.16666   0.00000  Uiso   1.00
O472   O     0.56108   0.79513   0.16667   0.00000  Uiso   1.00
O473   O     0.56108   0.87154   0.16667   0.00000  Uiso   1.00
O474   O     0.43892   0.79513   0.16666   0.00000  Uiso   1.00
O475   O     0.50000   0.87155   0.09511   0.00000  Uiso   1.00
O476   O     0.50000   0.79512   0.23822   0.00000  Uiso   1.00
O477   O     0.50000   0.87155   0.23822   0.00000  Uiso   1.00
O478   O     0.50000   0.79512   0.09511   0.00000  Uiso   1.00
Zn479  Zn    0.50000   0.88437   0.16667   0.00000  Uiso   1.00
Zn480  Zn    0.50000   0.78229   0.16667   0.00000  Uiso   1.00
C481   C     0.75352   0.83352   0.16619   0.00000  Uiso   1.00
C482   C     0.68847   0.87236   0.17902   0.00000  Uiso   1.00
C483   C     0.95746   0.83303   0.16739   0.00000  Uiso   1.00
C484   C     0.70921   0.83363   0.16601   0.00000  Uiso   1.00
C485   C     0.85854   0.69082   0.20189   0.00000  Uiso   1.00
C486   C     0.80820   0.97597   0.13126   0.00000  Uiso   1.00
C487   C     0.80851   0.69049   0.13108   0.00000  Uiso   1.00
C488   C     0.85763   0.97641   0.20267   0.00000  Uiso   1.00
C489   C     0.89042   0.71549   0.23750   0.00000  Uiso   1.00
C490   C     0.87951   0.72020   0.29153   0.00000  Uiso   1.00
C491   C     0.77712   0.95137   0.09441   0.00000  Uiso   1.00
C492   C     0.91315   0.83315   0.16717   0.00000  Uiso   1.00
C493   C     0.79213   0.94243   0.04287   0.00000  Uiso   1.00
C494   C     0.78047   0.71514   0.09151   0.00000  Uiso   1.00
C495   C     0.79691   0.71401   0.03967   0.00000  Uiso   1.00
C496   C     0.88286   0.95206   0.24460   0.00000  Uiso   1.00
C497   C     0.85836   0.94672   0.29028   0.00000  Uiso   1.00
C498   C     0.83329   0.83309   0.07313   0.00000  Uiso   1.00
C499   C     0.83348   0.83357   0.26022   0.00000  Uiso   1.00
C500   C     0.83346   0.83298   0.02183   0.00000  Uiso   1.00
C501   C     0.83344   0.83364   0.31152   0.00000  Uiso   1.00
C502   C     0.68751   0.79462   0.15362   0.00000  Uiso   1.00
C503   C     0.97916   0.87204   0.17981   0.00000  Uiso   1.00
C504   C     0.97820   0.79430   0.15441   0.00000  Uiso   1.00
H505   H     0.70332   0.76449   0.14311   0.00000  Uiso   1.00
H506   H     0.82671   0.94326   0.04524   0.00000  Uiso   1.00
H507   H     0.78158   0.90944   0.02849   0.00000  Uiso   1.00
H508   H     0.77804   0.96577   0.01495   0.00000  Uiso   1.00
H509   H     0.77050   0.91953   0.10845   0.00000  Uiso   1.00
H510   H     0.74568   0.96704   0.09104   0.00000  Uiso   1.00
H511   H     0.80634   0.74705   0.02858   0.00000  Uiso   1.00
H512   H     0.82449   0.69172   0.03852   0.00000  Uiso   1.00
H513   H     0.77162   0.70415   0.01080   0.00000  Uiso   1.00
H514   H     0.74791   0.70325   0.08928   0.00000  Uiso   1.00
H515   H     0.77639   0.74959   0.10162   0.00000  Uiso   1.00
H516   H     0.96335   0.90217   0.19033   0.00000  Uiso   1.00
H517   H     0.82442   0.94272   0.27916   0.00000  Uiso   1.00
H518   H     0.87074   0.91764   0.31174   0.00000  Uiso   1.00
H519   H     0.86176   0.97488   0.31644   0.00000  Uiso   1.00
H520   H     0.89211   0.91931   0.23180   0.00000  Uiso   1.00
H521   H     0.91331   0.96743   0.25630   0.00000  Uiso   1.00
H522   H     0.96157   0.76406   0.14436   0.00000  Uiso   1.00
H523   H     0.70510   0.90259   0.18907   0.00000  Uiso   1.00
H524   H     0.88569   0.75428   0.30608   0.00000  Uiso   1.00
H525   H     0.84593   0.71344   0.29387   0.00000  Uiso   1.00
H526   H     0.90017   0.69858   0.31615   0.00000  Uiso   1.00
H527   H     0.92238   0.70151   0.23560   0.00000  Uiso   1.00
H528   H     0.89362   0.74877   0.22585   0.00000  Uiso   1.00
N529   N     0.83333   0.95240   0.16667   0.00000  Uiso   1.00
N530   N     0.83333   0.71427   0.16667   0.00000  Uiso   1.00
O531   O     0.77226   0.87154   0.16666   0.00000  Uiso   1.00
O532   O     0.89441   0.79513   0.16667   0.00000  Uiso   1.00
O533   O     0.89441   0.87154   0.16667   0.00000  Uiso   1.00
O534   O     0.77226   0.79513   0.16666   0.00000  Uiso   1.00
O535   O     0.83334   0.87155   0.09511   0.00000  Uiso   1.00
O536   O     0.83333   0.79512   0.23822   0.00000  Uiso   1.00
O537   O     0.83333   0.87155   0.23822   0.00000  Uiso   1.00
O538   O     0.83334   0.79512   0.09511   0.00000  Uiso   1.00
Zn539  Zn    0.83333   0.88437   0.16667   0.00000  Uiso   1.00
Zn540  Zn    0.83333   0.78229   0.16667   0.00000  Uiso   1.00
C541   C     0.08686   0.16685   0.49952   0.00000  Uiso   1.00
C542   C     0.02181   0.20569   0.51235   0.00000  Uiso   1.00
C543   C     0.29079   0.16637   0.50073   0.00000  Uiso   1.00
C544   C     0.04255   0.16697   0.49934   0.00000  Uiso   1.00
C545   C     0.19187   0.02415   0.53522   0.00000  Uiso   1.00
C546   C     0.14153   0.30930   0.46459   0.00000  Uiso   1.00
C547   C     0.14184   0.02382   0.46442   0.00000  Uiso   1.00
C548   C     0.19096   0.30974   0.53601   0.00000  Uiso   1.00
C549   C     0.22376   0.04882   0.57083   0.00000  Uiso   1.00
C550   C     0.21284   0.05353   0.62486   0.00000  Uiso   1.00
C551   C     0.11045   0.28471   0.42775   0.00000  Uiso   1.00
C552   C     0.24648   0.16648   0.50050   0.00000  Uiso   1.00
C553   C     0.12546   0.27576   0.37620   0.00000  Uiso   1.00
C554   C     0.11381   0.04847   0.42484   0.00000  Uiso   1.00
C555   C     0.13024   0.04734   0.37300   0.00000  Uiso   1.00
C556   C     0.21619   0.28540   0.57794   0.00000  Uiso   1.00
C557   C     0.19170   0.28005   0.62362   0.00000  Uiso   1.00
C558   C     0.16663   0.16642   0.40646   0.00000  Uiso   1.00
C559   C     0.16682   0.16690   0.59355   0.00000  Uiso   1.00
C560   C     0.16680   0.16631   0.35516   0.00000  Uiso   1.00
C561   C     0.16677   0.16697   0.64485   0.00000  Uiso   1.00
C562   C     0.02084   0.12795   0.48695   0.00000  Uiso   1.00
C563   C     0.31250   0.20538   0.51314   0.00000  Uiso   1.00
C564   C     0.31153   0.12763   0.48774   0.00000  Uiso   1.00
H565   H     0.03665   0.09783   0.47644   0.00000  Uiso   1.00
H566   H     0.16005   0.27659   0.37858   0.00000  Uiso   1.00
H567   H     0.11491   0.24278   0.36182   0.00000  Uiso   1.00
H568   H     0.11138   0.29910   0.34828   0.00000  Uiso   1.00
H569   H     0.10383   0.25286   0.44178   0.00000  Uiso   1.00
H570   H     0.07902   0.30037   0.42437   0.00000  Uiso   1.00
H571   H     0.13967   0.08038   0.36192   0.00000  Uiso   1.00
H572   H     0.15783   0.02506   0.37185   0.00000  Uiso   1.00
H573   H     0.10495   0.03748   0.34414   0.00000  Uiso   1.00
H574   H     0.08124   0.03659   0.42261   0.00000  Uiso   1.00
H575   H     0.10972   0.08293   0.43495   0.00000  Uiso   1.00
H576   H     0.29668   0.23550   0.52367   0.00000  Uiso   1.00
H577   H     0.15776   0.27605   0.61250   0.00000  Uiso   1.00
H578   H     0.20407   0.25098   0.64507   0.00000  Uiso   1.00
H579   H     0.19510   0.30822   0.64977   0.00000  Uiso   1.00
H580   H     0.22544   0.25264   0.56514   0.00000  Uiso   1.00
H581   H     0.24665   0.30076   0.58963   0.00000  Uiso   1.00
H582   H     0.29491   0.09740   0.47770   0.00000  Uiso   1.00
H583   H     0.03844   0.23593   0.52240   0.00000  Uiso   1.00
H584   H     0.21902   0.08761   0.63942   0.00000  Uiso   1.00
H585   H     0.17927   0.04677   0.62720   0.00000  Uiso   1.00
H586   H     0.23350   0.03191   0.64948   0.00000  Uiso   1.00
H587   H     0.25571   0.03484   0.56893   0.00000  Uiso   1.00
H588   H     0.22695   0.08211   0.55918   0.00000  Uiso   1.00
N589   N     0.16667   0.28573   0.50000   0.00000  Uiso   1.00
N590   N     0.16667   0.04760   0.50000   0.00000  Uiso   1.00
O591   O     0.10559   0.20487   0.50000   0.00000  Uiso   1.00
O592   O     0.22774   0.12846   0.50000   0.00000  Uiso   1.00
O593   O     0.22774   0.20487   0.50000   0.00000  Uiso   1.00
O594   O     0.10559   0.12846   0.50000   0.00000  Uiso   1.00
O595   O     0.16667   0.20488   0.42845   0.00000  Uiso   1.00
O596   O     0.16666   0.12845   0.57155   0.00000  Uiso   1.00
O597   O     0.16666   0.20488   0.57155   0.00000  Uiso   1.00
O598   O     0.16667   0.12845   0.42845   0.00000  Uiso   1.00
Zn599  Zn    0.16667   0.21771   0.50000   0.00000  Uiso   1.00
Zn600  Zn    0.16667   0.11563   0.50000   0.00000  Uiso   1.00
C601   C     0.42019   0.16685   0.49952   0.00000  Uiso   1.00
C602   C     0.35514   0.20569   0.51235   0.00000  Uiso   1.00
C603   C     0.62412   0.16637   0.50073   0.00000  Uiso   1.00
C604   C     0.37588   0.16697   0.49934   0.00000  Uiso   1.00
C605   C     0.52521   0.02415   0.53522   0.00000  Uiso   1.00
C606   C     0.47486   0.30930   0.46459   0.00000  Uiso   1.00
C607   C     0.47517   0.02382   0.46442   0.00000  Uiso   1.00
C608   C     0.52429   0.30974   0.53601   0.00000  Uiso   1.00
C609   C     0.55709   0.04882   0.57083   0.00000  Uiso   1.00
C610   C     0.54618   0.05353   0.62486   0.00000  Uiso   1.00
C611   C     0.44378   0.28471   0.42775   0.00000  Uiso   1.00
C612   C     0.57981   0.16648   0.50050   0.00000  Uiso   1.00
C613   C     0.45879   0.27576   0.37620   0.00000  Uiso   1.00
C614   C     0.44714   0.04847   0.42484   0.00000  Uiso   1.00
C615   C     0.46357   0.04734   0.37300   0.00000  Uiso   1.00
C616   C     0.54953   0.28540   0.57794   0.00000  Uiso   1.00
C617   C     0.52503   0.28005   0.62362   0.00000  Uiso   1.00
C618   C     0.49996   0.16642   0.40646   0.00000  Uiso   1.00
C619   C     0.50015   0.16690   0.59355   0.00000  Uiso   1.00
C620   C     0.50013   0.16631   0.35516   0.00000  Uiso   1.00
C621   C     0.50010   0.16697   0.64485   0.00000  Uiso   1.00
C622   C     0.35417   0.12795   0.48695   0.00000  Uiso   1.00
C623   C     0.64583   0.20538   0.51314   0.00000  Uiso   1.00
C624   C     0.64487   0.12763   0.48774   0.00000  Uiso   1.00
H625   H     0.36999   0.09783   0.47644   0.00000  Uiso   1.00
H626   H     0.49338   0.27659   0.37858   0.00000  Uiso   1.00
H627   H     0.44825   0.24278   0.36182   0.00000  Uiso   1.00
H628   H     0.44471   0.29910   0.34828   0.00000  Uiso   1.00
H629   H     0.43716   0.25286   0.44178   0.00000  Uiso   1.00
H630   H     0.41235   0.30037   0.42437   0.00000  Uiso   1.00
H631   H     0.47300   0.08038   0.36192   0.00000  Uiso   1.00
H632   H     0.49116   0.02506   0.37185   0.00000  Uiso   1.00
H633   H     0.43828   0.03748   0.34414   0.00000  Uiso   1.00
H634   H     0.41457   0.03659   0.42261   0.00000  Uiso   1.00
H635   H     0.44305   0.08293   0.43495   0.00000  Uiso   1.00
H636   H     0.63001   0.23550   0.52367   0.00000  Uiso   1.00
H637   H     0.49109   0.27605   0.61250   0.00000  Uiso   1.00
H638   H     0.53740   0.25098   0.64507   0.00000  Uiso   1.00
H639   H     0.52843   0.30822   0.64977   0.00000  Uiso   1.00
H640   H     0.55878   0.25264   0.56514   0.00000  Uiso   1.00
H641   H     0.57998   0.30076   0.58963   0.00000  Uiso   1.00
H642   H     0.62824   0.09740   0.47770   0.00000  Uiso   1.00
H643   H     0.37177   0.23593   0.52240   0.00000  Uiso   1.00
H644   H     0.55236   0.08761   0.63942   0.00000  Uiso   1.00
H645   H     0.51260   0.04677   0.62720   0.00000  Uiso   1.00
H646   H     0.56684   0.03191   0.64948   0.00000  Uiso   1.00
H647   H     0.58904   0.03484   0.56893   0.00000  Uiso   1.00
H648   H     0.56028   0.08211   0.55918   0.00000  Uiso   1.00
N649   N     0.50000   0.28573   0.50000   0.00000  Uiso   1.00
N650   N     0.50000   0.04760   0.50000   0.00000  Uiso   1.00
O651   O     0.43892   0.20487   0.50000   0.00000  Uiso   1.00
O652   O     0.56108   0.12846   0.50000   0.00000  Uiso   1.00
O653   O     0.56108   0.20487   0.50000   0.00000  Uiso   1.00
O654   O     0.43892   0.12846   0.50000   0.00000  Uiso   1.00
O655   O     0.50000   0.20488   0.42845   0.00000  Uiso   1.00
O656   O     0.50000   0.12845   0.57155   0.00000  Uiso   1.00
O657   O     0.50000   0.20488   0.57155   0.00000  Uiso   1.00
O658   O     0.50000   0.12845   0.42845   0.00000  Uiso   1.00
Zn659  Zn    0.50000   0.21771   0.50000   0.00000  Uiso   1.00
Zn660  Zn    0.50000   0.11563   0.50000   0.00000  Uiso   1.00
C661   C     0.75352   0.16685   0.49952   0.00000  Uiso   1.00
C662   C     0.68847   0.20569   0.51235   0.00000  Uiso   1.00
C663   C     0.95746   0.16637   0.50073   0.00000  Uiso   1.00
C664   C     0.70921   0.16697   0.49934   0.00000  Uiso   1.00
C665   C     0.85854   0.02415   0.53522   0.00000  Uiso   1.00
C666   C     0.80820   0.30930   0.46459   0.00000  Uiso   1.00
C667   C     0.80851   0.02382   0.46442   0.00000  Uiso   1.00
C668   C     0.85763   0.30974   0.53601   0.00000  Uiso   1.00
C669   C     0.89042   0.04882   0.57083   0.00000  Uiso   1.00
C670   C     0.87951   0.05353   0.62486   0.00000  Uiso   1.00
C671   C     0.77712   0.28471   0.42775   0.00000  Uiso   1.00
C672   C     0.91315   0.16648   0.50050   0.00000  Uiso   1.00
C673   C     0.79213   0.27576   0.37620   0.00000  Uiso   1.00
C674   C     0.78047   0.04847   0.42484   0.00000  Uiso   1.00
C675   C     0.79691   0.04734   0.37300   0.00000  Uiso   1.00
C676   C     0.88286   0.28540   0.57794   0.00000  Uiso   1.00
C677   C     0.85836   0.28005   0.62362   0.00000  Uiso   1.00
C678   C     0.83329   0.16642   0.40646   0.00000  Uiso   1.00
C679   C     0.83348   0.16690   0.59355   0.00000  Uiso   1.00
C680   C     0.83346   0.16631   0.35516   0.00000  Uiso   1.00
C681   C     0.83344   0.16697   0.64485   0.00000  Uiso   1.00
C682   C     0.68751   0.12795   0.48695   0.00000  Uiso   1.00
C683   C     0.97916   0.20538   0.51314   0.00000  Uiso   1.00
C684   C     0.97820   0.12763   0.48774   0.00000  Uiso   1.00
H685   H     0.70332   0.09783   0.47644   0.00000  Uiso   1.00
H686   H     0.82671   0.27659   0.37858   0.00000  Uiso   1.00
H687   H     0.78158   0.24278   0.36182   0.00000  Uiso   1.00
H688   H     0.77804   0.29910   0.34828   0.00000  Uiso   1.00
H689   H     0.77050   0.25286   0.44178   0.00000  Uiso   1.00
H690   H     0.74568   0.30037   0.42437   0.00000  Uiso   1.00
H691   H     0.80634   0.08038   0.36192   0.00000  Uiso   1.00
H692   H     0.82449   0.02506   0.37185   0.00000  Uiso   1.00
H693   H     0.77162   0.03748   0.34414   0.00000  Uiso   1.00
H694   H     0.74791   0.03659   0.42261   0.00000  Uiso   1.00
H695   H     0.77639   0.08293   0.43495   0.00000  Uiso   1.00
H696   H     0.96335   0.23550   0.52367   0.00000  Uiso   1.00
H697   H     0.82442   0.27605   0.61250   0.00000  Uiso   1.00
H698   H     0.87074   0.25098   0.64507   0.00000  Uiso   1.00
H699   H     0.86176   0.30822   0.64977   0.00000  Uiso   1.00
H700   H     0.89211   0.25264   0.56514   0.00000  Uiso   1.00
H701   H     0.91331   0.30076   0.58963   0.00000  Uiso   1.00
H702   H     0.96157   0.09740   0.47770   0.00000  Uiso   1.00
H703   H     0.70510   0.23593   0.52240   0.00000  Uiso   1.00
H704   H     0.88569   0.08761   0.63942   0.00000  Uiso   1.00
H705   H     0.84593   0.04677   0.62720   0.00000  Uiso   1.00
H706   H     0.90017   0.03191   0.64948   0.00000  Uiso   1.00
H707   H     0.92238   0.03484   0.56893   0.00000  Uiso   1.00
H708   H     0.89362   0.08211   0.55918   0.00000  Uiso   1.00
N709   N     0.83333   0.28573   0.50000   0.00000  Uiso   1.00
N710   N     0.83333   0.04760   0.50000   0.00000  Uiso   1.00
O711   O     0.77226   0.20487   0.50000   0.00000  Uiso   1.00
O712   O     0.89441   0.12846   0.50000   0.00000  Uiso   1.00
O713   O     0.89441   0.20487   0.50000   0.00000  Uiso   1.00
O714   O     0.77226   0.12846   0.50000   0.00000  Uiso   1.00
O715   O     0.83334   0.20488   0.42845   0.00000  Uiso   1.00
O716   O     0.83333   0.12845   0.57155   0.00000  Uiso   1.00
O717   O     0.83333   0.20488   0.57155   0.00000  Uiso   1.00
O718   O     0.83334   0.12845   0.42845   0.00000  Uiso   1.00
Zn719  Zn    0.83333   0.21771   0.50000   0.00000  Uiso   1.00
Zn720  Zn    0.83333   0.11563   0.50000   0.00000  Uiso   1.00
C721   C     0.08686   0.50019   0.49952   0.00000  Uiso   1.00
C722   C     0.02181   0.53903   0.51235   0.00000  Uiso   1.00
C723   C     0.29079   0.49970   0.50073   0.00000  Uiso   1.00
C724   C     0.04255   0.50030   0.49934   0.00000  Uiso   1.00
C725   C     0.19187   0.35748   0.53522   0.00000  Uiso   1.00
C726   C     0.14153   0.64264   0.46459   0.00000  Uiso   1.00
C727   C     0.14184   0.35716   0.46442   0.00000  Uiso   1.00
C728   C     0.19096   0.64308   0.53601   0.00000  Uiso   1.00
C729   C     0.22376   0.38216   0.57083   0.00000  Uiso   1.00
C730   C     0.21284   0.38687   0.62486   0.00000  Uiso   1.00
C731   C     0.11045   0.61804   0.42775   0.00000  Uiso   1.00
C732   C     0.24648   0.49982   0.50050   0.00000  Uiso   1.00
C733   C     0.12546   0.60909   0.37620   0.00000  Uiso   1.00
C734   C     0.11381   0.38180   0.42484   0.00000  Uiso   1.00
C735   C     0.13024   0.38068   0.37300   0.00000  Uiso   1.00
C736   C     0.21619   0.61873   0.57794   0.00000  Uiso   1.00
C737   C     0.19170   0.61339   0.62362   0.00000  Uiso   1.00
C738   C     0.16663   0.49975   0.40646   0.00000  Uiso   1.00
C739   C     0.16682   0.50024   0.59355   0.00000  Uiso   1.00
C740   C     0.16680   0.49964   0.35516   0.00000  Uiso   1.00
C741   C     0.16677   0.50031   0.64485   0.00000  Uiso   1.00
C742   C     0.02084   0.46129   0.48695   0.00000  Uiso   1.00
C743   C     0.31250   0.53871   0.51314   0.00000  Uiso   1.00
C744   C     0.31153   0.46097   0.48774   0.00000  Uiso   1.00
H745   H     0.03665   0.43116   0.47644   0.00000  Uiso   1.00
H746   H     0.16005   0.60993   0.37858   0.00000  Uiso   1.00
H747   H     0.11491   0.57611   0.36182   0.00000  Uiso   1.00
H748   H     0.11138   0.63244   0.34828   0.00000  Uiso   1.00
H749   H     0.10383   0.58620   0.44178   0.00000  Uiso   1.00
H750   H     0.07902   0.63370   0.42437   0.00000  Uiso   1.00
H751   H     0.13967   0.41371   0.36192   0.00000  Uiso   1.00
H752   H     0.15783   0.35839   0.37185   0.00000  Uiso   1.00
H753   H     0.10495   0.37081   0.34414   0.00000  Uiso   1.00
H754   H     0.08124   0.36992   0.42261   0.00000  Uiso   1.00
H755   H     0.10972   0.41626   0.43495   0.00000  Uiso   1.00
H756   H     0.29668   0.56883   0.52367   0.00000  Uiso   1.00
H757   H     0.15776   0.60939   0.61250   0.00000  Uiso   1.00
H758   H     0.20407   0.58431   0.64507   0.00000  Uiso   1.00
H759   H     0.19510   0.64155   0.64977   0.00000  Uiso   1.00
H760   H     0.22544   0.58597   0.56514   0.00000  Uiso   1.00
H761   H     0.24665   0.63410   0.58963   0.00000  Uiso   1.00
H762   H     0.29491   0.43073   0.47770   0.00000  Uiso   1.00
H763   H     0.03844   0.56926   0.52240   0.00000  Uiso   1.00
H764   H     0.21902   0.42095   0.63942   0.00000  Uiso   1.00
H765   H     0.17927   0.38011   0.62720   0.00000  Uiso   1.00
H766   H     0.23350   0.36524   0.64948   0.00000  Uiso   1.00
H767   H     0.25571   0.36817   0.56893   0.00000  Uiso   1.00
H768   H     0.22695   0.41544   0.55918   0.00000  Uiso   1.00
N769   N     0.16667   0.61907   0.50000   0.00000  Uiso   1.00
N770   N     0.16667   0.38093   0.50000   0.00000  Uiso   1.00
O771   O     0.10559   0.53821   0.50000   0.00000  Uiso   1.00
O772   O     0.22774   0.46179   0.50000   0.00000  Uiso   1.00
O773   O     0.22774   0.53821   0.50000   0.00000  Uiso   1.00
O774   O     0.10559   0.46179   0.50000   0.00000  Uiso   1.00
O775   O     0.16667   0.53821   0.42845   0.00000  Uiso   1.00
O776   O     0.16666   0.46179   0.57155   0.00000  Uiso   1.00
O777   O     0.16666   0.53821   0.57155   0.00000  Uiso   1.00
O778   O     0.16667   0.46179   0.42845   0.00000  Uiso   1.00
Zn779  Zn    0.16667   0.55104   0.50000   0.00000  Uiso   1.00
Zn780  Zn    0.16667   0.44896   0.50000   0.00000  Uiso   1.00
C781   C     0.42019   0.50019   0.49952   0.00000  Uiso   1.00
C782   C     0.35514   0.53903   0.51235   0.00000  Uiso   1.00
C783   C     0.62412   0.49970   0.50073   0.00000  Uiso   1.00
C784   C     0.37588   0.50030   0.49934   0.00000  Uiso   1.00
C785   C     0.52521   0.35748   0.53522   0.00000  Uiso   1.00
C786   C     0.47486   0.64264   0.46459   0.00000  Uiso   1.00
C787   C     0.47517   0.35716   0.46442   0.00000  Uiso   1.00
C788   C     0.52429   0.64308   0.53601   0.00000  Uiso   1.00
C789   C     0.55709   0.38216   0.57083   0.00000  Uiso   1.00
C790   C     0.54618   0.38687   0.62486   0.00000  Uiso   1.00
C791   C     0.44378   0.61804   0.42775   0.00000  Uiso   1.00
C792   C     0.57981   0.49982   0.50050   0.00000  Uiso   1.00
C793   C     0.45879   0.60909   0.37620   0.00000  Uiso   1.00
C794   C     0.44714   0.38180   0.42484   0.00000  Uiso   1.00
C795   C     0.46357   0.38068   0.37300   0.00000  Uiso   1.00
C796   C     0.54953   0.61873   0.57794   0.00000  Uiso   1.00
C797   C     0.52503   0.61339   0.62362   0.00000  Uiso   1.00
C798   C     0.49996   0.49975   0.40646   0.00000  Uiso   1.00
C799   C     0.50015   0.50024   0.59355   0.00000  Uiso   1.00
C800   C     0.50013   0.49964   0.35516   0.00000  Uiso   1.00
C801   C     0.50010   0.50031   0.64485   0.00000  Uiso   1.00
C802   C     0.35417   0.46129   0.48695   0.00000  Uiso   1.00
C803   C     0.64583   0.53871   0.51314   0.00000  Uiso   1.00
C804   C     0.64487   0.46097   0.48774   0.00000  Uiso   1.00
H805   H     0.36999   0.43116   0.47644   0.00000  Uiso   1.00
H806   H     0.49338   0.60993   0.37858   0.00000  Uiso   1.00
H807   H     0.44825   0.57611   0.36182   0.00000  Uiso   1.00
H808   H     0.44471   0.63244   0.34828   0.00000  Uiso   1.00
H809   H     0.43716   0.58620   0.44178   0.00000  Uiso   1.00
H810   H     0.41235   0.63370   0.42437   0.00000  Uiso   1.00
H811   H     0.47300   0.41371   0.36192   0.00000  Uiso   1.00
H812   H     0.49116   0.35839   0.37185   0.00000  Uiso   1.00
H813   H     0.43828   0.37081   0.34414   0.00000  Uiso   1.00
H814   H     0.41457   0.36992   0.42261   0.00000  Uiso   1.00
H815   H     0.44305   0.41626   0.43495   0.00000  Uiso   1.00
H816   H     0.63001   0.56883   0.52367   0.00000  Uiso   1.00
H817   H     0.49109   0.60939   0.61250   0.00000  Uiso   1.00
H818   H     0.53740   0.58431   0.64507   0.00000  Uiso   1.00
H819   H     0.52843   0.64155   0.64977   0.00000  Uiso   1.00
H820   H     0.55878   0.58597   0.56514   0.00000  Uiso   1.00
H821   H     0.57998   0.63410   0.58963   0.00000  Uiso   1.00
H822   H     0.62824   0.43073   0.47770   0.00000  Uiso   1.00
H823   H     0.37177   0.56926   0.52240   0.00000  Uiso   1.00
H824   H     0.55236   0.42095   0.63942   0.00000  Uiso   1.00
H825   H     0.51260   0.38011   0.62720   0.00000  Uiso   1.00
H826   H     0.56684   0.36524   0.64948   0.00000  Uiso   1.00
H827   H     0.58904   0.36817   0.56893   0.00000  Uiso   1.00
H828   H     0.56028   0.41544   0.55918   0.00000  Uiso   1.00
N829   N     0.50000   0.61907   0.50000   0.00000  Uiso   1.00
N830   N     0.50000   0.38093   0.50000   0.00000  Uiso   1.00
O831   O     0.43892   0.53821   0.50000   0.00000  Uiso   1.00
O832   O     0.56108   0.46179   0.50000   0.00000  Uiso   1.00
O833   O     0.56108   0.53821   0.50000   0.00000  Uiso   1.00
O834   O     0.43892   0.46179   0.50000   0.00000  Uiso   1.00
O835   O     0.50000   0.53821   0.42845   0.00000  Uiso   1.00
O836   O     0.50000   0.46179   0.57155   0.00000  Uiso   1.00
O837   O     0.50000   0.53821   0.57155   0.00000  Uiso   1.00
O838   O     0.50000   0.46179   0.42845   0.00000  Uiso   1.00
Zn839  Zn    0.50000   0.55104   0.50000   0.00000  Uiso   1.00
Zn840  Zn    0.50000   0.44896   0.50000   0.00000  Uiso   1.00
C841   C     0.75352   0.50019   0.49952   0.00000  Uiso   1.00
C842   C     0.68847   0.53903   0.51235   0.00000  Uiso   1.00
C843   C     0.95746   0.49970   0.50073   0.00000  Uiso   1.00
C844   C     0.70921   0.50030   0.49934   0.00000  Uiso   1.00
C845   C     0.85854   0.35748   0.53522   0.00000  Uiso   1.00
C846   C     0.80820   0.64264   0.46459   0.00000  Uiso   1.00
C847   C     0.80851   0.35716   0.46442   0.00000  Uiso   1.00
C848   C     0.85763   0.64308   0.53601   0.00000  Uiso   1.00
C849   C     0.89042   0.38216   0.57083   0.00000  Uiso   1.00
C850   C     0.87951   0.38687   0.62486   0.00000  Uiso   1.00
C851   C     0.77712   0.61804   0.42775   0.00000  Uiso   1.00
C852   C     0.91315   0.49982   0.50050   0.00000  Uiso   1.00
C853   C     0.79213   0.60909   0.37620   0.00000  Uiso   1.00
C854   C     0.78047   0.38180   0.42484   0.00000  Uiso   1.00
C855   C     0.79691   0.38068   0.37300   0.00000  Uiso   1.00
C856   C     0.88286   0.61873   0.57794   0.00000  Uiso   1.00
C857   C     0.85836   0.61339   0.62362   0.00000  Uiso   1.00
C858   C     0.83329   0.49975   0.40646   0.00000  Uiso   1.00
C859   C     0.83348   0.50024   0.59355   0.00000  Uiso   1.00
C860   C     0.83346   0.49964   0.35516   0.00000  Uiso   1.00
C861   C     0.83344   0.50031   0.64485   0.00000  Uiso   1.00
C862   C     0.68751   0.46129   0.48695   0.00000  Uiso   1.00
C863   C     0.97916   0.53871   0.51314   0.00000  Uiso   1.00
C864   C     0.97820   0.46097   0.48774   0.00000  Uiso   1.00
H865   H     0.70332   0.43116   0.47644   0.00000  Uiso   1.00
H866   H     0.82671   0.60993   0.37858   0.00000  Uiso   1.00
H867   H     0.78158   0.57611   0.36182   0.00000  Uiso   1.00
H868   H     0.77804   0.63244   0.34828   0.00000  Uiso   1.00
H869   H     0.77050   0.58620   0.44178   0.00000  Uiso   1.00
H870   H     0.74568   0.63370   0.42437   0.00000  Uiso   1.00
H871   H     0.80634   0.41371   0.36192   0.00000  Uiso   1.00
H872   H     0.82449   0.35839   0.37185   0.00000  Uiso   1.00
H873   H     0.77162   0.37081   0.34414   0.00000  Uiso   1.00
H874   H     0.74791   0.36992   0.42261   0.00000  Uiso   1.00
H875   H     0.77639   0.41626   0.43495   0.00000  Uiso   1.00
H876   H     0.96335   0.56883   0.52367   0.00000  Uiso   1.00
H877   H     0.82442   0.60939   0.61250   0.00000  Uiso   1.00
H878   H     0.87074   0.58431   0.64507   0.00000  Uiso   1.00
H879   H     0.86176   0.64155   0.64977   0.00000  Uiso   1.00
H880   H     0.89211   0.58597   0.56514   0.00000  Uiso   1.00
H881   H     0.91331   0.63410   0.58963   0.00000  Uiso   1.00
H882   H     0.96157   0.43073   0.47770   0.00000  Uiso   1.00
H883   H     0.70510   0.56926   0.52240   0.00000  Uiso   1.00
H884   H     0.88569   0.42095   0.63942   0.00000  Uiso   1.00
H885   H     0.84593   0.38011   0.62720   0.00000  Uiso   1.00
H886   H     0.90017   0.36524   0.64948   0.00000  Uiso   1.00
H887   H     0.92238   0.36817   0.56893   0.00000  Uiso   1.00
H888   H     0.89362   0.41544   0.55918   0.00000  Uiso   1.00
N889   N     0.83333   0.61907   0.50000   0.00000  Uiso   1.00
N890   N     0.83333   0.38093   0.50000   0.00000  Uiso   1.00
O891   O     0.77226   0.53821   0.50000   0.00000  Uiso   1.00
O892   O     0.89441   0.46179   0.50000   0.00000  Uiso   1.00
O893   O     0.89441   0.53821   0.50000   0.00000  Uiso   1.00
O894   O     0.77226   0.46179   0.50000   0.00000  Uiso   1.00
O895   O     0.83334   0.53821   0.42845   0.00000  Uiso   1.00
O896   O     0.83333   0.46179   0.57155   0.00000  Uiso   1.00
O897   O     0.83333   0.53821   0.57155   0.00000  Uiso   1.00
O898   O     0.83334   0.46179   0.42845   0.00000  Uiso   1.00
Zn899  Zn    0.83333   0.55104   0.50000   0.00000  Uiso   1.00
Zn900  Zn    0.83333   0.44896   0.50000   0.00000  Uiso   1.00
C901   C     0.08686   0.83352   0.49952   0.00000  Uiso   1.00
C902   C     0.02181   0.87236   0.51235   0.00000  Uiso   1.00
C903   C     0.29079   0.83303   0.50073   0.00000  Uiso   1.00
C904   C     0.04255   0.83363   0.49934   0.00000  Uiso   1.00
C905   C     0.19187   0.69082   0.53522   0.00000  Uiso   1.00
C906   C     0.14153   0.97597   0.46459   0.00000  Uiso   1.00
C907   C     0.14184   0.69049   0.46442   0.00000  Uiso   1.00
C908   C     0.19096   0.97641   0.53601   0.00000  Uiso   1.00
C909   C     0.22376   0.71549   0.57083   0.00000  Uiso   1.00
C910   C     0.21284   0.72020   0.62486   0.00000  Uiso   1.00
C911   C     0.11045   0.95137   0.42775   0.00000  Uiso   1.00
C912   C     0.24648   0.83315   0.50050   0.00000  Uiso   1.00
C913   C     0.12546   0.94243   0.37620   0.00000  Uiso   1.00
C914   C     0.11381   0.71514   0.42484   0.00000  Uiso   1.00
C915   C     0.13024   0.71401   0.37300   0.00000  Uiso   1.00
C916   C     0.21619   0.95206   0.57794   0.00000  Uiso   1.00
C917   C     0.19170   0.94672   0.62362   0.00000  Uiso   1.00
C918   C     0.16663   0.83309   0.40646   0.00000  Uiso   1.00
C919   C     0.16682   0.83357   0.59355   0.00000  Uiso   1.00
C920   C     0.16680   0.83298   0.35516   0.00000  Uiso   1.00
C921   C     0.16677   0.83364   0.64485   0.00000  Uiso   1.00
C922   C     0.02084   0.79462   0.48695   0.00000  Uiso   1.00
C923   C     0.31250   0.87204   0.51314   0.00000  Uiso   1.00
C924   C     0.31153   0.79430   0.48774   0.00000  Uiso   1.00
H925   H     0.03665   0.76449   0.47644   0.00000  Uiso   1.00
H926   H     0.16005   0.94326   0.37858   0.00000  Uiso   1.00
H927   H     0.11491   0.90944   0.36182   0.00000  Uiso   1.00
H928   H     0.11138   0.96577   0.34828   0.00000  Uiso   1.00
H929   H     0.10383   0.91953   0.44178   0.00000  Uiso   1.00
H930   H     0.07902   0.96704   0.42437   0.00000  Uiso   1.00
H931   H     0.13967   0.74705   0.36192   0.00000  Uiso   1.00
H932   H     0.15783   0.69172   0.37185   0.00000  Uiso   1.00
H933   H     0.10495   0.70415   0.34414   0.00000  Uiso   1.00
H934   H     0.08124   0.70325   0.42261   0.00000  Uiso   1.00
H935   H     0.10972   0.74959   0.43495   0.00000  Uiso   1.00
H936   H     0.29668   0.90217   0.52367   0.00000  Uiso   1.00
H937   H     0.15776   0.94272   0.61250   0.00000  Uiso   1.00
H938   H     0.20407   0.91764   0.64507   0.00000  Uiso   1.00
H939   H     0.19510   0.97488   0.64977   0.00000  Uiso   1.00
H940   H     0.22544   0.91931   0.56514   0.00000  Uiso   1.00
H941   H     0.24665   0.96743   0.58963   0.00000  Uiso   1.00
H942   H     0.29491   0.76406   0.47770   0.00000  Uiso   1.00
H943   H     0.03844   0.90259   0.52240   0.00000  Uiso   1.00
H944   H     0.21902   0.75428   0.63942   0.00000  Uiso   1.00
H945   H     0.17927   0.71344   0.62720   0.00000  Uiso   1.00
H946   H     0.23350   0.69858   0.64948   0.00000  Uiso   1.00
H947   H     0.25571   0.70151   0.56893   0.00000  Uiso   1.00
H948   H     0.22695   0.74877   0.55918   0.00000  Uiso   1.00
N949   N     0.16667   0.95240   0.50000   0.00000  Uiso   1.00
N950   N     0.16667   0.71427   0.50000   0.00000  Uiso   1.00
O951   O     0.10559   0.87154   0.50000   0.00000  Uiso   1.00
O952   O     0.22774   0.79513   0.50000   0.00000  Uiso   1.00
O953   O     0.22774   0.87154   0.50000   0.00000  Uiso   1.00
O954   O     0.10559   0.79513   0.50000   0.00000  Uiso   1.00
O955   O     0.16667   0.87155   0.42845   0.00000  Uiso   1.00
O956   O     0.16666   0.79512   0.57155   0.00000  Uiso   1.00
O957   O     0.16666   0.87155   0.57155   0.00000  Uiso   1.00
O958   O     0.16667   0.79512   0.42845   0.00000  Uiso   1.00
Zn959  Zn    0.16667   0.88437   0.50000   0.00000  Uiso   1.00
Zn960  Zn    0.16667   0.78229   0.50000   0.00000  Uiso   1.00
C961   C     0.42019   0.83352   0.49952   0.00000  Uiso   1.00
C962   C     0.35514   0.87236   0.51235   0.00000  Uiso   1.00
C963   C     0.62412   0.83303   0.50073   0.00000  Uiso   1.00
C964   C     0.37588   0.83363   0.49934   0.00000  Uiso   1.00
C965   C     0.52521   0.69082   0.53522   0.00000  Uiso   1.00
C966   C     0.47486   0.97597   0.46459   0.00000  Uiso   1.00
C967   C     0.47517   0.69049   0.46442   0.00000  Uiso   1.00
C968   C     0.52429   0.97641   0.53601   0.00000  Uiso   1.00
C969   C     0.55709   0.71549   0.57083   0.00000  Uiso   1.00
C970   C     0.54618   0.72020   0.62486   0.00000  Uiso   1.00
C971   C     0.44378   0.95137   0.42775   0.00000  Uiso   1.00
C972   C     0.57981   0.83315   0.50050   0.00000  Uiso   1.00
C973   C     0.45879   0.94243   0.37620   0.00000  Uiso   1.00
C974   C     0.44714   0.71514   0.42484   0.00000  Uiso   1.00
C975   C     0.46357   0.71401   0.37300   0.00000  Uiso   1.00
C976   C     0.54953   0.95206   0.57794   0.00000  Uiso   1.00
C977   C     0.52503   0.94672   0.62362   0.00000  Uiso   1.00
C978   C     0.49996   0.83309   0.40646   0.00000  Uiso   1.00
C979   C     0.50015   0.83357   0.59355   0.00000  Uiso   1.00
C980   C     0.50013   0.83298   0.35516   0.00000  Uiso   1.00
C981   C     0.50010   0.83364   0.64485   0.00000  Uiso   1.00
C982   C     0.35417   0.79462   0.48695   0.00000  Uiso   1.00
C983   C     0.64583   0.87204   0.51314   0.00000  Uiso   1.00
C984   C     0.64487   0.79430   0.48774   0.00000  Uiso   1.00
H985   H     0.36999   0.76449   0.47644   0.00000  Uiso   1.00
H986   H     0.49338   0.94326   0.37858   0.00000  Uiso   1.00
H987   H     0.44825   0.90944   0.36182   0.00000  Uiso   1.00
H988   H     0.44471   0.96577   0.34828   0.00000  Uiso   1.00
H989   H     0.43716   0.91953   0.44178   0.00000  Uiso   1.00
H990   H     0.41235   0.96704   0.42437   0.00000  Uiso   1.00
H991   H     0.47300   0.74705   0.36192   0.00000  Uiso   1.00
H992   H     0.49116   0.69172   0.37185   0.00000  Uiso   1.00
H993   H     0.43828   0.70415   0.34414   0.00000  Uiso   1.00
H994   H     0.41457   0.70325   0.42261   0.00000  Uiso   1.00
H995   H     0.44305   0.74959   0.43495   0.00000  Uiso   1.00
H996   H     0.63001   0.90217   0.52367   0.00000  Uiso   1.00
H997   H     0.49109   0.94272   0.61250   0.00000  Uiso   1.00
H998   H     0.53740   0.91764   0.64507   0.00000  Uiso   1.00
H999   H     0.52843   0.97488   0.64977   0.00000  Uiso   1.00
H1000  H     0.55878   0.91931   0.56514   0.00000  Uiso   1.00
H1001  H     0.57998   0.96743   0.58963   0.00000  Uiso   1.00
H1002  H     0.62824   0.76406   0.47770   0.00000  Uiso   1.00
H1003  H     0.37177   0.90259   0.52240   0.00000  Uiso   1.00
H1004  H     0.55236   0.75428   0.63942   0.00000  Uiso   1.00
H1005  H     0.51260   0.71344   0.62720   0.00000  Uiso   1.00
H1006  H     0.56684   0.69858   0.64948   0.00000  Uiso   1.00
H1007  H     0.58904   0.70151   0.56893   0.00000  Uiso   1.00
H1008  H     0.56028   0.74877   0.55918   0.00000  Uiso   1.00
N1009  N     0.50000   0.95240   0.50000   0.00000  Uiso   1.00
N1010  N     0.50000   0.71427   0.50000   0.00000  Uiso   1.00
O1011  O     0.43892   0.87154   0.50000   0.00000  Uiso   1.00
O1012  O     0.56108   0.79513   0.50000   0.00000  Uiso   1.00
O1013  O     0.56108   0.87154   0.50000   0.00000  Uiso   1.00
O1014  O     0.43892   0.79513   0.50000   0.00000  Uiso   1.00
O1015  O     0.50000   0.87155   0.42845   0.00000  Uiso   1.00
O1016  O     0.50000   0.79512   0.57155   0.00000  Uiso   1.00
O1017  O     0.50000   0.87155   0.57155   0.00000  Uiso   1.00
O1018  O     0.50000   0.79512   0.42845   0.00000  Uiso   1.00
Zn1019 Zn    0.50000   0.88437   0.50000   0.00000  Uiso   1.00
Zn1020 Zn    0.50000   0.78229   0.50000   0.00000  Uiso   1.00
C1021  C     0.75352   0.83352   0.49952   0.00000  Uiso   1.00
C1022  C     0.68847   0.87236   0.51235   0.00000  Uiso   1.00
C1023  C     0.95746   0.83303   0.50073   0.00000  Uiso   1.00
C1024  C     0.70921   0.83363   0.49934   0.00000  Uiso   1.00
C1025  C     0.85854   0.69082   0.53522   0.00000  Uiso   1.00
C1026  C     0.80820   0.97597   0.46459   0.00000  Uiso   1.00
C1027  C     0.80851   0.69049   0.46442   0.00000  Uiso   1.00
C1028  C     0.85763   0.97641   0.53601   0.00000  Uiso   1.00
C1029  C     0.89042   0.71549   0.57083   0.00000  Uiso   1.00
C1030  C     0.87951   0.72020   0.62486   0.00000  Uiso   1.00
C1031  C     0.77712   0.95137   0.42775   0.00000  Uiso   1.00
C1032  C     0.91315   0.83315   0.50050   0.00000  Uiso   1.00
C1033  C     0.79213   0.94243   0.37620   0.00000  Uiso   1.00
C1034  C     0.78047   0.71514   0.42484   0.00000  Uiso   1.00
C1035  C     0.79691   0.71401   0.37300   0.00000  Uiso   1.00
C1036  C     0.88286   0.95206   0.57794   0.00000  Uiso   1.00
C1037  C     0.85836   0.94672   0.62362   0.00000  Uiso   1.00
C1038  C     0.83329   0.83309   0.40646   0.00000  Uiso   1.00
C1039  C     0.83348   0.83357   0.59355   0.00000  Uiso   1.00
C1040  C     0.83346   0.83298   0.35516   0.00000  Uiso   1.00
C1041  C     0.83344   0.83364   0.64485   0.00000  Uiso   1.00
C1042  C     0.68751   0.79462   0.48695   0.00000  Uiso   1.00
C1043  C     0.97916   0.87204   0.51314   0.00000  Uiso   1.00
C1044  C     0.97820   0.79430   0.48774   0.00000  Uiso   1.00
H1045  H     0.70332   0.76449   0.47644   0.00000  Uiso   1.00
H1046  H     0.82671   0.94326   0.37858   0.00000  Uiso   1.00
H1047  H     0.78158   0.90944   0.36182   0.00000  Uiso   1.00
H1048  H     0.77804   0.96577   0.34828   0.00000  Uiso   1.00
H1049  H     0.77050   0.91953   0.44178   0.00000  Uiso   1.00
H1050  H     0.74568   0.96704   0.42437   0.00000  Uiso   1.00
H1051  H     0.80634   0.74705   0.36192   0.00000  Uiso   1.00
H1052  H     0.82449   0.69172   0.37185   0.00000  Uiso   1.00
H1053  H     0.77162   0.70415   0.34414   0.00000  Uiso   1.00
H1054  H     0.74791   0.70325   0.42261   0.00000  Uiso   1.00
H1055  H     0.77639   0.74959   0.43495   0.00000  Uiso   1.00
H1056  H     0.96335   0.90217   0.52367   0.00000  Uiso   1.00
H1057  H     0.82442   0.94272   0.61250   0.00000  Uiso   1.00
H1058  H     0.87074   0.91764   0.64507   0.00000  Uiso   1.00
H1059  H     0.86176   0.97488   0.64977   0.00000  Uiso   1.00
H1060  H     0.89211   0.91931   0.56514   0.00000  Uiso   1.00
H1061  H     0.91331   0.96743   0.58963   0.00000  Uiso   1.00
H1062  H     0.96157   0.76406   0.47770   0.00000  Uiso   1.00
H1063  H     0.70510   0.90259   0.52240   0.00000  Uiso   1.00
H1064  H     0.88569   0.75428   0.63942   0.00000  Uiso   1.00
H1065  H     0.84593   0.71344   0.62720   0.00000  Uiso   1.00
H1066  H     0.90017   0.69858   0.64948   0.00000  Uiso   1.00
H1067  H     0.92238   0.70151   0.56893   0.00000  Uiso   1.00
H1068  H     0.89362   0.74877   0.55918   0.00000  Uiso   1.00
N1069  N     0.83333   0.95240   0.50000   0.00000  Uiso   1.00
N1070  N     0.83333   0.71427   0.50000   0.00000  Uiso   1.00
O1071  O     0.77226   0.87154   0.50000   0.00000  Uiso   1.00
O1072  O     0.89441   0.79513   0.50000   0.00000  Uiso   1.00
O1073  O     0.89441   0.87154   0.50000   0.00000  Uiso   1.00
O1074  O     0.77226   0.79513   0.50000   0.00000  Uiso   1.00
O1075  O     0.83334   0.87155   0.42845   0.00000  Uiso   1.00
O1076  O     0.83333   0.79512   0.57155   0.00000  Uiso   1.00
O1077  O     0.83333   0.87155   0.57155   0.00000  Uiso   1.00
O1078  O     0.83334   0.79512   0.42845   0.00000  Uiso   1.00
Zn1079 Zn    0.83333   0.88437   0.50000   0.00000  Uiso   1.00
Zn1080 Zn    0.83333   0.78229   0.50000   0.00000  Uiso   1.00
C1081  C     0.08686   0.16685   0.83286   0.00000  Uiso   1.00
C1082  C     0.02181   0.20569   0.84568   0.00000  Uiso   1.00
C1083  C     0.29079   0.16637   0.83406   0.00000  Uiso   1.00
C1084  C     0.04255   0.16697   0.83268   0.00000  Uiso   1.00
C1085  C     0.19187   0.02415   0.86856   0.00000  Uiso   1.00
C1086  C     0.14153   0.30930   0.79792   0.00000  Uiso   1.00
C1087  C     0.14184   0.02382   0.79775   0.00000  Uiso   1.00
C1088  C     0.19096   0.30974   0.86934   0.00000  Uiso   1.00
C1089  C     0.22376   0.04882   0.90416   0.00000  Uiso   1.00
C1090  C     0.21284   0.05353   0.95819   0.00000  Uiso   1.00
C1091  C     0.11045   0.28471   0.76108   0.00000  Uiso   1.00
C1092  C     0.24648   0.16648   0.83384   0.00000  Uiso   1.00
C1093  C     0.12546   0.27576   0.70954   0.00000  Uiso   1.00
C1094  C     0.11381   0.04847   0.75818   0.00000  Uiso   1.00
C1095  C     0.13024   0.04734   0.70634   0.00000  Uiso   1.00
C1096  C     0.21619   0.28540   0.91127   0.00000  Uiso   1.00
C1097  C     0.19170   0.28005   0.95695   0.00000  Uiso   1.00
C1098  C     0.16663   0.16642   0.73979   0.00000  Uiso   1.00
C1099  C     0.16682   0.16690   0.92688   0.00000  Uiso   1.00
C1100  C     0.16680   0.16631   0.68850   0.00000  Uiso   1.00
C1101  C     0.16677   0.16697   0.97818   0.00000  Uiso   1.00
C1102  C     0.02084   0.12795   0.82028   0.00000  Uiso   1.00
C1103  C     0.31250   0.20538   0.84648   0.00000  Uiso   1.00
C1104  C     0.31153   0.12763   0.82108   0.00000  Uiso   1.00
H1105  H     0.03665   0.09783   0.80977   0.00000  Uiso   1.00
H1106  H     0.16005   0.27659   0.71191   0.00000  Uiso   1.00
H1107  H     0.11491   0.24278   0.69515   0.00000  Uiso   1.00
H1108  H     0.11138   0.29910   0.68162   0.00000  Uiso   1.00
H1109  H     0.10383   0.25286   0.77511   0.00000  Uiso   1.00
H1110  H     0.07902   0.30037   0.75771   0.00000  Uiso   1.00
H1111  H     0.13967   0.08038   0.69525   0.00000  Uiso   1.00
H1112  H     0.15783   0.02506   0.70519   0.00000  Uiso   1.00
H1113  H     0.10495   0.03748   0.67747   0.00000  Uiso   1.00
H1114  H     0.08124   0.03659   0.75595   0.00000  Uiso   1.00
H1115  H     0.10972   0.08293   0.76828   0.00000  Uiso   1.00
H1116  H     0.29668   0.23550   0.85700   0.00000  Uiso   1.00
H1117  H     0.15776   0.27605   0.94583   0.00000  Uiso   1.00
H1118  H     0.20407   0.25098   0.97840   0.00000  Uiso   1.00
H1119  H     0.19510   0.30822   0.98311   0.00000  Uiso   1.00
H1120  H     0.22544   0.25264   0.89847   0.00000  Uiso   1.00
H1121  H     0.24665   0.30076   0.92296   0.00000  Uiso   1.00
H1122  H     0.29491   0.09740   0.81103   0.00000  Uiso   1.00
H1123  H     0.03844   0.23593   0.85573   0.00000  Uiso   1.00
H1124  H     0.21902   0.08761   0.97275   0.00000  Uiso   1.00
H1125  H     0.17927   0.04677   0.96053   0.00000  Uiso   1.00
H1126  H     0.23350   0.03191   0.98281   0.00000  Uiso   1.00
H1127  H     0.25571   0.03484   0.90227   0.00000  Uiso   1.00
H1128  H     0.22695   0.08211   0.89252   0.00000  Uiso   1.00
N1129  N     0.16667   0.28573   0.83333   0.00000  Uiso   1.00
N1130  N     0.16667   0.04760   0.83333   0.00000  Uiso   1.00
O1131  O     0.10559   0.20487   0.83333   0.00000  Uiso   1.00
O1132  O     0.22774   0.12846   0.83334   0.00000  Uiso   1.00
O1133  O     0.22774   0.20487   0.83334   0.00000  Uiso   1.00
O1134  O     0.10559   0.12846   0.83333   0.00000  Uiso   1.00
O1135  O     0.16667   0.20488   0.76178   0.00000  Uiso   1.00
O1136  O     0.16666   0.12845   0.90489   0.00000  Uiso   1.00
O1137  O     0.16666   0.20488   0.90489   0.00000  Uiso   1.00
O1138  O     0.16667   0.12845   0.76178   0.00000  Uiso   1.00
Zn1139 Zn    0.16667   0.21771   0.83333   0.00000  Uiso   1.00
Zn1140 Zn    0.16667   0.11563   0.83333   0.00000  Uiso   1.00
C1141  C     0.42019   0.16685   0.83286   0.00000  Uiso   1.00
C1142  C     0.35514   0.20569   0.84568   0.00000  Uiso   1.00
C1143  C     0.62412   0.16637   0.83406   0.00000  Uiso   1.00
C1144  C     0.37588   0.16697   0.83268   0.00000  Uiso   1.00
C1145  C     0.52521   0.02415   0.86856   0.00000  Uiso   1.00
C1146  C     0.47486   0.30930   0.79792   0.00000  Uiso   1.00
C1147  C     0.47517   0.02382   0.79775   0.00000  Uiso   1.00
C1148  C     0.52429   0.30974   0.86934   0.00000  Uiso   1.00
C1149  C     0.55709   0.04882   0.90416   0.00000  Uiso   1.00
C1150  C     0.54618   0.05353   0.95819   0.00000  Uiso   1.00
C1151  C     0.44378   0.28471   0.76108   0.00000  Uiso   1.00
C1152  C     0.57981   0.16648   0.83384   0.00000  Uiso   1.00
C1153  C     0.45879   0.27576   0.70954   0.00000  Uiso   1.00
C1154  C     0.44714   0.04847   0.75818   0.00000  Uiso   1.00
C1155  C     0.46357   0.04734   0.70634   0.00000  Uiso   1.00
C1156  C     0.54953   0.28540   0.91127   0.00000  Uiso   1.00
C1157  C     0.52503   0.28005   0.95695   0.00000  Uiso   1.00
C1158  C     0.49996   0.16642   0.73979   0.00000  Uiso   1.00
C1159  C     0.50015   0.16690   0.92688   0.00000  Uiso   1.00
C1160  C     0.50013   0.16631   0.68850   0.00000  Uiso   1.00
C1161  C     0.50010   0.16697   0.97818   0.00000  Uiso   1.00
C1162  C     0.35417   0.12795   0.82028   0.00000  Uiso   1.00
C1163  C     0.64583   0.20538   0.84648   0.00000  Uiso   1.00
C1164  C     0.64487   0.12763   0.82108   0.00000  Uiso   1.00
H1165  H     0.36999   0.09783   0.80977   0.00000  Uiso   1.00
H1166  H     0.49338   0.27659   0.71191   0.00000  Uiso   1.00
H1167  H     0.44825   0.24278   0.69515   0.00000  Uiso   1.00
H1168  H     0.44471   0.29910   0.68162   0.00000  Uiso   1.00
H1169  H     0.43716   0.25286   0.77511   0.00000  Uiso   1.00
H1170  H     0.41235   0.30037   0.75771   0.00000  Uiso   1.00
H1171  H     0.47300   0.08038   0.69525   0.00000  Uiso   1.00
H1172  H     0.49116   0.02506   0.70519   0.00000  Uiso   1.00
H1173  H     0.43828   0.03748   0.67747   0.00000  Uiso   1.00
H1174  H     0.41457   0.03659   0.75595   0.00000  Uiso   1.00
H1175  H     0.44305   0.08293   0.76828   0.00000  Uiso   1.00
H1176  H     0.63001   0.23550   0.85700   0.00000  Uiso   1.00
H1177  H     0.49109   0.27605   0.94583   0.00000  Uiso   1.00
H1178  H     0.53740   0.25098   0.97840   0.00000  Uiso   1.00
H1179  H     0.52843   0.30822   0.98311   0.00000  Uiso   1.00
H1180  H     0.55878   0.25264   0.89847   0.00000  Uiso   1.00
H1181  H     0.57998   0.30076   0.92296   0.00000  Uiso   1.00
H1182  H     0.62824   0.09740   0.81103   0.00000  Uiso   1.00
H1183  H     0.37177   0.23593   0.85573   0.00000  Uiso   1.00
H1184  H     0.55236   0.08761   0.97275   0.00000  Uiso   1.00
H1185  H     0.51260   0.04677   0.96053   0.00000  Uiso   1.00
H1186  H     0.56684   0.03191   0.98281   0.00000  Uiso   1.00
H1187  H     0.58904   0.03484   0.90227   0.00000  Uiso   1.00
H1188  H     0.56028   0.08211   0.89252   0.00000  Uiso   1.00
N1189  N     0.50000   0.28573   0.83333   0.00000  Uiso   1.00
N1190  N     0.50000   0.04760   0.83333   0.00000  Uiso   1.00
O1191  O     0.43892   0.20487   0.83333   0.00000  Uiso   1.00
O1192  O     0.56108   0.12846   0.83334   0.00000  Uiso   1.00
O1193  O     0.56108   0.20487   0.83334   0.00000  Uiso   1.00
O1194  O     0.43892   0.12846   0.83333   0.00000  Uiso   1.00
O1195  O     0.50000   0.20488   0.76178   0.00000  Uiso   1.00
O1196  O     0.50000   0.12845   0.90489   0.00000  Uiso   1.00
O1197  O     0.50000   0.20488   0.90489   0.00000  Uiso   1.00
O1198  O     0.50000   0.12845   0.76178   0.00000  Uiso   1.00
Zn1199 Zn    0.50000   0.21771   0.83333   0.00000  Uiso   1.00
Zn1200 Zn    0.50000   0.11563   0.83333   0.00000  Uiso   1.00
C1201  C     0.75352   0.16685   0.83286   0.00000  Uiso   1.00
C1202  C     0.68847   0.20569   0.84568   0.00000  Uiso   1.00
C1203  C     0.95746   0.16637   0.83406   0.00000  Uiso   1.00
C1204  C     0.70921   0.16697   0.83268   0.00000  Uiso   1.00
C1205  C     0.85854   0.02415   0.86856   0.00000  Uiso   1.00
C1206  C     0.80820   0.30930   0.79792   0.00000  Uiso   1.00
C1207  C     0.80851   0.02382   0.79775   0.00000  Uiso   1.00
C1208  C     0.85763   0.30974   0.86934   0.00000  Uiso   1.00
C1209  C     0.89042   0.04882   0.90416   0.00000  Uiso   1.00
C1210  C     0.87951   0.05353   0.95819   0.00000  Uiso   1.00
C1211  C     0.77712   0.28471   0.76108   0.00000  Uiso   1.00
C1212  C     0.91315   0.16648   0.83384   0.00000  Uiso   1.00
C1213  C     0.79213   0.27576   0.70954   0.00000  Uiso   1.00
C1214  C     0.78047   0.04847   0.75818   0.00000  Uiso   1.00
C1215  C     0.79691   0.04734   0.70634   0.00000  Uiso   1.00
C1216  C     0.88286   0.28540   0.91127   0.00000  Uiso   1.00
C1217  C     0.85836   0.28005   0.95695   0.00000  Uiso   1.00
C1218  C     0.83329   0.16642   0.73979   0.00000  Uiso   1.00
C1219  C     0.83348   0.16690   0.92688   0.00000  Uiso   1.00
C1220  C     0.83346   0.16631   0.68850   0.00000  Uiso   1.00
C1221  C     0.83344   0.16697   0.97818   0.00000  Uiso   1.00
C1222  C     0.68751   0.12795   0.82028   0.00000  Uiso   1.00
C1223  C     0.97916   0.20538   0.84648   0.00000  Uiso   1.00
C1224  C     0.97820   0.12763   0.82108   0.00000  Uiso   1.00
H1225  H     0.70332   0.09783   0.80977   0.00000  Uiso   1.00
H1226  H     0.82671   0.27659   0.71191   0.00000  Uiso   1.00
H1227  H     0.78158   0.24278   0.69515   0.00000  Uiso   1.00
H1228  H     0.77804   0.29910   0.68162   0.00000  Uiso   1.00
H1229  H     0.77050   0.25286   0.77511   0.00000  Uiso   1.00
H1230  H     0.74568   0.30037   0.75771   0.00000  Uiso   1.00
H1231  H     0.80634   0.08038   0.69525   0.00000  Uiso   1.00
H1232  H     0.82449   0.02506   0.70519   0.00000  Uiso   1.00
H1233  H     0.77162   0.03748   0.67747   0.00000  Uiso   1.00
H1234  H     0.74791   0.03659   0.75595   0.00000  Uiso   1.00
H1235  H     0.77639   0.08293   0.76828   0.00000  Uiso   1.00
H1236  H     0.96335   0.23550   0.85700   0.00000  Uiso   1.00
H1237  H     0.82442   0.27605   0.94583   0.00000  Uiso   1.00
H1238  H     0.87074   0.25098   0.97840   0.00000  Uiso   1.00
H1239  H     0.86176   0.30822   0.98311   0.00000  Uiso   1.00
H1240  H     0.89211   0.25264   0.89847   0.00000  Uiso   1.00
H1241  H     0.91331   0.30076   0.92296   0.00000  Uiso   1.00
H1242  H     0.96157   0.09740   0.81103   0.00000  Uiso   1.00
H1243  H     0.70510   0.23593   0.85573   0.00000  Uiso   1.00
H1244  H     0.88569   0.08761   0.97275   0.00000  Uiso   1.00
H1245  H     0.84593   0.04677   0.96053   0.00000  Uiso   1.00
H1246  H     0.90017   0.03191   0.98281   0.00000  Uiso   1.00
H1247  H     0.92238   0.03484   0.90227   0.00000  Uiso   1.00
H1248  H     0.89362   0.08211   0.89252   0.00000  Uiso   1.00
N1249  N     0.83333   0.28573   0.83333   0.00000  Uiso   1.00
N1250  N     0.83333   0.04760   0.83333   0.00000  Uiso   1.00
O1251  O     0.77226   0.20487   0.83333   0.00000  Uiso   1.00
O1252  O     0.89441   0.12846   0.83334   0.00000  Uiso   1.00
O1253  O     0.89441   0.20487   0.83334   0.00000  Uiso   1.00
O1254  O     0.77226   0.12846   0.83333   0.00000  Uiso   1.00
O1255  O     0.83334   0.20488   0.76178   0.00000  Uiso   1.00
O1256  O     0.83333   0.12845   0.90489   0.00000  Uiso   1.00
O1257  O     0.83333   0.20488   0.90489   0.00000  Uiso   1.00
O1258  O     0.83334   0.12845   0.76178   0.00000  Uiso   1.00
Zn1259 Zn    0.83333   0.21771   0.83333   0.00000  Uiso   1.00
Zn1260 Zn    0.83333   0.11563   0.83333   0.00000  Uiso   1.00
C1261  C     0.08686   0.50019   0.83286   0.00000  Uiso   1.00
C1262  C     0.02181   0.53903   0.84568   0.00000  Uiso   1.00
C1263  C     0.29079   0.49970   0.83406   0.00000  Uiso   1.00
C1264  C     0.04255   0.50030   0.83268   0.00000  Uiso   1.00
C1265  C     0.19187   0.35748   0.86856   0.00000  Uiso   1.00
C1266  C     0.14153   0.64264   0.79792   0.00000  Uiso   1.00
C1267  C     0.14184   0.35716   0.79775   0.00000  Uiso   1.00
C1268  C     0.19096   0.64308   0.86934   0.00000  Uiso   1.00
C1269  C     0.22376   0.38216   0.90416   0.00000  Uiso   1.00
C1270  C     0.21284   0.38687   0.95819   0.00000  Uiso   1.00
C1271  C     0.11045   0.61804   0.76108   0.00000  Uiso   1.00
C1272  C     0.24648   0.49982   0.83384   0.00000  Uiso   1.00
C1273  C     0.12546   0.60909   0.70954   0.00000  Uiso   1.00
C1274  C     0.11381   0.38180   0.75818   0.00000  Uiso   1.00
C1275  C     0.13024   0.38068   0.70634   0.00000  Uiso   1.00
C1276  C     0.21619   0.61873   0.91127   0.00000  Uiso   1.00
C1277  C     0.19170   0.61339   0.95695   0.00000  Uiso   1.00
C1278  C     0.16663   0.49975   0.73979   0.00000  Uiso   1.00
C1279  C     0.16682   0.50024   0.92688   0.00000  Uiso   1.00
C1280  C     0.16680   0.49964   0.68850   0.00000  Uiso   1.00
C1281  C     0.16677   0.50031   0.97818   0.00000  Uiso   1.00
C1282  C     0.02084   0.46129   0.82028   0.00000  Uiso   1.00
C1283  C     0.31250   0.53871   0.84648   0.00000  Uiso   1.00
C1284  C     0.31153   0.46097   0.82108   0.00000  Uiso   1.00
H1285  H     0.03665   0.43116   0.80977   0.00000  Uiso   1.00
H1286  H     0.16005   0.60993   0.71191   0.00000  Uiso   1.00
H1287  H     0.11491   0.57611   0.69515   0.00000  Uiso   1.00
H1288  H     0.11138   0.63244   0.68162   0.00000  Uiso   1.00
H1289  H     0.10383   0.58620   0.77511   0.00000  Uiso   1.00
H1290  H     0.07902   0.63370   0.75771   0.00000  Uiso   1.00
H1291  H     0.13967   0.41371   0.69525   0.00000  Uiso   1.00
H1292  H     0.15783   0.35839   0.70519   0.00000  Uiso   1.00
H1293  H     0.10495   0.37081   0.67747   0.00000  Uiso   1.00
H1294  H     0.08124   0.36992   0.75595   0.00000  Uiso   1.00
H1295  H     0.10972   0.41626   0.76828   0.00000  Uiso   1.00
H1296  H     0.29668   0.56883   0.85700   0.00000  Uiso   1.00
H1297  H     0.15776   0.60939   0.94583   0.00000  Uiso   1.00
H1298  H     0.20407   0.58431   0.97840   0.00000  Uiso   1.00
H1299  H     0.19510   0.64155   0.98311   0.00000  Uiso   1.00
H1300  H     0.22544   0.58597   0.89847   0.00000  Uiso   1.00
H1301  H     0.24665   0.63410   0.92296   0.00000  Uiso   1.00
H1302  H     0.29491   0.43073   0.81103   0.00000  Uiso   1.00
H1303  H     0.03844   0.56926   0.85573   0.00000  Uiso   1.00
H1304  H     0.21902   0.42095   0.97275   0.00000  Uiso   1.00
H1305  H     0.17927   0.38011   0.96053   0.00000  Uiso   1.00
H1306  H     0.23350   0.36524   0.98281   0.00000  Uiso   1.00
H1307  H     0.25571   0.36817   0.90227   0.00000  Uiso   1.00
H1308  H     0.22695   0.41544   0.89252   0.00000  Uiso   1.00
N1309  N     0.16667   0.61907   0.83333   0.00000  Uiso   1.00
N1310  N     0.16667   0.38093   0.83333   0.00000  Uiso   1.00
O1311  O     0.10559   0.53821   0.83333   0.00000  Uiso   1.00
O1312  O     0.22774   0.46179   0.83334   0.00000  Uiso   1.00
O1313  O     0.22774   0.53821   0.83334   0.00000  Uiso   1.00
O1314  O     0.10559   0.46179   0.83333   0.00000  Uiso   1.00
O1315  O     0.16667   0.53821   0.76178   0.00000  Uiso   1.00
O1316  O     0.16666   0.46179   0.90489   0.00000  Uiso   1.00
O1317  O     0.16666   0.53821   0.90489   0.00000  Uiso   1.00
O1318  O     0.16667   0.46179   0.76178   0.00000  Uiso   1.00
Zn1319 Zn    0.16667   0.55104   0.83333   0.00000  Uiso   1.00
Zn1320 Zn    0.16667   0.44896   0.83333   0.00000  Uiso   1.00
C1321  C     0.42019   0.50019   0.83286   0.00000  Uiso   1.00
C1322  C     0.35514   0.53903   0.84568   0.00000  Uiso   1.00
C1323  C     0.62412   0.49970   0.83406   0.00000  Uiso   1.00
C1324  C     0.37588   0.50030   0.83268   0.00000  Uiso   1.00
C1325  C     0.52521   0.35748   0.86856   0.00000  Uiso   1.00
C1326  C     0.47486   0.64264   0.79792   0.00000  Uiso   1.00
C1327  C     0.47517   0.35716   0.79775   0.00000  Uiso   1.00
C1328  C     0.52429   0.64308   0.86934   0.00000  Uiso   1.00
C1329  C     0.55709   0.38216   0.90416   0.00000  Uiso   1.00
C1330  C     0.54618   0.38687   0.95819   0.00000  Uiso   1.00
C1331  C     0.44378   0.61804   0.76108   0.00000  Uiso   1.00
C1332  C     0.57981   0.49982   0.83384   0.00000  Uiso   1.00
C1333  C     0.45879   0.60909   0.70954   0.00000  Uiso   1.00
C1334  C     0.44714   0.38180   0.75818   0.00000  Uiso   1.00
C1335  C     0.46357   0.38068   0.70634   0.00000  Uiso   1.00
C1336  C     0.54953   0.61873   0.91127   0.00000  Uiso   1.00
C1337  C     0.52503   0.61339   0.95695   0.00000  Uiso   1.00
C1338  C     0.49996   0.49975   0.73979   0.00000  Uiso   1.00
C1339  C     0.50015   0.50024   0.92688   0.00000  Uiso   1.00
C1340  C     0.50013   0.49964   0.68850   0.00000  Uiso   1.00
C1341  C     0.50010   0.50031   0.97818   0.00000  Uiso   1.00
C1342  C     0.35417   0.46129   0.82028   0.00000  Uiso   1.00
C1343  C     0.64583   0.53871   0.84648   0.00000  Uiso   1.00
C1344  C     0.64487   0.46097   0.82108   0.00000  Uiso   1.00
H1345  H     0.36999   0.43116   0.80977   0.00000  Uiso   1.00
H1346  H     0.49338   0.60993   0.71191   0.00000  Uiso   1.00
H1347  H     0.44825   0.57611   0.69515   0.00000  Uiso   1.00
H1348  H     0.44471   0.63244   0.68162   0.00000  Uiso   1.00
H1349  H     0.43716   0.58620   0.77511   0.00000  Uiso   1.00
H1350  H     0.41235   0.63370   0.75771   0.00000  Uiso   1.00
H1351  H     0.47300   0.41371   0.69525   0.00000  Uiso   1.00
H1352  H     0.49116   0.35839   0.70519   0.00000  Uiso   1.00
H1353  H     0.43828   0.37081   0.67747   0.00000  Uiso   1.00
H1354  H     0.41457   0.36992   0.75595   0.00000  Uiso   1.00
H1355  H     0.44305   0.41626   0.76828   0.00000  Uiso   1.00
H1356  H     0.63001   0.56883   0.85700   0.00000  Uiso   1.00
H1357  H     0.49109   0.60939   0.94583   0.00000  Uiso   1.00
H1358  H     0.53740   0.58431   0.97840   0.00000  Uiso   1.00
H1359  H     0.52843   0.64155   0.98311   0.00000  Uiso   1.00
H1360  H     0.55878   0.58597   0.89847   0.00000  Uiso   1.00
H1361  H     0.57998   0.63410   0.92296   0.00000  Uiso   1.00
H1362  H     0.62824   0.43073   0.81103   0.00000  Uiso   1.00
H1363  H     0.37177   0.56926   0.85573   0.00000  Uiso   1.00
H1364  H     0.55236   0.42095   0.97275   0.00000  Uiso   1.00
H1365  H     0.51260   0.38011   0.96053   0.00000  Uiso   1.00
H1366  H     0.56684   0.36524   0.98281   0.00000  Uiso   1.00
H1367  H     0.58904   0.36817   0.90227   0.00000  Uiso   1.00
H1368  H     0.56028   0.41544   0.89252   0.00000  Uiso   1.00
N1369  N     0.50000   0.61907   0.83333   0.00000  Uiso   1.00
N1370  N     0.50000   0.38093   0.83333   0.00000  Uiso   1.00
O1371  O     0.43892   0.53821   0.83333   0.00000  Uiso   1.00
O1372  O     0.56108   0.46179   0.83334   0.00000  Uiso   1.00
O1373  O     0.56108   0.53821   0.83334   0.00000  Uiso   1.00
O1374  O     0.43892   0.46179   0.83333   0.00000  Uiso   1.00
O1375  O     0.50000   0.53821   0.76178   0.00000  Uiso   1.00
O1376  O     0.50000   0.46179   0.90489   0.00000  Uiso   1.00
O1377  O     0.50000   0.53821   0.90489   0.00000  Uiso   1.00
O1378  O     0.50000   0.46179   0.76178   0.00000  Uiso   1.00
Zn1379 Zn    0.50000   0.55104   0.83333   0.00000  Uiso   1.00
Zn1380 Zn    0.50000   0.44896   0.83333   0.00000  Uiso   1.00
C1381  C     0.75352   0.50019   0.83286   0.00000  Uiso   1.00
C1382  C     0.68847   0.53903   0.84568   0.00000  Uiso   1.00
C1383  C     0.95746   0.49970   0.83406   0.00000  Uiso   1.00
C1384  C     0.70921   0.50030   0.83268   0.00000  Uiso   1.00
C1385  C     0.85854   0.35748   0.86856   0.00000  Uiso   1.00
C1386  C     0.80820   0.64264   0.79792   0.00000  Uiso   1.00
C1387  C     0.80851   0.35716   0.79775   0.00000  Uiso   1.00
C1388  C     0.85763   0.64308   0.86934   0.00000  Uiso   1.00
C1389  C     0.89042   0.38216   0.90416   0.00000  Uiso   1.00
C1390  C     0.87951   0.38687   0.95819   0.00000  Uiso   1.00
C1391  C     0.77712   0.61804   0.76108   0.00000  Uiso   1.00
C1392  C     0.91315   0.49982   0.83384   0.00000  Uiso   1.00
C1393  C     0.79213   0.60909   0.70954   0.00000  Uiso   1.00
C1394  C     0.78047   0.38180   0.75818   0.00000  Uiso   1.00
C1395  C     0.79691   0.38068   0.70634   0.00000  Uiso   1.00
C1396  C     0.88286   0.61873   0.91127   0.00000  Uiso   1.00
C1397  C     0.85836   0.61339   0.95695   0.00000  Uiso   1.00
C1398  C     0.83329   0.49975   0.73979   0.00000  Uiso   1.00
C1399  C     0.83348   0.50024   0.92688   0.00000  Uiso   1.00
C1400  C     0.83346   0.49964   0.68850   0.00000  Uiso   1.00
C1401  C     0.83344   0.50031   0.97818   0.00000  Uiso   1.00
C1402  C     0.68751   0.46129   0.82028   0.00000  Uiso   1.00
C1403  C     0.97916   0.53871   0.84648   0.00000  Uiso   1.00
C1404  C     0.97820   0.46097   0.82108   0.00000  Uiso   1.00
H1405  H     0.70332   0.43116   0.80977   0.00000  Uiso   1.00
H1406  H     0.82671   0.60993   0.71191   0.00000  Uiso   1.00
H1407  H     0.78158   0.57611   0.69515   0.00000  Uiso   1.00
H1408  H     0.77804   0.63244   0.68162   0.00000  Uiso   1.00
H1409  H     0.77050   0.58620   0.77511   0.00000  Uiso   1.00
H1410  H     0.74568   0.63370   0.75771   0.00000  Uiso   1.00
H1411  H     0.80634   0.41371   0.69525   0.00000  Uiso   1.00
H1412  H     0.82449   0.35839   0.70519   0.00000  Uiso   1.00
H1413  H     0.77162   0.37081   0.67747   0.00000  Uiso   1.00
H1414  H     0.74791   0.36992   0.75595   0.00000  Uiso   1.00
H1415  H     0.77639   0.41626   0.76828   0.00000  Uiso   1.00
H1416  H     0.96335   0.56883   0.85700   0.00000  Uiso   1.00
H1417  H     0.82442   0.60939   0.94583   0.00000  Uiso   1.00
H1418  H     0.87074   0.58431   0.97840   0.00000  Uiso   1.00
H1419  H     0.86176   0.64155   0.98311   0.00000  Uiso   1.00
H1420  H     0.89211   0.58597   0.89847   0.00000  Uiso   1.00
H1421  H     0.91331   0.63410   0.92296   0.00000  Uiso   1.00
H1422  H     0.96157   0.43073   0.81103   0.00000  Uiso   1.00
H1423  H     0.70510   0.56926   0.85573   0.00000  Uiso   1.00
H1424  H     0.88569   0.42095   0.97275   0.00000  Uiso   1.00
H1425  H     0.84593   0.38011   0.96053   0.00000  Uiso   1.00
H1426  H     0.90017   0.36524   0.98281   0.00000  Uiso   1.00
H1427  H     0.92238   0.36817   0.90227   0.00000  Uiso   1.00
H1428  H     0.89362   0.41544   0.89252   0.00000  Uiso   1.00
N1429  N     0.83333   0.61907   0.83333   0.00000  Uiso   1.00
N1430  N     0.83333   0.38093   0.83333   0.00000  Uiso   1.00
O1431  O     0.77226   0.53821   0.83333   0.00000  Uiso   1.00
O1432  O     0.89441   0.46179   0.83334   0.00000  Uiso   1.00
O1433  O     0.89441   0.53821   0.83334   0.00000  Uiso   1.00
O1434  O     0.77226   0.46179   0.83333   0.00000  Uiso   1.00
O1435  O     0.83334   0.53821   0.76178   0.00000  Uiso   1.00
O1436  O     0.83333   0.46179   0.90489   0.00000  Uiso   1.00
O1437  O     0.83333   0.53821   0.90489   0.00000  Uiso   1.00
O1438  O     0.83334   0.46179   0.76178   0.00000  Uiso   1.00
Zn1439 Zn    0.83333   0.55104   0.83333   0.00000  Uiso   1.00
Zn1440 Zn    0.83333   0.44896   0.83333   0.00000  Uiso   1.00
C1441  C     0.08686   0.83352   0.83286   0.00000  Uiso   1.00
C1442  C     0.02181   0.87236   0.84568   0.00000  Uiso   1.00
C1443  C     0.29079   0.83303   0.83406   0.00000  Uiso   1.00
C1444  C     0.04255   0.83363   0.83268   0.00000  Uiso   1.00
C1445  C     0.19187   0.69082   0.86856   0.00000  Uiso   1.00
C1446  C     0.14153   0.97597   0.79792   0.00000  Uiso   1.00
C1447  C     0.14184   0.69049   0.79775   0.00000  Uiso   1.00
C1448  C     0.19096   0.97641   0.86934   0.00000  Uiso   1.00
C1449  C     0.22376   0.71549   0.90416   0.00000  Uiso   1.00
C1450  C     0.21284   0.72020   0.95819   0.00000  Uiso   1.00
C1451  C     0.11045   0.95137   0.76108   0.00000  Uiso   1.00
C1452  C     0.24648   0.83315   0.83384   0.00000  Uiso   1.00
C1453  C     0.12546   0.94243   0.70954   0.00000  Uiso   1.00
C1454  C     0.11381   0.71514   0.75818   0.00000  Uiso   1.00
C1455  C     0.13024   0.71401   0.70634   0.00000  Uiso   1.00
C1456  C     0.21619   0.95206   0.91127   0.00000  Uiso   1.00
C1457  C     0.19170   0.94672   0.95695   0.00000  Uiso   1.00
C1458  C     0.16663   0.83309   0.73979   0.00000  Uiso   1.00
C1459  C     0.16682   0.83357   0.92688   0.00000  Uiso   1.00
C1460  C     0.16680   0.83298   0.68850   0.00000  Uiso   1.00
C1461  C     0.16677   0.83364   0.97818   0.00000  Uiso   1.00
C1462  C     0.02084   0.79462   0.82028   0.00000  Uiso   1.00
C1463  C     0.31250   0.87204   0.84648   0.00000  Uiso   1.00
C1464  C     0.31153   0.79430   0.82108   0.00000  Uiso   1.00
H1465  H     0.03665   0.76449   0.80977   0.00000  Uiso   1.00
H1466  H     0.16005   0.94326   0.71191   0.00000  Uiso   1.00
H1467  H     0.11491   0.90944   0.69515   0.00000  Uiso   1.00
H1468  H     0.11138   0.96577   0.68162   0.00000  Uiso   1.00
H1469  H     0.10383   0.91953   0.77511   0.00000  Uiso   1.00
H1470  H     0.07902   0.96704   0.75771   0.00000  Uiso   1.00
H1471  H     0.13967   0.74705   0.69525   0.00000  Uiso   1.00
H1472  H     0.15783   0.69172   0.70519   0.00000  Uiso   1.00
H1473  H     0.10495   0.70415   0.67747   0.00000  Uiso   1.00
H1474  H     0.08124   0.70325   0.75595   0.00000  Uiso   1.00
H1475  H     0.10972   0.74959   0.76828   0.00000  Uiso   1.00
H1476  H     0.29668   0.90217   0.85700   0.00000  Uiso   1.00
H1477  H     0.15776   0.94272   0.94583   0.00000  Uiso   1.00
H1478  H     0.20407   0.91764   0.97840   0.00000  Uiso   1.00
H1479  H     0.19510   0.97488   0.98311   0.00000  Uiso   1.00
H1480  H     0.22544   0.91931   0.89847   0.00000  Uiso   1.00
H1481  H     0.24665   0.96743   0.92296   0.00000  Uiso   1.00
H1482  H     0.29491   0.76406   0.81103   0.00000  Uiso   1.00
H1483  H     0.03844   0.90259   0.85573   0.00000  Uiso   1.00
H1484  H     0.21902   0.75428   0.97275   0.00000  Uiso   1.00
H1485  H     0.17927   0.71344   0.96053   0.00000  Uiso   1.00
H1486  H     0.23350   0.69858   0.98281   0.00000  Uiso   1.00
H1487  H     0.25571   0.70151   0.90227   0.00000  Uiso   1.00
H1488  H     0.22695   0.74877   0.89252   0.00000  Uiso   1.00
N1489  N     0.16667   0.95240   0.83333   0.00000  Uiso   1.00
N1490  N     0.16667   0.71427   0.83333   0.00000  Uiso   1.00
O1491  O     0.10559   0.87154   0.83333   0.00000  Uiso   1.00
O1492  O     0.22774   0.79513   0.83334   0.00000  Uiso   1.00
O1493  O     0.22774   0.87154   0.83334   0.00000  Uiso   1.00
O1494  O     0.10559   0.79513   0.83333   0.00000  Uiso   1.00
O1495  O     0.16667   0.87155   0.76178   0.00000  Uiso   1.00
O1496  O     0.16666   0.79512   0.90489   0.00000  Uiso   1.00
O1497  O     0.16666   0.87155   0.90489   0.00000  Uiso   1.00
O1498  O     0.16667   0.79512   0.76178   0.00000  Uiso   1.00
Zn1499 Zn    0.16667   0.88437   0.83333   0.00000  Uiso   1.00
Zn1500 Zn    0.16667   0.78229   0.83333   0.00000  Uiso   1.00
C1501  C     0.42019   0.83352   0.83286   0.00000  Uiso   1.00
C1502  C     0.35514   0.87236   0.84568   0.00000  Uiso   1.00
C1503  C     0.62412   0.83303   0.83406   0.00000  Uiso   1.00
C1504  C     0.37588   0.83363   0.83268   0.00000  Uiso   1.00
C1505  C     0.52521   0.69082   0.86856   0.00000  Uiso   1.00
C1506  C     0.47486   0.97597   0.79792   0.00000  Uiso   1.00
C1507  C     0.47517   0.69049   0.79775   0.00000  Uiso   1.00
C1508  C     0.52429   0.97641   0.86934   0.00000  Uiso   1.00
C1509  C     0.55709   0.71549   0.90416   0.00000  Uiso   1.00
C1510  C     0.54618   0.72020   0.95819   0.00000  Uiso   1.00
C1511  C     0.44378   0.95137   0.76108   0.00000  Uiso   1.00
C1512  C     0.57981   0.83315   0.83384   0.00000  Uiso   1.00
C1513  C     0.45879   0.94243   0.70954   0.00000  Uiso   1.00
C1514  C     0.44714   0.71514   0.75818   0.00000  Uiso   1.00
C1515  C     0.46357   0.71401   0.70634   0.00000  Uiso   1.00
C1516  C     0.54953   0.95206   0.91127   0.00000  Uiso   1.00
C1517  C     0.52503   0.94672   0.95695   0.00000  Uiso   1.00
C1518  C     0.49996   0.83309   0.73979   0.00000  Uiso   1.00
C1519  C     0.50015   0.83357   0.92688   0.00000  Uiso   1.00
C1520  C     0.50013   0.83298   0.68850   0.00000  Uiso   1.00
C1521  C     0.50010   0.83364   0.97818   0.00000  Uiso   1.00
C1522  C     0.35417   0.79462   0.82028   0.00000  Uiso   1.00
C1523  C     0.64583   0.87204   0.84648   0.00000  Uiso   1.00
C1524  C     0.64487   0.79430   0.82108   0.00000  Uiso   1.00
H1525  H     0.36999   0.76449   0.80977   0.00000  Uiso   1.00
H1526  H     0.49338   0.94326   0.71191   0.00000  Uiso   1.00
H1527  H     0.44825   0.90944   0.69515   0.00000  Uiso   1.00
H1528  H     0.44471   0.96577   0.68162   0.00000  Uiso   1.00
H1529  H     0.43716   0.91953   0.77511   0.00000  Uiso   1.00
H1530  H     0.41235   0.96704   0.75771   0.00000  Uiso   1.00
H1531  H     0.47300   0.74705   0.69525   0.00000  Uiso   1.00
H1532  H     0.49116   0.69172   0.70519   0.00000  Uiso   1.00
H1533  H     0.43828   0.70415   0.67747   0.00000  Uiso   1.00
H1534  H     0.41457   0.70325   0.75595   0.00000  Uiso   1.00
H1535  H     0.44305   0.74959   0.76828   0.00000  Uiso   1.00
H1536  H     0.63001   0.90217   0.85700   0.00000  Uiso   1.00
H1537  H     0.49109   0.94272   0.94583   0.00000  Uiso   1.00
H1538  H     0.53740   0.91764   0.97840   0.00000  Uiso   1.00
H1539  H     0.52843   0.97488   0.98311   0.00000  Uiso   1.00
H1540  H     0.55878   0.91931   0.89847   0.00000  Uiso   1.00
H1541  H     0.57998   0.96743   0.92296   0.00000  Uiso   1.00
H1542  H     0.62824   0.76406   0.81103   0.00000  Uiso   1.00
H1543  H     0.37177   0.90259   0.85573   0.00000  Uiso   1.00
H1544  H     0.55236   0.75428   0.97275   0.00000  Uiso   1.00
H1545  H     0.51260   0.71344   0.96053   0.00000  Uiso   1.00
H1546  H     0.56684   0.69858   0.98281   0.00000  Uiso   1.00
H1547  H     0.58904   0.70151   0.90227   0.00000  Uiso   1.00
H1548  H     0.56028   0.74877   0.89252   0.00000  Uiso   1.00
N1549  N     0.50000   0.95240   0.83333   0.00000  Uiso   1.00
N1550  N     0.50000   0.71427   0.83333   0.00000  Uiso   1.00
O1551  O     0.43892   0.87154   0.83333   0.00000  Uiso   1.00
O1552  O     0.56108   0.79513   0.83334   0.00000  Uiso   1.00
O1553  O     0.56108   0.87154   0.83334   0.00000  Uiso   1.00
O1554  O     0.43892   0.79513   0.83333   0.00000  Uiso   1.00
O1555  O     0.50000   0.87155   0.76178   0.00000  Uiso   1.00
O1556  O     0.50000   0.79512   0.90489   0.00000  Uiso   1.00
O1557  O     0.50000   0.87155   0.90489   0.00000  Uiso   1.00
O1558  O     0.50000   0.79512   0.76178   0.00000  Uiso   1.00
Zn1559 Zn    0.50000   0.88437   0.83333   0.00000  Uiso   1.00
Zn1560 Zn    0.50000   0.78229   0.83333   0.00000  Uiso   1.00
C1561  C     0.75352   0.83352   0.83286   0.00000  Uiso   1.00
C1562  C     0.68847   0.87236   0.84568   0.00000  Uiso   1.00
C1563  C     0.95746   0.83303   0.83406   0.00000  Uiso   1.00
C1564  C     0.70921   0.83363   0.83268   0.00000  Uiso   1.00
C1565  C     0.85854   0.69082   0.86856   0.00000  Uiso   1.00
C1566  C     0.80820   0.97597   0.79792   0.00000  Uiso   1.00
C1567  C     0.80851   0.69049   0.79775   0.00000  Uiso   1.00
C1568  C     0.85763   0.97641   0.86934   0.00000  Uiso   1.00
C1569  C     0.89042   0.71549   0.90416   0.00000  Uiso   1.00
C1570  C     0.87951   0.72020   0.95819   0.00000  Uiso   1.00
C1571  C     0.77712   0.95137   0.76108   0.00000  Uiso   1.00
C1572  C     0.91315   0.83315   0.83384   0.00000  Uiso   1.00
C1573  C     0.79213   0.94243   0.70954   0.00000  Uiso   1.00
C1574  C     0.78047   0.71514   0.75818   0.00000  Uiso   1.00
C1575  C     0.79691   0.71401   0.70634   0.00000  Uiso   1.00
C1576  C     0.88286   0.95206   0.91127   0.00000  Uiso   1.00
C1577  C     0.85836   0.94672   0.95695   0.00000  Uiso   1.00
C1578  C     0.83329   0.83309   0.73979   0.00000  Uiso   1.00
C1579  C     0.83348   0.83357   0.92688   0.00000  Uiso   1.00
C1580  C     0.83346   0.83298   0.68850   0.00000  Uiso   1.00
C1581  C     0.83344   0.83364   0.97818   0.00000  Uiso   1.00
C1582  C     0.68751   0.79462   0.82028   0.00000  Uiso   1.00
C1583  C     0.97916   0.87204   0.84648   0.00000  Uiso   1.00
C1584  C     0.97820   0.79430   0.82108   0.00000  Uiso   1.00
H1585  H     0.70332   0.76449   0.80977   0.00000  Uiso   1.00
H1586  H     0.82671   0.94326   0.71191   0.00000  Uiso   1.00
H1587  H     0.78158   0.90944   0.69515   0.00000  Uiso   1.00
H1588  H     0.77804   0.96577   0.68162   0.00000  Uiso   1.00
H1589  H     0.77050   0.91953   0.77511   0.00000  Uiso   1.00
H1590  H     0.74568   0.96704   0.75771   0.00000  Uiso   1.00
H1591  H     0.80634   0.74705   0.69525   0.00000  Uiso   1.00
H1592  H     0.82449   0.69172   0.70519   0.00000  Uiso   1.00
H1593  H     0.77162   0.70415   0.67747   0.00000  Uiso   1.00
H1594  H     0.74791   0.70325   0.75595   0.00000  Uiso   1.00
H1595  H     0.77639   0.74959   0.76828   0.00000  Uiso   1.00
H1596  H     0.96335   0.90217   0.85700   0.00000  Uiso   1.00
H1597  H     0.82442   0.94272   0.94583   0.00000  Uiso   1.00
H1598  H     0.87074   0.91764   0.97840   0.00000  Uiso   1.00
H1599  H     0.86176   0.97488   0.98311   0.00000  Uiso   1.00
H1600  H     0.89211   0.91931   0.89847   0.00000  Uiso   1.00
H1601  H     0.91331   0.96743   0.92296   0.00000  Uiso   1.00
H1602  H     0.96157   0.76406   0.81103   0.00000  Uiso   1.00
H1603  H     0.70510   0.90259   0.85573   0.00000  Uiso   1.00
H1604  H     0.88569   0.75428   0.97275   0.00000  Uiso   1.00
H1605  H     0.84593   0.71344   0.96053   0.00000  Uiso   1.00
H1606  H     0.90017   0.69858   0.98281   0.00000  Uiso   1.00
H1607  H     0.92238   0.70151   0.90227   0.00000  Uiso   1.00
H1608  H     0.89362   0.74877   0.89252   0.00000  Uiso   1.00
N1609  N     0.83333   0.95240   0.83333   0.00000  Uiso   1.00
N1610  N     0.83333   0.71427   0.83333   0.00000  Uiso   1.00
O1611  O     0.77226   0.87154   0.83333   0.00000  Uiso   1.00
O1612  O     0.89441   0.79513   0.83334   0.00000  Uiso   1.00
O1613  O     0.89441   0.87154   0.83334   0.00000  Uiso   1.00
O1614  O     0.77226   0.79513   0.83333   0.00000  Uiso   1.00
O1615  O     0.83334   0.87155   0.76178   0.00000  Uiso   1.00
O1616  O     0.83333   0.79512   0.90489   0.00000  Uiso   1.00
O1617  O     0.83333   0.87155   0.90489   0.00000  Uiso   1.00
O1618  O     0.83334   0.79512   0.76178   0.00000  Uiso   1.00
Zn1619 Zn    0.83333   0.88437   0.83333   0.00000  Uiso   1.00
Zn1620 Zn    0.83333   0.78229   0.83333   0.00000  Uiso   1.00
loop_
_geom_bond_atom_site_label_1
_geom_bond_atom_site_label_2
_geom_bond_distance
_geom_bond_site_symmetry_2
_ccdc_geom_bond_type
C1     O54     1.302   .     A
C1     O51     1.306   .     A
C1     C4      1.422   .     S
C2     C4      1.395   .     A
C2     H43     1.084   .     S
C2     C143    1.371   1_455 S
C3     C23     1.399   .     A
C3     C24     1.395   .     A
C3     C12     1.422   .     S
C4     C22     1.399   .     A
C5     C9      1.527   .     S
C5     N50     1.385   .     A
C5     C368    1.447   1_545 S
C6     N49     1.389   .     A
C6     C11     1.529   .     S
C6     C187    1.450   .     S
C7     N50     1.384   .     A
C7     C14     1.526   .     S
C7     C366    1.450   1_545 S
C8     C16     1.520   .     S
C8     N49     1.386   .     A
C8     C185    1.447   .     S
C9     C10     1.526   .     S
C9     H47     1.109   .     S
C9     H48     1.070   .     S
C10    H45     1.107   .     S
C10    H46     1.108   .     S
C10    H44     1.111   .     S
C11    C13     1.524   .     S
C11    H29     1.073   .     S
C11    H30     1.106   .     S
C12    O53     1.301   .     A
C12    O52     1.306   .     A
C13    H28     1.102   .     S
C13    H26     1.107   .     S
C13    H27     1.110   .     S
C14    H34     1.106   .     S
C14    H35     1.083   .     S
C14    C15     1.531   .     S
C15    H32     1.108   .     S
C15    H31     1.103   .     S
C15    H33     1.109   .     S
C16    H40     1.090   .     S
C16    H41     1.105   .     S
C16    C17     1.528   .     S
C17    H38     1.110   .     S
C17    H39     1.095   .     S
C17    H37     1.110   .     S
C18    O55     1.296   .     A
C18    C20     1.376   .     S
C18    O58     1.302   .     A
C19    O56     1.296   .     A
C19    O57     1.302   .     A
C19    C21     1.376   .     S
C20    C1101   1.171   1_554 S
C21    C560    1.171   .     S
C22    H25     1.083   .     S
C22    C144    1.371   1_455 S
C23    H36     1.084   .     S
C23    C62     1.371   .     S
C24    H42     1.084   .     S
C24    C82     1.371   .     S
N49    Zn59    2.061   .     S
N50    Zn60    2.061   .     S
O51    Zn59    2.004   .     S
O52    Zn60    2.004   .     S
O53    Zn59    1.993   .     S
O54    Zn60    1.993   .     S
O55    Zn59    1.951   .     S
O56    Zn60    1.951   .     S
O57    Zn59    1.965   .     S
O58    Zn60    1.965   .     S
C61    O114    1.302   .     A
C61    O111    1.306   .     A
C61    C64     1.422   .     S
C62    C64     1.395   .     A
C62    H103    1.084   .     S
C63    C83     1.399   .     A
C63    C84     1.395   .     A
C63    C72     1.422   .     S
C64    C82     1.399   .     A
C65    C69     1.527   .     S
C65    N110    1.385   .     A
C65    C428    1.447   1_545 S
C66    N109    1.389   .     A
C66    C71     1.529   .     S
C66    C247    1.450   .     S
C67    N110    1.384   .     A
C67    C74     1.526   .     S
C67    C426    1.450   1_545 S
C68    C76     1.520   .     S
C68    N109    1.386   .     A
C68    C245    1.447   .     S
C69    C70     1.526   .     S
C69    H107    1.109   .     S
C69    H108    1.070   .     S
C70    H105    1.107   .     S
C70    H106    1.108   .     S
C70    H104    1.111   .     S
C71    C73     1.524   .     S
C71    H89     1.073   .     S
C71    H90     1.106   .     S
C72    O113    1.301   .     A
C72    O112    1.306   .     A
C73    H88     1.102   .     S
C73    H86     1.107   .     S
C73    H87     1.110   .     S
C74    H94     1.106   .     S
C74    H95     1.083   .     S
C74    C75     1.531   .     S
C75    H92     1.108   .     S
C75    H91     1.103   .     S
C75    H93     1.109   .     S
C76    H100    1.090   .     S
C76    H101    1.105   .     S
C76    C77     1.528   .     S
C77    H98     1.110   .     S
C77    H99     1.095   .     S
C77    H97     1.110   .     S
C78    O115    1.296   .     A
C78    C80     1.376   .     S
C78    O118    1.302   .     A
C79    O116    1.296   .     A
C79    O117    1.302   .     A
C79    C81     1.376   .     S
C80    C1161   1.171   1_554 S
C81    C620    1.171   .     S
C82    H85     1.083   .     S
C83    H96     1.084   .     S
C83    C122    1.371   .     S
C84    H102    1.084   .     S
C84    C142    1.371   .     S
N109   Zn119   2.061   .     S
N110   Zn120   2.061   .     S
O111   Zn119   2.004   .     S
O112   Zn120   2.004   .     S
O113   Zn119   1.993   .     S
O114   Zn120   1.993   .     S
O115   Zn119   1.951   .     S
O116   Zn120   1.951   .     S
O117   Zn119   1.965   .     S
O118   Zn120   1.965   .     S
C121   O174    1.302   .     A
C121   O171    1.306   .     A
C121   C124    1.422   .     S
C122   C124    1.395   .     A
C122   H163    1.084   .     S
C123   C143    1.399   .     A
C123   C144    1.395   .     A
C123   C132    1.422   .     S
C124   C142    1.399   .     A
C125   C129    1.527   .     S
C125   N170    1.385   .     A
C125   C488    1.447   1_545 S
C126   N169    1.389   .     A
C126   C131    1.529   .     S
C126   C307    1.450   .     S
C127   N170    1.384   .     A
C127   C134    1.526   .     S
C127   C486    1.450   1_545 S
C128   C136    1.520   .     S
C128   N169    1.386   .     A
C128   C305    1.447   .     S
C129   C130    1.526   .     S
C129   H167    1.109   .     S
C129   H168    1.070   .     S
C130   H165    1.107   .     S
C130   H166    1.108   .     S
C130   H164    1.111   .     S
C131   C133    1.524   .     S
C131   H149    1.073   .     S
C131   H150    1.106   .     S
C132   O173    1.301   .     A
C132   O172    1.306   .     A
C133   H148    1.102   .     S
C133   H146    1.107   .     S
C133   H147    1.110   .     S
C134   H154    1.106   .     S
C134   H155    1.083   .     S
C134   C135    1.531   .     S
C135   H152    1.108   .     S
C135   H151    1.103   .     S
C135   H153    1.109   .     S
C136   H160    1.090   .     S
C136   H161    1.105   .     S
C136   C137    1.528   .     S
C137   H158    1.110   .     S
C137   H159    1.095   .     S
C137   H157    1.110   .     S
C138   O175    1.296   .     A
C138   C140    1.376   .     S
C138   O178    1.302   .     A
C139   O176    1.296   .     A
C139   O177    1.302   .     A
C139   C141    1.376   .     S
C140   C1221   1.171   1_554 S
C141   C680    1.171   .     S
C142   H145    1.083   .     S
C143   H156    1.084   .     S
C143   C2      1.371   1_655 S
C144   H162    1.084   .     S
C144   C22     1.371   1_655 S
N169   Zn179   2.061   .     S
N170   Zn180   2.061   .     S
O171   Zn179   2.004   .     S
O172   Zn180   2.004   .     S
O173   Zn179   1.993   .     S
O174   Zn180   1.993   .     S
O175   Zn179   1.951   .     S
O176   Zn180   1.951   .     S
O177   Zn179   1.965   .     S
O178   Zn180   1.965   .     S
C181   O234    1.302   .     A
C181   O231    1.306   .     A
C181   C184    1.422   .     S
C182   C184    1.395   .     A
C182   H223    1.084   .     S
C182   C323    1.371   1_455 S
C183   C203    1.399   .     A
C183   C204    1.395   .     A
C183   C192    1.422   .     S
C184   C202    1.399   .     A
C185   C189    1.527   .     S
C185   N230    1.385   .     A
C186   N229    1.389   .     A
C186   C191    1.529   .     S
C186   C367    1.450   .     S
C187   N230    1.384   .     A
C187   C194    1.526   .     S
C188   C196    1.520   .     S
C188   N229    1.386   .     A
C188   C365    1.447   .     S
C189   C190    1.526   .     S
C189   H227    1.109   .     S
C189   H228    1.070   .     S
C190   H225    1.107   .     S
C190   H226    1.108   .     S
C190   H224    1.111   .     S
C191   C193    1.524   .     S
C191   H209    1.073   .     S
C191   H210    1.106   .     S
C192   O233    1.301   .     A
C192   O232    1.306   .     A
C193   H208    1.102   .     S
C193   H206    1.107   .     S
C193   H207    1.110   .     S
C194   H214    1.106   .     S
C194   H215    1.083   .     S
C194   C195    1.531   .     S
C195   H212    1.108   .     S
C195   H211    1.103   .     S
C195   H213    1.109   .     S
C196   H220    1.090   .     S
C196   H221    1.105   .     S
C196   C197    1.528   .     S
C197   H218    1.110   .     S
C197   H219    1.095   .     S
C197   H217    1.110   .     S
C198   O235    1.296   .     A
C198   C200    1.376   .     S
C198   O238    1.302   .     A
C199   O236    1.296   .     A
C199   O237    1.302   .     A
C199   C201    1.376   .     S
C200   C1281   1.171   1_554 S
C201   C740    1.171   .     S
C202   H205    1.083   .     S
C202   C324    1.371   1_455 S
C203   H216    1.084   .     S
C203   C242    1.371   .     S
C204   H222    1.084   .     S
C204   C262    1.371   .     S
N229   Zn239   2.061   .     S
N230   Zn240   2.061   .     S
O231   Zn239   2.004   .     S
O232   Zn240   2.004   .     S
O233   Zn239   1.993   .     S
O234   Zn240   1.993   .     S
O235   Zn239   1.951   .     S
O236   Zn240   1.951   .     S
O237   Zn239   1.965   .     S
O238   Zn240   1.965   .     S
C241   O294    1.302   .     A
C241   O291    1.306   .     A
C241   C244    1.422   .     S
C242   C244    1.395   .     A
C242   H283    1.084   .     S
C243   C263    1.399   .     A
C243   C264    1.395   .     A
C243   C252    1.422   .     S
C244   C262    1.399   .     A
C245   C249    1.527   .     S
C245   N290    1.385   .     A
C246   N289    1.389   .     A
C246   C251    1.529   .     S
C246   C427    1.450   .     S
C247   N290    1.384   .     A
C247   C254    1.526   .     S
C248   C256    1.520   .     S
C248   N289    1.386   .     A
C248   C425    1.447   .     S
C249   C250    1.526   .     S
C249   H287    1.109   .     S
C249   H288    1.070   .     S
C250   H285    1.107   .     S
C250   H286    1.108   .     S
C250   H284    1.111   .     S
C251   C253    1.524   .     S
C251   H269    1.073   .     S
C251   H270    1.106   .     S
C252   O293    1.301   .     A
C252   O292    1.306   .     A
C253   H268    1.102   .     S
C253   H266    1.107   .     S
C253   H267    1.110   .     S
C254   H274    1.106   .     S
C254   H275    1.083   .     S
C254   C255    1.531   .     S
C255   H272    1.108   .     S
C255   H271    1.103   .     S
C255   H273    1.109   .     S
C256   H280    1.090   .     S
C256   H281    1.105   .     S
C256   C257    1.528   .     S
C257   H278    1.110   .     S
C257   H279    1.095   .     S
C257   H277    1.110   .     S
C258   O295    1.296   .     A
C258   C260    1.376   .     S
C258   O298    1.302   .     A
C259   O296    1.296   .     A
C259   O297    1.302   .     A
C259   C261    1.376   .     S
C260   C1341   1.171   1_554 S
C261   C800    1.171   .     S
C262   H265    1.083   .     S
C263   H276    1.084   .     S
C263   C302    1.371   .     S
C264   H282    1.084   .     S
C264   C322    1.371   .     S
N289   Zn299   2.061   .     S
N290   Zn300   2.061   .     S
O291   Zn299   2.004   .     S
O292   Zn300   2.004   .     S
O293   Zn299   1.993   .     S
O294   Zn300   1.993   .     S
O295   Zn299   1.951   .     S
O296   Zn300   1.951   .     S
O297   Zn299   1.965   .     S
O298   Zn300   1.965   .     S
C301   O354    1.302   .     A
C301   O351    1.306   .     A
C301   C304    1.422   .     S
C302   C304    1.395   .     A
C302   H343    1.084   .     S
C303   C323    1.399   .     A
C303   C324    1.395   .     A
C303   C312    1.422   .     S
C304   C322    1.399   .     A
C305   C309    1.527   .     S
C305   N350    1.385   .     A
C306   N349    1.389   .     A
C306   C311    1.529   .     S
C306   C487    1.450   .     S
C307   N350    1.384   .     A
C307   C314    1.526   .     S
C308   C316    1.520   .     S
C308   N349    1.386   .     A
C308   C485    1.447   .     S
C309   C310    1.526   .     S
C309   H347    1.109   .     S
C309   H348    1.070   .     S
C310   H345    1.107   .     S
C310   H346    1.108   .     S
C310   H344    1.111   .     S
C311   C313    1.524   .     S
C311   H329    1.073   .     S
C311   H330    1.106   .     S
C312   O353    1.301   .     A
C312   O352    1.306   .     A
C313   H328    1.102   .     S
C313   H326    1.107   .     S
C313   H327    1.110   .     S
C314   H334    1.106   .     S
C314   H335    1.083   .     S
C314   C315    1.531   .     S
C315   H332    1.108   .     S
C315   H331    1.103   .     S
C315   H333    1.109   .     S
C316   H340    1.090   .     S
C316   H341    1.105   .     S
C316   C317    1.528   .     S
C317   H338    1.110   .     S
C317   H339    1.095   .     S
C317   H337    1.110   .     S
C318   O355    1.296   .     A
C318   C320    1.376   .     S
C318   O358    1.302   .     A
C319   O356    1.296   .     A
C319   O357    1.302   .     A
C319   C321    1.376   .     S
C320   C1401   1.171   1_554 S
C321   C860    1.171   .     S
C322   H325    1.083   .     S
C323   H336    1.084   .     S
C323   C182    1.371   1_655 S
C324   H342    1.084   .     S
C324   C202    1.371   1_655 S
N349   Zn359   2.061   .     S
N350   Zn360   2.061   .     S
O351   Zn359   2.004   .     S
O352   Zn360   2.004   .     S
O353   Zn359   1.993   .     S
O354   Zn360   1.993   .     S
O355   Zn359   1.951   .     S
O356   Zn360   1.951   .     S
O357   Zn359   1.965   .     S
O358   Zn360   1.965   .     S
C361   O414    1.302   .     A
C361   O411    1.306   .     A
C361   C364    1.422   .     S
C362   C364    1.395   .     A
C362   H403    1.084   .     S
C362   C503    1.371   1_455 S
C363   C383    1.399   .     A
C363   C384    1.395   .     A
C363   C372    1.422   .     S
C364   C382    1.399   .     A
C365   C369    1.527   .     S
C365   N410    1.385   .     A
C366   N409    1.389   .     A
C366   C371    1.529   .     S
C366   C7      1.450   1_565 S
C367   N410    1.384   .     A
C367   C374    1.526   .     S
C368   C376    1.520   .     S
C368   N409    1.386   .     A
C368   C5      1.447   1_565 S
C369   C370    1.526   .     S
C369   H407    1.109   .     S
C369   H408    1.070   .     S
C370   H405    1.107   .     S
C370   H406    1.108   .     S
C370   H404    1.111   .     S
C371   C373    1.524   .     S
C371   H389    1.073   .     S
C371   H390    1.106   .     S
C372   O413    1.301   .     A
C372   O412    1.306   .     A
C373   H388    1.102   .     S
C373   H386    1.107   .     S
C373   H387    1.110   .     S
C374   H394    1.106   .     S
C374   H395    1.083   .     S
C374   C375    1.531   .     S
C375   H392    1.108   .     S
C375   H391    1.103   .     S
C375   H393    1.109   .     S
C376   H400    1.090   .     S
C376   H401    1.105   .     S
C376   C377    1.528   .     S
C377   H398    1.110   .     S
C377   H399    1.095   .     S
C377   H397    1.110   .     S
C378   O415    1.296   .     A
C378   C380    1.376   .     S
C378   O418    1.302   .     A
C379   O416    1.296   .     A
C379   O417    1.302   .     A
C379   C381    1.376   .     S
C380   C1461   1.171   1_554 S
C381   C920    1.171   .     S
C382   H385    1.083   .     S
C382   C504    1.371   1_455 S
C383   H396    1.084   .     S
C383   C422    1.371   .     S
C384   H402    1.084   .     S
C384   C442    1.371   .     S
N409   Zn419   2.061   .     S
N410   Zn420   2.061   .     S
O411   Zn419   2.004   .     S
O412   Zn420   2.004   .     S
O413   Zn419   1.993   .     S
O414   Zn420   1.993   .     S
O415   Zn419   1.951   .     S
O416   Zn420   1.951   .     S
O417   Zn419   1.965   .     S
O418   Zn420   1.965   .     S
C421   O474    1.302   .     A
C421   O471    1.306   .     A
C421   C424    1.422   .     S
C422   C424    1.395   .     A
C422   H463    1.084   .     S
C423   C443    1.399   .     A
C423   C444    1.395   .     A
C423   C432    1.422   .     S
C424   C442    1.399   .     A
C425   C429    1.527   .     S
C425   N470    1.385   .     A
C426   N469    1.389   .     A
C426   C431    1.529   .     S
C426   C67     1.450   1_565 S
C427   N470    1.384   .     A
C427   C434    1.526   .     S
C428   C436    1.520   .     S
C428   N469    1.386   .     A
C428   C65     1.447   1_565 S
C429   C430    1.526   .     S
C429   H467    1.109   .     S
C429   H468    1.070   .     S
C430   H465    1.107   .     S
C430   H466    1.108   .     S
C430   H464    1.111   .     S
C431   C433    1.524   .     S
C431   H449    1.073   .     S
C431   H450    1.106   .     S
C432   O473    1.301   .     A
C432   O472    1.306   .     A
C433   H448    1.102   .     S
C433   H446    1.107   .     S
C433   H447    1.110   .     S
C434   H454    1.106   .     S
C434   H455    1.083   .     S
C434   C435    1.531   .     S
C435   H452    1.108   .     S
C435   H451    1.103   .     S
C435   H453    1.109   .     S
C436   H460    1.090   .     S
C436   H461    1.105   .     S
C436   C437    1.528   .     S
C437   H458    1.110   .     S
C437   H459    1.095   .     S
C437   H457    1.110   .     S
C438   O475    1.296   .     A
C438   C440    1.376   .     S
C438   O478    1.302   .     A
C439   O476    1.296   .     A
C439   O477    1.302   .     A
C439   C441    1.376   .     S
C440   C1521   1.171   1_554 S
C441   C980    1.171   .     S
C442   H445    1.083   .     S
C443   H456    1.084   .     S
C443   C482    1.371   .     S
C444   H462    1.084   .     S
C444   C502    1.371   .     S
N469   Zn479   2.061   .     S
N470   Zn480   2.061   .     S
O471   Zn479   2.004   .     S
O472   Zn480   2.004   .     S
O473   Zn479   1.993   .     S
O474   Zn480   1.993   .     S
O475   Zn479   1.951   .     S
O476   Zn480   1.951   .     S
O477   Zn479   1.965   .     S
O478   Zn480   1.965   .     S
C481   O534    1.302   .     A
C481   O531    1.306   .     A
C481   C484    1.422   .     S
C482   C484    1.395   .     A
C482   H523    1.084   .     S
C483   C503    1.399   .     A
C483   C504    1.395   .     A
C483   C492    1.422   .     S
C484   C502    1.399   .     A
C485   C489    1.527   .     S
C485   N530    1.385   .     A
C486   N529    1.389   .     A
C486   C491    1.529   .     S
C486   C127    1.450   1_565 S
C487   N530    1.384   .     A
C487   C494    1.526   .     S
C488   C496    1.520   .     S
C488   N529    1.386   .     A
C488   C125    1.447   1_565 S
C489   C490    1.526   .     S
C489   H527    1.109   .     S
C489   H528    1.070   .     S
C490   H525    1.107   .     S
C490   H526    1.108   .     S
C490   H524    1.111   .     S
C491   C493    1.524   .     S
C491   H509    1.073   .     S
C491   H510    1.106   .     S
C492   O533    1.301   .     A
C492   O532    1.306   .     A
C493   H508    1.102   .     S
C493   H506    1.107   .     S
C493   H507    1.110   .     S
C494   H514    1.106   .     S
C494   H515    1.083   .     S
C494   C495    1.531   .     S
C495   H512    1.108   .     S
C495   H511    1.103   .     S
C495   H513    1.109   .     S
C496   H520    1.090   .     S
C496   H521    1.105   .     S
C496   C497    1.528   .     S
C497   H518    1.110   .     S
C497   H519    1.095   .     S
C497   H517    1.110   .     S
C498   O535    1.296   .     A
C498   C500    1.376   .     S
C498   O538    1.302   .     A
C499   O536    1.296   .     A
C499   O537    1.302   .     A
C499   C501    1.376   .     S
C500   C1581   1.171   1_554 S
C501   C1040   1.171   .     S
C502   H505    1.083   .     S
C503   H516    1.084   .     S
C503   C362    1.371   1_655 S
C504   H522    1.084   .     S
C504   C382    1.371   1_655 S
N529   Zn539   2.061   .     S
N530   Zn540   2.061   .     S
O531   Zn539   2.004   .     S
O532   Zn540   2.004   .     S
O533   Zn539   1.993   .     S
O534   Zn540   1.993   .     S
O535   Zn539   1.951   .     S
O536   Zn540   1.951   .     S
O537   Zn539   1.965   .     S
O538   Zn540   1.965   .     S
C541   O594    1.302   .     A
C541   O591    1.306   .     A
C541   C544    1.422   .     S
C542   C544    1.395   .     A
C542   H583    1.084   .     S
C542   C683    1.371   1_455 S
C543   C563    1.399   .     A
C543   C564    1.395   .     A
C543   C552    1.422   .     S
C544   C562    1.399   .     A
C545   C549    1.527   .     S
C545   N590    1.385   .     A
C545   C908    1.447   1_545 S
C546   N589    1.389   .     A
C546   C551    1.529   .     S
C546   C727    1.450   .     S
C547   N590    1.384   .     A
C547   C554    1.526   .     S
C547   C906    1.450   1_545 S
C548   C556    1.520   .     S
C548   N589    1.386   .     A
C548   C725    1.447   .     S
C549   C550    1.526   .     S
C549   H587    1.109   .     S
C549   H588    1.070   .     S
C550   H585    1.107   .     S
C550   H586    1.108   .     S
C550   H584    1.111   .     S
C551   C553    1.524   .     S
C551   H569    1.073   .     S
C551   H570    1.106   .     S
C552   O593    1.301   .     A
C552   O592    1.306   .     A
C553   H568    1.102   .     S
C553   H566    1.107   .     S
C553   H567    1.110   .     S
C554   H574    1.106   .     S
C554   H575    1.083   .     S
C554   C555    1.531   .     S
C555   H572    1.108   .     S
C555   H571    1.103   .     S
C555   H573    1.109   .     S
C556   H580    1.090   .     S
C556   H581    1.105   .     S
C556   C557    1.528   .     S
C557   H578    1.110   .     S
C557   H579    1.095   .     S
C557   H577    1.110   .     S
C558   O595    1.296   .     A
C558   C560    1.376   .     S
C558   O598    1.302   .     A
C559   O596    1.296   .     A
C559   O597    1.302   .     A
C559   C561    1.376   .     S
C561   C1100   1.171   .     S
C562   H565    1.083   .     S
C562   C684    1.371   1_455 S
C563   H576    1.084   .     S
C563   C602    1.371   .     S
C564   H582    1.084   .     S
C564   C622    1.371   .     S
N589   Zn599   2.061   .     S
N590   Zn600   2.061   .     S
O591   Zn599   2.004   .     S
O592   Zn600   2.004   .     S
O593   Zn599   1.993   .     S
O594   Zn600   1.993   .     S
O595   Zn599   1.951   .     S
O596   Zn600   1.951   .     S
O597   Zn599   1.965   .     S
O598   Zn600   1.965   .     S
C601   O654    1.302   .     A
C601   O651    1.306   .     A
C601   C604    1.422   .     S
C602   C604    1.395   .     A
C602   H643    1.084   .     S
C603   C623    1.399   .     A
C603   C624    1.395   .     A
C603   C612    1.422   .     S
C604   C622    1.399   .     A
C605   C609    1.527   .     S
C605   N650    1.385   .     A
C605   C968    1.447   1_545 S
C606   N649    1.389   .     A
C606   C611    1.529   .     S
C606   C787    1.450   .     S
C607   N650    1.384   .     A
C607   C614    1.526   .     S
C607   C966    1.450   1_545 S
C608   C616    1.520   .     S
C608   N649    1.386   .     A
C608   C785    1.447   .     S
C609   C610    1.526   .     S
C609   H647    1.109   .     S
C609   H648    1.070   .     S
C610   H645    1.107   .     S
C610   H646    1.108   .     S
C610   H644    1.111   .     S
C611   C613    1.524   .     S
C611   H629    1.073   .     S
C611   H630    1.106   .     S
C612   O653    1.301   .     A
C612   O652    1.306   .     A
C613   H628    1.102   .     S
C613   H626    1.107   .     S
C613   H627    1.110   .     S
C614   H634    1.106   .     S
C614   H635    1.083   .     S
C614   C615    1.531   .     S
C615   H632    1.108   .     S
C615   H631    1.103   .     S
C615   H633    1.109   .     S
C616   H640    1.090   .     S
C616   H641    1.105   .     S
C616   C617    1.528   .     S
C617   H638    1.110   .     S
C617   H639    1.095   .     S
C617   H637    1.110   .     S
C618   O655    1.296   .     A
C618   C620    1.376   .     S
C618   O658    1.302   .     A
C619   O656    1.296   .     A
C619   O657    1.302   .     A
C619   C621    1.376   .     S
C621   C1160   1.171   .     S
C622   H625    1.083   .     S
C623   H636    1.084   .     S
C623   C662    1.371   .     S
C624   H642    1.084   .     S
C624   C682    1.371   .     S
N649   Zn659   2.061   .     S
N650   Zn660   2.061   .     S
O651   Zn659   2.004   .     S
O652   Zn660   2.004   .     S
O653   Zn659   1.993   .     S
O654   Zn660   1.993   .     S
O655   Zn659   1.951   .     S
O656   Zn660   1.951   .     S
O657   Zn659   1.965   .     S
O658   Zn660   1.965   .     S
C661   O714    1.302   .     A
C661   O711    1.306   .     A
C661   C664    1.422   .     S
C662   C664    1.395   .     A
C662   H703    1.084   .     S
C663   C683    1.399   .     A
C663   C684    1.395   .     A
C663   C672    1.422   .     S
C664   C682    1.399   .     A
C665   C669    1.527   .     S
C665   N710    1.385   .     A
C665   C1028   1.447   1_545 S
C666   N709    1.389   .     A
C666   C671    1.529   .     S
C666   C847    1.450   .     S
C667   N710    1.384   .     A
C667   C674    1.526   .     S
C667   C1026   1.450   1_545 S
C668   C676    1.520   .     S
C668   N709    1.386   .     A
C668   C845    1.447   .     S
C669   C670    1.526   .     S
C669   H707    1.109   .     S
C669   H708    1.070   .     S
C670   H705    1.107   .     S
C670   H706    1.108   .     S
C670   H704    1.111   .     S
C671   C673    1.524   .     S
C671   H689    1.073   .     S
C671   H690    1.106   .     S
C672   O713    1.301   .     A
C672   O712    1.306   .     A
C673   H688    1.102   .     S
C673   H686    1.107   .     S
C673   H687    1.110   .     S
C674   H694    1.106   .     S
C674   H695    1.083   .     S
C674   C675    1.531   .     S
C675   H692    1.108   .     S
C675   H691    1.103   .     S
C675   H693    1.109   .     S
C676   H700    1.090   .     S
C676   H701    1.105   .     S
C676   C677    1.528   .     S
C677   H698    1.110   .     S
C677   H699    1.095   .     S
C677   H697    1.110   .     S
C678   O715    1.296   .     A
C678   C680    1.376   .     S
C678   O718    1.302   .     A
C679   O716    1.296   .     A
C679   O717    1.302   .     A
C679   C681    1.376   .     S
C681   C1220   1.171   .     S
C682   H685    1.083   .     S
C683   H696    1.084   .     S
C683   C542    1.371   1_655 S
C684   H702    1.084   .     S
C684   C562    1.371   1_655 S
N709   Zn719   2.061   .     S
N710   Zn720   2.061   .     S
O711   Zn719   2.004   .     S
O712   Zn720   2.004   .     S
O713   Zn719   1.993   .     S
O714   Zn720   1.993   .     S
O715   Zn719   1.951   .     S
O716   Zn720   1.951   .     S
O717   Zn719   1.965   .     S
O718   Zn720   1.965   .     S
C721   O774    1.302   .     A
C721   O771    1.306   .     A
C721   C724    1.422   .     S
C722   C724    1.395   .     A
C722   H763    1.084   .     S
C722   C863    1.371   1_455 S
C723   C743    1.399   .     A
C723   C744    1.395   .     A
C723   C732    1.422   .     S
C724   C742    1.399   .     A
C725   C729    1.527   .     S
C725   N770    1.385   .     A
C726   N769    1.389   .     A
C726   C731    1.529   .     S
C726   C907    1.450   .     S
C727   N770    1.384   .     A
C727   C734    1.526   .     S
C728   C736    1.520   .     S
C728   N769    1.386   .     A
C728   C905    1.447   .     S
C729   C730    1.526   .     S
C729   H767    1.109   .     S
C729   H768    1.070   .     S
C730   H765    1.107   .     S
C730   H766    1.108   .     S
C730   H764    1.111   .     S
C731   C733    1.524   .     S
C731   H749    1.073   .     S
C731   H750    1.106   .     S
C732   O773    1.301   .     A
C732   O772    1.306   .     A
C733   H748    1.102   .     S
C733   H746    1.107   .     S
C733   H747    1.110   .     S
C734   H754    1.106   .     S
C734   H755    1.083   .     S
C734   C735    1.531   .     S
C735   H752    1.108   .     S
C735   H751    1.103   .     S
C735   H753    1.109   .     S
C736   H760    1.090   .     S
C736   H761    1.105   .     S
C736   C737    1.528   .     S
C737   H758    1.110   .     S
C737   H759    1.095   .     S
C737   H757    1.110   .     S
C738   O775    1.296   .     A
C738   C740    1.376   .     S
C738   O778    1.302   .     A
C739   O776    1.296   .     A
C739   O777    1.302   .     A
C739   C741    1.376   .     S
C741   C1280   1.171   .     S
C742   H745    1.083   .     S
C742   C864    1.371   1_455 S
C743   H756    1.084   .     S
C743   C782    1.371   .     S
C744   H762    1.084   .     S
C744   C802    1.371   .     S
N769   Zn779   2.061   .     S
N770   Zn780   2.061   .     S
O771   Zn779   2.004   .     S
O772   Zn780   2.004   .     S
O773   Zn779   1.993   .     S
O774   Zn780   1.993   .     S
O775   Zn779   1.951   .     S
O776   Zn780   1.951   .     S
O777   Zn779   1.965   .     S
O778   Zn780   1.965   .     S
C781   O834    1.302   .     A
C781   O831    1.306   .     A
C781   C784    1.422   .     S
C782   C784    1.395   .     A
C782   H823    1.084   .     S
C783   C803    1.399   .     A
C783   C804    1.395   .     A
C783   C792    1.422   .     S
C784   C802    1.399   .     A
C785   C789    1.527   .     S
C785   N830    1.385   .     A
C786   N829    1.389   .     A
C786   C791    1.529   .     S
C786   C967    1.450   .     S
C787   N830    1.384   .     A
C787   C794    1.526   .     S
C788   C796    1.520   .     S
C788   N829    1.386   .     A
C788   C965    1.447   .     S
C789   C790    1.526   .     S
C789   H827    1.109   .     S
C789   H828    1.070   .     S
C790   H825    1.107   .     S
C790   H826    1.108   .     S
C790   H824    1.111   .     S
C791   C793    1.524   .     S
C791   H809    1.073   .     S
C791   H810    1.106   .     S
C792   O833    1.301   .     A
C792   O832    1.306   .     A
C793   H808    1.102   .     S
C793   H806    1.107   .     S
C793   H807    1.110   .     S
C794   H814    1.106   .     S
C794   H815    1.083   .     S
C794   C795    1.531   .     S
C795   H812    1.108   .     S
C795   H811    1.103   .     S
C795   H813    1.109   .     S
C796   H820    1.090   .     S
C796   H821    1.105   .     S
C796   C797    1.528   .     S
C797   H818    1.110   .     S
C797   H819    1.095   .     S
C797   H817    1.110   .     S
C798   O835    1.296   .     A
C798   C800    1.376   .     S
C798   O838    1.302   .     A
C799   O836    1.296   .     A
C799   O837    1.302   .     A
C799   C801    1.376   .     S
C801   C1340   1.171   .     S
C802   H805    1.083   .     S
C803   H816    1.084   .     S
C803   C842    1.371   .     S
C804   H822    1.084   .     S
C804   C862    1.371   .     S
N829   Zn839   2.061   .     S
N830   Zn840   2.061   .     S
O831   Zn839   2.004   .     S
O832   Zn840   2.004   .     S
O833   Zn839   1.993   .     S
O834   Zn840   1.993   .     S
O835   Zn839   1.951   .     S
O836   Zn840   1.951   .     S
O837   Zn839   1.965   .     S
O838   Zn840   1.965   .     S
C841   O894    1.302   .     A
C841   O891    1.306   .     A
C841   C844    1.422   .     S
C842   C844    1.395   .     A
C842   H883    1.084   .     S
C843   C863    1.399   .     A
C843   C864    1.395   .     A
C843   C852    1.422   .     S
C844   C862    1.399   .     A
C845   C849    1.527   .     S
C845   N890    1.385   .     A
C846   N889    1.389   .     A
C846   C851    1.529   .     S
C846   C1027   1.450   .     S
C847   N890    1.384   .     A
C847   C854    1.526   .     S
C848   C856    1.520   .     S
C848   N889    1.386   .     A
C848   C1025   1.447   .     S
C849   C850    1.526   .     S
C849   H887    1.109   .     S
C849   H888    1.070   .     S
C850   H885    1.107   .     S
C850   H886    1.108   .     S
C850   H884    1.111   .     S
C851   C853    1.524   .     S
C851   H869    1.073   .     S
C851   H870    1.106   .     S
C852   O893    1.301   .     A
C852   O892    1.306   .     A
C853   H868    1.102   .     S
C853   H866    1.107   .     S
C853   H867    1.110   .     S
C854   H874    1.106   .     S
C854   H875    1.083   .     S
C854   C855    1.531   .     S
C855   H872    1.108   .     S
C855   H871    1.103   .     S
C855   H873    1.109   .     S
C856   H880    1.090   .     S
C856   H881    1.105   .     S
C856   C857    1.528   .     S
C857   H878    1.110   .     S
C857   H879    1.095   .     S
C857   H877    1.110   .     S
C858   O895    1.296   .     A
C858   C860    1.376   .     S
C858   O898    1.302   .     A
C859   O896    1.296   .     A
C859   O897    1.302   .     A
C859   C861    1.376   .     S
C861   C1400   1.171   .     S
C862   H865    1.083   .     S
C863   H876    1.084   .     S
C863   C722    1.371   1_655 S
C864   H882    1.084   .     S
C864   C742    1.371   1_655 S
N889   Zn899   2.061   .     S
N890   Zn900   2.061   .     S
O891   Zn899   2.004   .     S
O892   Zn900   2.004   .     S
O893   Zn899   1.993   .     S
O894   Zn900   1.993   .     S
O895   Zn899   1.951   .     S
O896   Zn900   1.951   .     S
O897   Zn899   1.965   .     S
O898   Zn900   1.965   .     S
C901   O954    1.302   .     A
C901   O951    1.306   .     A
C901   C904    1.422   .     S
C902   C904    1.395   .     A
C902   H943    1.084   .     S
C902   C1043   1.371   1_455 S
C903   C923    1.399   .     A
C903   C924    1.395   .     A
C903   C912    1.422   .     S
C904   C922    1.399   .     A
C905   C909    1.527   .     S
C905   N950    1.385   .     A
C906   N949    1.389   .     A
C906   C911    1.529   .     S
C906   C547    1.450   1_565 S
C907   N950    1.384   .     A
C907   C914    1.526   .     S
C908   C916    1.520   .     S
C908   N949    1.386   .     A
C908   C545    1.447   1_565 S
C909   C910    1.526   .     S
C909   H947    1.109   .     S
C909   H948    1.070   .     S
C910   H945    1.107   .     S
C910   H946    1.108   .     S
C910   H944    1.111   .     S
C911   C913    1.524   .     S
C911   H929    1.073   .     S
C911   H930    1.106   .     S
C912   O953    1.301   .     A
C912   O952    1.306   .     A
C913   H928    1.102   .     S
C913   H926    1.107   .     S
C913   H927    1.110   .     S
C914   H934    1.106   .     S
C914   H935    1.083   .     S
C914   C915    1.531   .     S
C915   H932    1.108   .     S
C915   H931    1.103   .     S
C915   H933    1.109   .     S
C916   H940    1.090   .     S
C916   H941    1.105   .     S
C916   C917    1.528   .     S
C917   H938    1.110   .     S
C917   H939    1.095   .     S
C917   H937    1.110   .     S
C918   O955    1.296   .     A
C918   C920    1.376   .     S
C918   O958    1.302   .     A
C919   O956    1.296   .     A
C919   O957    1.302   .     A
C919   C921    1.376   .     S
C921   C1460   1.171   .     S
C922   H925    1.083   .     S
C922   C1044   1.371   1_455 S
C923   H936    1.084   .     S
C923   C962    1.371   .     S
C924   H942    1.084   .     S
C924   C982    1.371   .     S
N949   Zn959   2.061   .     S
N950   Zn960   2.061   .     S
O951   Zn959   2.004   .     S
O952   Zn960   2.004   .     S
O953   Zn959   1.993   .     S
O954   Zn960   1.993   .     S
O955   Zn959   1.951   .     S
O956   Zn960   1.951   .     S
O957   Zn959   1.965   .     S
O958   Zn960   1.965   .     S
C961   O1014   1.302   .     A
C961   O1011   1.306   .     A
C961   C964    1.422   .     S
C962   C964    1.395   .     A
C962   H1003   1.084   .     S
C963   C983    1.399   .     A
C963   C984    1.395   .     A
C963   C972    1.422   .     S
C964   C982    1.399   .     A
C965   C969    1.527   .     S
C965   N1010   1.385   .     A
C966   N1009   1.389   .     A
C966   C971    1.529   .     S
C966   C607    1.450   1_565 S
C967   N1010   1.384   .     A
C967   C974    1.526   .     S
C968   C976    1.520   .     S
C968   N1009   1.386   .     A
C968   C605    1.447   1_565 S
C969   C970    1.526   .     S
C969   H1007   1.109   .     S
C969   H1008   1.070   .     S
C970   H1005   1.107   .     S
C970   H1006   1.108   .     S
C970   H1004   1.111   .     S
C971   C973    1.524   .     S
C971   H989    1.073   .     S
C971   H990    1.106   .     S
C972   O1013   1.301   .     A
C972   O1012   1.306   .     A
C973   H988    1.102   .     S
C973   H986    1.107   .     S
C973   H987    1.110   .     S
C974   H994    1.106   .     S
C974   H995    1.083   .     S
C974   C975    1.531   .     S
C975   H992    1.108   .     S
C975   H991    1.103   .     S
C975   H993    1.109   .     S
C976   H1000   1.090   .     S
C976   H1001   1.105   .     S
C976   C977    1.528   .     S
C977   H998    1.110   .     S
C977   H999    1.095   .     S
C977   H997    1.110   .     S
C978   O1015   1.296   .     A
C978   C980    1.376   .     S
C978   O1018   1.302   .     A
C979   O1016   1.296   .     A
C979   O1017   1.302   .     A
C979   C981    1.376   .     S
C981   C1520   1.171   .     S
C982   H985    1.083   .     S
C983   H996    1.084   .     S
C983   C1022   1.371   .     S
C984   H1002   1.084   .     S
C984   C1042   1.371   .     S
N1009  Zn1019  2.061   .     S
N1010  Zn1020  2.061   .     S
O1011  Zn1019  2.004   .     S
O1012  Zn1020  2.004   .     S
O1013  Zn1019  1.993   .     S
O1014  Zn1020  1.993   .     S
O1015  Zn1019  1.951   .     S
O1016  Zn1020  1.951   .     S
O1017  Zn1019  1.965   .     S
O1018  Zn1020  1.965   .     S
C1021  O1074   1.302   .     A
C1021  O1071   1.306   .     A
C1021  C1024   1.422   .     S
C1022  C1024   1.395   .     A
C1022  H1063   1.084   .     S
C1023  C1043   1.399   .     A
C1023  C1044   1.395   .     A
C1023  C1032   1.422   .     S
C1024  C1042   1.399   .     A
C1025  C1029   1.527   .     S
C1025  N1070   1.385   .     A
C1026  N1069   1.389   .     A
C1026  C1031   1.529   .     S
C1026  C667    1.450   1_565 S
C1027  N1070   1.384   .     A
C1027  C1034   1.526   .     S
C1028  C1036   1.520   .     S
C1028  N1069   1.386   .     A
C1028  C665    1.447   1_565 S
C1029  C1030   1.526   .     S
C1029  H1067   1.109   .     S
C1029  H1068   1.070   .     S
C1030  H1065   1.107   .     S
C1030  H1066   1.108   .     S
C1030  H1064   1.111   .     S
C1031  C1033   1.524   .     S
C1031  H1049   1.073   .     S
C1031  H1050   1.106   .     S
C1032  O1073   1.301   .     A
C1032  O1072   1.306   .     A
C1033  H1048   1.102   .     S
C1033  H1046   1.107   .     S
C1033  H1047   1.110   .     S
C1034  H1054   1.106   .     S
C1034  H1055   1.083   .     S
C1034  C1035   1.531   .     S
C1035  H1052   1.108   .     S
C1035  H1051   1.103   .     S
C1035  H1053   1.109   .     S
C1036  H1060   1.090   .     S
C1036  H1061   1.105   .     S
C1036  C1037   1.528   .     S
C1037  H1058   1.110   .     S
C1037  H1059   1.095   .     S
C1037  H1057   1.110   .     S
C1038  O1075   1.296   .     A
C1038  C1040   1.376   .     S
C1038  O1078   1.302   .     A
C1039  O1076   1.296   .     A
C1039  O1077   1.302   .     A
C1039  C1041   1.376   .     S
C1041  C1580   1.171   .     S
C1042  H1045   1.083   .     S
C1043  H1056   1.084   .     S
C1043  C902    1.371   1_655 S
C1044  H1062   1.084   .     S
C1044  C922    1.371   1_655 S
N1069  Zn1079  2.061   .     S
N1070  Zn1080  2.061   .     S
O1071  Zn1079  2.004   .     S
O1072  Zn1080  2.004   .     S
O1073  Zn1079  1.993   .     S
O1074  Zn1080  1.993   .     S
O1075  Zn1079  1.951   .     S
O1076  Zn1080  1.951   .     S
O1077  Zn1079  1.965   .     S
O1078  Zn1080  1.965   .     S
C1081  O1134   1.302   .     A
C1081  O1131   1.306   .     A
C1081  C1084   1.422   .     S
C1082  C1084   1.395   .     A
C1082  H1123   1.084   .     S
C1082  C1223   1.371   1_455 S
C1083  C1103   1.399   .     A
C1083  C1104   1.395   .     A
C1083  C1092   1.422   .     S
C1084  C1102   1.399   .     A
C1085  C1089   1.527   .     S
C1085  N1130   1.385   .     A
C1085  C1448   1.447   1_545 S
C1086  N1129   1.389   .     A
C1086  C1091   1.529   .     S
C1086  C1267   1.450   .     S
C1087  N1130   1.384   .     A
C1087  C1094   1.526   .     S
C1087  C1446   1.450   1_545 S
C1088  C1096   1.520   .     S
C1088  N1129   1.386   .     A
C1088  C1265   1.447   .     S
C1089  C1090   1.526   .     S
C1089  H1127   1.109   .     S
C1089  H1128   1.070   .     S
C1090  H1125   1.107   .     S
C1090  H1126   1.108   .     S
C1090  H1124   1.111   .     S
C1091  C1093   1.524   .     S
C1091  H1109   1.073   .     S
C1091  H1110   1.106   .     S
C1092  O1133   1.301   .     A
C1092  O1132   1.306   .     A
C1093  H1108   1.102   .     S
C1093  H1106   1.107   .     S
C1093  H1107   1.110   .     S
C1094  H1114   1.106   .     S
C1094  H1115   1.083   .     S
C1094  C1095   1.531   .     S
C1095  H1112   1.108   .     S
C1095  H1111   1.103   .     S
C1095  H1113   1.109   .     S
C1096  H1120   1.090   .     S
C1096  H1121   1.105   .     S
C1096  C1097   1.528   .     S
C1097  H1118   1.110   .     S
C1097  H1119   1.095   .     S
C1097  H1117   1.110   .     S
C1098  O1135   1.296   .     A
C1098  C1100   1.376   .     S
C1098  O1138   1.302   .     A
C1099  O1136   1.296   .     A
C1099  O1137   1.302   .     A
C1099  C1101   1.376   .     S
C1101  C20     1.171   1_556 S
C1102  H1105   1.083   .     S
C1102  C1224   1.371   1_455 S
C1103  H1116   1.084   .     S
C1103  C1142   1.371   .     S
C1104  H1122   1.084   .     S
C1104  C1162   1.371   .     S
N1129  Zn1139  2.061   .     S
N1130  Zn1140  2.061   .     S
O1131  Zn1139  2.004   .     S
O1132  Zn1140  2.004   .     S
O1133  Zn1139  1.993   .     S
O1134  Zn1140  1.993   .     S
O1135  Zn1139  1.951   .     S
O1136  Zn1140  1.951   .     S
O1137  Zn1139  1.965   .     S
O1138  Zn1140  1.965   .     S
C1141  O1194   1.302   .     A
C1141  O1191   1.306   .     A
C1141  C1144   1.422   .     S
C1142  C1144   1.395   .     A
C1142  H1183   1.084   .     S
C1143  C1163   1.399   .     A
C1143  C1164   1.395   .     A
C1143  C1152   1.422   .     S
C1144  C1162   1.399   .     A
C1145  C1149   1.527   .     S
C1145  N1190   1.385   .     A
C1145  C1508   1.447   1_545 S
C1146  N1189   1.389   .     A
C1146  C1151   1.529   .     S
C1146  C1327   1.450   .     S
C1147  N1190   1.384   .     A
C1147  C1154   1.526   .     S
C1147  C1506   1.450   1_545 S
C1148  C1156   1.520   .     S
C1148  N1189   1.386   .     A
C1148  C1325   1.447   .     S
C1149  C1150   1.526   .     S
C1149  H1187   1.109   .     S
C1149  H1188   1.070   .     S
C1150  H1185   1.107   .     S
C1150  H1186   1.108   .     S
C1150  H1184   1.111   .     S
C1151  C1153   1.524   .     S
C1151  H1169   1.073   .     S
C1151  H1170   1.106   .     S
C1152  O1193   1.301   .     A
C1152  O1192   1.306   .     A
C1153  H1168   1.102   .     S
C1153  H1166   1.107   .     S
C1153  H1167   1.110   .     S
C1154  H1174   1.106   .     S
C1154  H1175   1.083   .     S
C1154  C1155   1.531   .     S
C1155  H1172   1.108   .     S
C1155  H1171   1.103   .     S
C1155  H1173   1.109   .     S
C1156  H1180   1.090   .     S
C1156  H1181   1.105   .     S
C1156  C1157   1.528   .     S
C1157  H1178   1.110   .     S
C1157  H1179   1.095   .     S
C1157  H1177   1.110   .     S
C1158  O1195   1.296   .     A
C1158  C1160   1.376   .     S
C1158  O1198   1.302   .     A
C1159  O1196   1.296   .     A
C1159  O1197   1.302   .     A
C1159  C1161   1.376   .     S
C1161  C80     1.171   1_556 S
C1162  H1165   1.083   .     S
C1163  H1176   1.084   .     S
C1163  C1202   1.371   .     S
C1164  H1182   1.084   .     S
C1164  C1222   1.371   .     S
N1189  Zn1199  2.061   .     S
N1190  Zn1200  2.061   .     S
O1191  Zn1199  2.004   .     S
O1192  Zn1200  2.004   .     S
O1193  Zn1199  1.993   .     S
O1194  Zn1200  1.993   .     S
O1195  Zn1199  1.951   .     S
O1196  Zn1200  1.951   .     S
O1197  Zn1199  1.965   .     S
O1198  Zn1200  1.965   .     S
C1201  O1254   1.302   .     A
C1201  O1251   1.306   .     A
C1201  C1204   1.422   .     S
C1202  C1204   1.395   .     A
C1202  H1243   1.084   .     S
C1203  C1223   1.399   .     A
C1203  C1224   1.395   .     A
C1203  C1212   1.422   .     S
C1204  C1222   1.399   .     A
C1205  C1209   1.527   .     S
C1205  N1250   1.385   .     A
C1205  C1568   1.447   1_545 S
C1206  N1249   1.389   .     A
C1206  C1211   1.529   .     S
C1206  C1387   1.450   .     S
C1207  N1250   1.384   .     A
C1207  C1214   1.526   .     S
C1207  C1566   1.450   1_545 S
C1208  C1216   1.520   .     S
C1208  N1249   1.386   .     A
C1208  C1385   1.447   .     S
C1209  C1210   1.526   .     S
C1209  H1247   1.109   .     S
C1209  H1248   1.070   .     S
C1210  H1245   1.107   .     S
C1210  H1246   1.108   .     S
C1210  H1244   1.111   .     S
C1211  C1213   1.524   .     S
C1211  H1229   1.073   .     S
C1211  H1230   1.106   .     S
C1212  O1253   1.301   .     A
C1212  O1252   1.306   .     A
C1213  H1228   1.102   .     S
C1213  H1226   1.107   .     S
C1213  H1227   1.110   .     S
C1214  H1234   1.106   .     S
C1214  H1235   1.083   .     S
C1214  C1215   1.531   .     S
C1215  H1232   1.108   .     S
C1215  H1231   1.103   .     S
C1215  H1233   1.109   .     S
C1216  H1240   1.090   .     S
C1216  H1241   1.105   .     S
C1216  C1217   1.528   .     S
C1217  H1238   1.110   .     S
C1217  H1239   1.095   .     S
C1217  H1237   1.110   .     S
C1218  O1255   1.296   .     A
C1218  C1220   1.376   .     S
C1218  O1258   1.302   .     A
C1219  O1256   1.296   .     A
C1219  O1257   1.302   .     A
C1219  C1221   1.376   .     S
C1221  C140    1.171   1_556 S
C1222  H1225   1.083   .     S
C1223  H1236   1.084   .     S
C1223  C1082   1.371   1_655 S
C1224  H1242   1.084   .     S
C1224  C1102   1.371   1_655 S
N1249  Zn1259  2.061   .     S
N1250  Zn1260  2.061   .     S
O1251  Zn1259  2.004   .     S
O1252  Zn1260  2.004   .     S
O1253  Zn1259  1.993   .     S
O1254  Zn1260  1.993   .     S
O1255  Zn1259  1.951   .     S
O1256  Zn1260  1.951   .     S
O1257  Zn1259  1.965   .     S
O1258  Zn1260  1.965   .     S
C1261  O1314   1.302   .     A
C1261  O1311   1.306   .     A
C1261  C1264   1.422   .     S
C1262  C1264   1.395   .     A
C1262  H1303   1.084   .     S
C1262  C1403   1.371   1_455 S
C1263  C1283   1.399   .     A
C1263  C1284   1.395   .     A
C1263  C1272   1.422   .     S
C1264  C1282   1.399   .     A
C1265  C1269   1.527   .     S
C1265  N1310   1.385   .     A
C1266  N1309   1.389   .     A
C1266  C1271   1.529   .     S
C1266  C1447   1.450   .     S
C1267  N1310   1.384   .     A
C1267  C1274   1.526   .     S
C1268  C1276   1.520   .     S
C1268  N1309   1.386   .     A
C1268  C1445   1.447   .     S
C1269  C1270   1.526   .     S
C1269  H1307   1.109   .     S
C1269  H1308   1.070   .     S
C1270  H1305   1.107   .     S
C1270  H1306   1.108   .     S
C1270  H1304   1.111   .     S
C1271  C1273   1.524   .     S
C1271  H1289   1.073   .     S
C1271  H1290   1.106   .     S
C1272  O1313   1.301   .     A
C1272  O1312   1.306   .     A
C1273  H1288   1.102   .     S
C1273  H1286   1.107   .     S
C1273  H1287   1.110   .     S
C1274  H1294   1.106   .     S
C1274  H1295   1.083   .     S
C1274  C1275   1.531   .     S
C1275  H1292   1.108   .     S
C1275  H1291   1.103   .     S
C1275  H1293   1.109   .     S
C1276  H1300   1.090   .     S
C1276  H1301   1.105   .     S
C1276  C1277   1.528   .     S
C1277  H1298   1.110   .     S
C1277  H1299   1.095   .     S
C1277  H1297   1.110   .     S
C1278  O1315   1.296   .     A
C1278  C1280   1.376   .     S
C1278  O1318   1.302   .     A
C1279  O1316   1.296   .     A
C1279  O1317   1.302   .     A
C1279  C1281   1.376   .     S
C1281  C200    1.171   1_556 S
C1282  H1285   1.083   .     S
C1282  C1404   1.371   1_455 S
C1283  H1296   1.084   .     S
C1283  C1322   1.371   .     S
C1284  H1302   1.084   .     S
C1284  C1342   1.371   .     S
N1309  Zn1319  2.061   .     S
N1310  Zn1320  2.061   .     S
O1311  Zn1319  2.004   .     S
O1312  Zn1320  2.004   .     S
O1313  Zn1319  1.993   .     S
O1314  Zn1320  1.993   .     S
O1315  Zn1319  1.951   .     S
O1316  Zn1320  1.951   .     S
O1317  Zn1319  1.965   .     S
O1318  Zn1320  1.965   .     S
C1321  O1374   1.302   .     A
C1321  O1371   1.306   .     A
C1321  C1324   1.422   .     S
C1322  C1324   1.395   .     A
C1322  H1363   1.084   .     S
C1323  C1343   1.399   .     A
C1323  C1344   1.395   .     A
C1323  C1332   1.422   .     S
C1324  C1342   1.399   .     A
C1325  C1329   1.527   .     S
C1325  N1370   1.385   .     A
C1326  N1369   1.389   .     A
C1326  C1331   1.529   .     S
C1326  C1507   1.450   .     S
C1327  N1370   1.384   .     A
C1327  C1334   1.526   .     S
C1328  C1336   1.520   .     S
C1328  N1369   1.386   .     A
C1328  C1505   1.447   .     S
C1329  C1330   1.526   .     S
C1329  H1367   1.109   .     S
C1329  H1368   1.070   .     S
C1330  H1365   1.107   .     S
C1330  H1366   1.108   .     S
C1330  H1364   1.111   .     S
C1331  C1333   1.524   .     S
C1331  H1349   1.073   .     S
C1331  H1350   1.106   .     S
C1332  O1373   1.301   .     A
C1332  O1372   1.306   .     A
C1333  H1348   1.102   .     S
C1333  H1346   1.107   .     S
C1333  H1347   1.110   .     S
C1334  H1354   1.106   .     S
C1334  H1355   1.083   .     S
C1334  C1335   1.531   .     S
C1335  H1352   1.108   .     S
C1335  H1351   1.103   .     S
C1335  H1353   1.109   .     S
C1336  H1360   1.090   .     S
C1336  H1361   1.105   .     S
C1336  C1337   1.528   .     S
C1337  H1358   1.110   .     S
C1337  H1359   1.095   .     S
C1337  H1357   1.110   .     S
C1338  O1375   1.296   .     A
C1338  C1340   1.376   .     S
C1338  O1378   1.302   .     A
C1339  O1376   1.296   .     A
C1339  O1377   1.302   .     A
C1339  C1341   1.376   .     S
C1341  C260    1.171   1_556 S
C1342  H1345   1.083   .     S
C1343  H1356   1.084   .     S
C1343  C1382   1.371   .     S
C1344  H1362   1.084   .     S
C1344  C1402   1.371   .     S
N1369  Zn1379  2.061   .     S
N1370  Zn1380  2.061   .     S
O1371  Zn1379  2.004   .     S
O1372  Zn1380  2.004   .     S
O1373  Zn1379  1.993   .     S
O1374  Zn1380  1.993   .     S
O1375  Zn1379  1.951   .     S
O1376  Zn1380  1.951   .     S
O1377  Zn1379  1.965   .     S
O1378  Zn1380  1.965   .     S
C1381  O1434   1.302   .     A
C1381  O1431   1.306   .     A
C1381  C1384   1.422   .     S
C1382  C1384   1.395   .     A
C1382  H1423   1.084   .     S
C1383  C1403   1.399   .     A
C1383  C1404   1.395   .     A
C1383  C1392   1.422   .     S
C1384  C1402   1.399   .     A
C1385  C1389   1.527   .     S
C1385  N1430   1.385   .     A
C1386  N1429   1.389   .     A
C1386  C1391   1.529   .     S
C1386  C1567   1.450   .     S
C1387  N1430   1.384   .     A
C1387  C1394   1.526   .     S
C1388  C1396   1.520   .     S
C1388  N1429   1.386   .     A
C1388  C1565   1.447   .     S
C1389  C1390   1.526   .     S
C1389  H1427   1.109   .     S
C1389  H1428   1.070   .     S
C1390  H1425   1.107   .     S
C1390  H1426   1.108   .     S
C1390  H1424   1.111   .     S
C1391  C1393   1.524   .     S
C1391  H1409   1.073   .     S
C1391  H1410   1.106   .     S
C1392  O1433   1.301   .     A
C1392  O1432   1.306   .     A
C1393  H1408   1.102   .     S
C1393  H1406   1.107   .     S
C1393  H1407   1.110   .     S
C1394  H1414   1.106   .     S
C1394  H1415   1.083   .     S
C1394  C1395   1.531   .     S
C1395  H1412   1.108   .     S
C1395  H1411   1.103   .     S
C1395  H1413   1.109   .     S
C1396  H1420   1.090   .     S
C1396  H1421   1.105   .     S
C1396  C1397   1.528   .     S
C1397  H1418   1.110   .     S
C1397  H1419   1.095   .     S
C1397  H1417   1.110   .     S
C1398  O1435   1.296   .     A
C1398  C1400   1.376   .     S
C1398  O1438   1.302   .     A
C1399  O1436   1.296   .     A
C1399  O1437   1.302   .     A
C1399  C1401   1.376   .     S
C1401  C320    1.171   1_556 S
C1402  H1405   1.083   .     S
C1403  H1416   1.084   .     S
C1403  C1262   1.371   1_655 S
C1404  H1422   1.084   .     S
C1404  C1282   1.371   1_655 S
N1429  Zn1439  2.061   .     S
N1430  Zn1440  2.061   .     S
O1431  Zn1439  2.004   .     S
O1432  Zn1440  2.004   .     S
O1433  Zn1439  1.993   .     S
O1434  Zn1440  1.993   .     S
O1435  Zn1439  1.951   .     S
O1436  Zn1440  1.951   .     S
O1437  Zn1439  1.965   .     S
O1438  Zn1440  1.965   .     S
C1441  O1494   1.302   .     A
C1441  O1491   1.306   .     A
C1441  C1444   1.422   .     S
C1442  C1444   1.395   .     A
C1442  H1483   1.084   .     S
C1442  C1583   1.371   1_455 S
C1443  C1463   1.399   .     A
C1443  C1464   1.395   .     A
C1443  C1452   1.422   .     S
C1444  C1462   1.399   .     A
C1445  C1449   1.527   .     S
C1445  N1490   1.385   .     A
C1446  N1489   1.389   .     A
C1446  C1451   1.529   .     S
C1446  C1087   1.450   1_565 S
C1447  N1490   1.384   .     A
C1447  C1454   1.526   .     S
C1448  C1456   1.520   .     S
C1448  N1489   1.386   .     A
C1448  C1085   1.447   1_565 S
C1449  C1450   1.526   .     S
C1449  H1487   1.109   .     S
C1449  H1488   1.070   .     S
C1450  H1485   1.107   .     S
C1450  H1486   1.108   .     S
C1450  H1484   1.111   .     S
C1451  C1453   1.524   .     S
C1451  H1469   1.073   .     S
C1451  H1470   1.106   .     S
C1452  O1493   1.301   .     A
C1452  O1492   1.306   .     A
C1453  H1468   1.102   .     S
C1453  H1466   1.107   .     S
C1453  H1467   1.110   .     S
C1454  H1474   1.106   .     S
C1454  H1475   1.083   .     S
C1454  C1455   1.531   .     S
C1455  H1472   1.108   .     S
C1455  H1471   1.103   .     S
C1455  H1473   1.109   .     S
C1456  H1480   1.090   .     S
C1456  H1481   1.105   .     S
C1456  C1457   1.528   .     S
C1457  H1478   1.110   .     S
C1457  H1479   1.095   .     S
C1457  H1477   1.110   .     S
C1458  O1495   1.296   .     A
C1458  C1460   1.376   .     S
C1458  O1498   1.302   .     A
C1459  O1496   1.296   .     A
C1459  O1497   1.302   .     A
C1459  C1461   1.376   .     S
C1461  C380    1.171   1_556 S
C1462  H1465   1.083   .     S
C1462  C1584   1.371   1_455 S
C1463  H1476   1.084   .     S
C1463  C1502   1.371   .     S
C1464  H1482   1.084   .     S
C1464  C1522   1.371   .     S
N1489  Zn1499  2.061   .     S
N1490  Zn1500  2.061   .     S
O1491  Zn1499  2.004   .     S
O1492  Zn1500  2.004   .     S
O1493  Zn1499  1.993   .     S
O1494  Zn1500  1.993   .     S
O1495  Zn1499  1.951   .     S
O1496  Zn1500  1.951   .     S
O1497  Zn1499  1.965   .     S
O1498  Zn1500  1.965   .     S
C1501  O1554   1.302   .     A
C1501  O1551   1.306   .     A
C1501  C1504   1.422   .     S
C1502  C1504   1.395   .     A
C1502  H1543   1.084   .     S
C1503  C1523   1.399   .     A
C1503  C1524   1.395   .     A
C1503  C1512   1.422   .     S
C1504  C1522   1.399   .     A
C1505  C1509   1.527   .     S
C1505  N1550   1.385   .     A
C1506  N1549   1.389   .     A
C1506  C1511   1.529   .     S
C1506  C1147   1.450   1_565 S
C1507  N1550   1.384   .     A
C1507  C1514   1.526   .     S
C1508  C1516   1.520   .     S
C1508  N1549   1.386   .     A
C1508  C1145   1.447   1_565 S
C1509  C1510   1.526   .     S
C1509  H1547   1.109   .     S
C1509  H1548   1.070   .     S
C1510  H1545   1.107   .     S
C1510  H1546   1.108   .     S
C1510  H1544   1.111   .     S
C1511  C1513   1.524   .     S
C1511  H1529   1.073   .     S
C1511  H1530   1.106   .     S
C1512  O1553   1.301   .     A
C1512  O1552   1.306   .     A
C1513  H1528   1.102   .     S
C1513  H1526   1.107   .     S
C1513  H1527   1.110   .     S
C1514  H1534   1.106   .     S
C1514  H1535   1.083   .     S
C1514  C1515   1.531   .     S
C1515  H1532   1.108   .     S
C1515  H1531   1.103   .     S
C1515  H1533   1.109   .     S
C1516  H1540   1.090   .     S
C1516  H1541   1.105   .     S
C1516  C1517   1.528   .     S
C1517  H1538   1.110   .     S
C1517  H1539   1.095   .     S
C1517  H1537   1.110   .     S
C1518  O1555   1.296   .     A
C1518  C1520   1.376   .     S
C1518  O1558   1.302   .     A
C1519  O1556   1.296   .     A
C1519  O1557   1.302   .     A
C1519  C1521   1.376   .     S
C1521  C440    1.171   1_556 S
C1522  H1525   1.083   .     S
C1523  H1536   1.084   .     S
C1523  C1562   1.371   .     S
C1524  H1542   1.084   .     S
C1524  C1582   1.371   .     S
N1549  Zn1559  2.061   .     S
N1550  Zn1560  2.061   .     S
O1551  Zn1559  2.004   .     S
O1552  Zn1560  2.004   .     S
O1553  Zn1559  1.993   .     S
O1554  Zn1560  1.993   .     S
O1555  Zn1559  1.951   .     S
O1556  Zn1560  1.951   .     S
O1557  Zn1559  1.965   .     S
O1558  Zn1560  1.965   .     S
C1561  O1614   1.302   .     A
C1561  O1611   1.306   .     A
C1561  C1564   1.422   .     S
C1562  C1564   1.395   .     A
C1562  H1603   1.084   .     S
C1563  C1583   1.399   .     A
C1563  C1584   1.395   .     A
C1563  C1572   1.422   .     S
C1564  C1582   1.399   .     A
C1565  C1569   1.527   .     S
C1565  N1610   1.385   .     A
C1566  N1609   1.389   .     A
C1566  C1571   1.529   .     S
C1566  C1207   1.450   1_565 S
C1567  N1610   1.384   .     A
C1567  C1574   1.526   .     S
C1568  C1576   1.520   .     S
C1568  N1609   1.386   .     A
C1568  C1205   1.447   1_565 S
C1569  C1570   1.526   .     S
C1569  H1607   1.109   .     S
C1569  H1608   1.070   .     S
C1570  H1605   1.107   .     S
C1570  H1606   1.108   .     S
C1570  H1604   1.111   .     S
C1571  C1573   1.524   .     S
C1571  H1589   1.073   .     S
C1571  H1590   1.106   .     S
C1572  O1613   1.301   .     A
C1572  O1612   1.306   .     A
C1573  H1588   1.102   .     S
C1573  H1586   1.107   .     S
C1573  H1587   1.110   .     S
C1574  H1594   1.106   .     S
C1574  H1595   1.083   .     S
C1574  C1575   1.531   .     S
C1575  H1592   1.108   .     S
C1575  H1591   1.103   .     S
C1575  H1593   1.109   .     S
C1576  H1600   1.090   .     S
C1576  H1601   1.105   .     S
C1576  C1577   1.528   .     S
C1577  H1598   1.110   .     S
C1577  H1599   1.095   .     S
C1577  H1597   1.110   .     S
C1578  O1615   1.296   .     A
C1578  C1580   1.376   .     S
C1578  O1618   1.302   .     A
C1579  O1616   1.296   .     A
C1579  O1617   1.302   .     A
C1579  C1581   1.376   .     S
C1581  C500    1.171   1_556 S
C1582  H1585   1.083   .     S
C1583  H1596   1.084   .     S
C1583  C1442   1.371   1_655 S
C1584  H1602   1.084   .     S
C1584  C1462   1.371   1_655 S
N1609  Zn1619  2.061   .     S
N1610  Zn1620  2.061   .     S
O1611  Zn1619  2.004   .     S
O1612  Zn1620  2.004   .     S
O1613  Zn1619  1.993   .     S
O1614  Zn1620  1.993   .     S
O1615  Zn1619  1.951   .     S
O1616  Zn1620  1.951   .     S
O1617  Zn1619  1.965   .     S
O1618  Zn1620  1.965   .     S
