data_str_m3_o2_o10_pcu_sym.119
_audit_creation_date              2020-01-03
_audit_creation_method            'Materials Studio'
_symmetry_space_group_name_H-M    'P1'
_symmetry_Int_Tables_number       1
_symmetry_cell_setting            triclinic
loop_
_symmetry_equiv_pos_as_xyz
  x,y,z
_cell_length_a                    25.7560
_cell_length_b                    29.9899
_cell_length_c                    28.5109
_cell_angle_alpha                 89.1763
_cell_angle_beta                  98.0991
_cell_angle_gamma                 91.3220
loop_
_atom_site_label
_atom_site_type_symbol
_atom_site_fract_x
_atom_site_fract_y
_atom_site_fract_z
_atom_site_U_iso_or_equiv
_atom_site_adp_type
_atom_site_occupancy
C1     C     0.16728   0.16393   0.25033   0.00000  Uiso   1.00
C2     C     0.16736   0.33607   0.24981   0.00000  Uiso   1.00
C3     C     0.12583   0.22865   0.04808   0.00000  Uiso   1.00
C4     C     0.19233   0.28458   0.44975   0.00000  Uiso   1.00
C5     C     0.12743   0.22829   0.09774   0.00000  Uiso   1.00
C6     C     0.19261   0.28319   0.40035   0.00000  Uiso   1.00
C7     C     0.20539   0.27262   0.10615   0.00000  Uiso   1.00
C8     C     0.13977   0.21729   0.39558   0.00000  Uiso   1.00
C9     C     0.20606   0.27176   0.05680   0.00000  Uiso   1.00
C10    C     0.14081   0.21683   0.44518   0.00000  Uiso   1.00
C11    C     0.16587   0.25039   0.02654   0.00000  Uiso   1.00
C12    C     0.16636   0.25080   0.47332   0.00000  Uiso   1.00
C13    C     0.06714   0.24970   0.23770   0.00000  Uiso   1.00
C14    C     0.26620   0.24995   0.26232   0.00000  Uiso   1.00
C15    C     0.01218   0.24900   0.23106   0.00000  Uiso   1.00
C16    C     0.32117   0.24995   0.26903   0.00000  Uiso   1.00
C17    C     0.15723   0.04543   0.28864   0.00000  Uiso   1.00
C18    C     0.15751   0.45402   0.20840   0.00000  Uiso   1.00
C19    C     0.15453   0.09137   0.28854   0.00000  Uiso   1.00
C20    C     0.15475   0.40796   0.20800   0.00000  Uiso   1.00
C21    C     0.17067   0.11608   0.25104   0.00000  Uiso   1.00
C22    C     0.17073   0.38401   0.24978   0.00000  Uiso   1.00
C23    C     0.19071   0.09489   0.21418   0.00000  Uiso   1.00
C24    C     0.19073   0.40605   0.29164   0.00000  Uiso   1.00
C25    C     0.19401   0.04900   0.21457   0.00000  Uiso   1.00
C26    C     0.19408   0.45204   0.29188   0.00000  Uiso   1.00
C27    C     0.17674   0.02422   0.25153   0.00000  Uiso   1.00
C28    C     0.17687   0.47607   0.25043   0.00000  Uiso   1.00
H29    H     0.32525   0.24768   0.19497   0.00000  Uiso   1.00
H30    H     0.00814   0.25098   0.30517   0.00000  Uiso   1.00
H31    H     0.14304   0.02644   0.31703   0.00000  Uiso   1.00
H32    H     0.14341   0.47241   0.17632   0.00000  Uiso   1.00
H33    H     0.13892   0.10739   0.31712   0.00000  Uiso   1.00
H34    H     0.13919   0.39117   0.17546   0.00000  Uiso   1.00
H35    H     0.20412   0.11374   0.18532   0.00000  Uiso   1.00
H36    H     0.20405   0.38779   0.32400   0.00000  Uiso   1.00
H37    H     0.20979   0.03284   0.18607   0.00000  Uiso   1.00
H38    H     0.20979   0.46887   0.32435   0.00000  Uiso   1.00
H39    H     0.09281   0.21235   0.02703   0.00000  Uiso   1.00
H40    H     0.21190   0.31248   0.46888   0.00000  Uiso   1.00
H41    H     0.09660   0.21113   0.11343   0.00000  Uiso   1.00
H42    H     0.21311   0.30920   0.38317   0.00000  Uiso   1.00
H43    H     0.23795   0.28842   0.04220   0.00000  Uiso   1.00
H44    H     0.12103   0.18987   0.46156   0.00000  Uiso   1.00
N45    N     0.16667   0.24999   0.12624   0.00000  Uiso   1.00
N46    N     0.16667   0.25001   0.37376   0.00000  Uiso   1.00
O47    O     0.16667   0.18453   0.28974   0.00000  Uiso   1.00
O48    O     0.16666   0.31546   0.21026   0.00000  Uiso   1.00
O49    O     0.16667   0.18453   0.21026   0.00000  Uiso   1.00
O50    O     0.16666   0.31547   0.28974   0.00000  Uiso   1.00
O51    O     0.09058   0.25000   0.28044   0.00000  Uiso   1.00
O52    O     0.24275   0.25000   0.21956   0.00000  Uiso   1.00
O53    O     0.09058   0.24999   0.20096   0.00000  Uiso   1.00
O54    O     0.24275   0.25000   0.29904   0.00000  Uiso   1.00
Zn55   Zn    0.16667   0.25000   0.30307   0.00000  Uiso   1.00
Zn56   Zn    0.16667   0.24999   0.19693   0.00000  Uiso   1.00
C57    C     0.24606   0.30012   0.13493   0.00000  Uiso   1.00
H58    H     0.23941   0.31374   0.16820   0.00000  Uiso   1.00
O59    O     0.28786   0.30901   0.12098   0.00000  Uiso   1.00
C60    C     0.10727   0.18270   0.36806   0.00000  Uiso   1.00
H61    H     0.09305   0.18743   0.33111   0.00000  Uiso   1.00
O62    O     0.09450   0.14817   0.38706   0.00000  Uiso   1.00
C63    C     0.50061   0.16393   0.25033   0.00000  Uiso   1.00
C64    C     0.50070   0.33607   0.24981   0.00000  Uiso   1.00
C65    C     0.45917   0.22865   0.04808   0.00000  Uiso   1.00
C66    C     0.52566   0.28458   0.44975   0.00000  Uiso   1.00
C67    C     0.46076   0.22829   0.09774   0.00000  Uiso   1.00
C68    C     0.52595   0.28319   0.40035   0.00000  Uiso   1.00
C69    C     0.53872   0.27262   0.10615   0.00000  Uiso   1.00
C70    C     0.47310   0.21729   0.39558   0.00000  Uiso   1.00
C71    C     0.53939   0.27176   0.05680   0.00000  Uiso   1.00
C72    C     0.47414   0.21683   0.44518   0.00000  Uiso   1.00
C73    C     0.49921   0.25039   0.02654   0.00000  Uiso   1.00
C74    C     0.49969   0.25080   0.47332   0.00000  Uiso   1.00
C75    C     0.40047   0.24970   0.23770   0.00000  Uiso   1.00
C76    C     0.59954   0.24995   0.26232   0.00000  Uiso   1.00
C77    C     0.34552   0.24900   0.23106   0.00000  Uiso   1.00
C78    C     0.65450   0.24995   0.26903   0.00000  Uiso   1.00
C79    C     0.49057   0.04543   0.28864   0.00000  Uiso   1.00
C80    C     0.49085   0.45402   0.20840   0.00000  Uiso   1.00
C81    C     0.48787   0.09137   0.28854   0.00000  Uiso   1.00
C82    C     0.48808   0.40796   0.20800   0.00000  Uiso   1.00
C83    C     0.50400   0.11608   0.25104   0.00000  Uiso   1.00
C84    C     0.50407   0.38401   0.24978   0.00000  Uiso   1.00
C85    C     0.52404   0.09489   0.21418   0.00000  Uiso   1.00
C86    C     0.52406   0.40605   0.29164   0.00000  Uiso   1.00
C87    C     0.52734   0.04900   0.21457   0.00000  Uiso   1.00
C88    C     0.52741   0.45204   0.29188   0.00000  Uiso   1.00
C89    C     0.51007   0.02422   0.25153   0.00000  Uiso   1.00
C90    C     0.51020   0.47607   0.25043   0.00000  Uiso   1.00
H91    H     0.65858   0.24768   0.19497   0.00000  Uiso   1.00
H92    H     0.34147   0.25098   0.30517   0.00000  Uiso   1.00
H93    H     0.47638   0.02644   0.31703   0.00000  Uiso   1.00
H94    H     0.47675   0.47241   0.17632   0.00000  Uiso   1.00
H95    H     0.47225   0.10739   0.31712   0.00000  Uiso   1.00
H96    H     0.47252   0.39117   0.17546   0.00000  Uiso   1.00
H97    H     0.53745   0.11374   0.18532   0.00000  Uiso   1.00
H98    H     0.53738   0.38779   0.32400   0.00000  Uiso   1.00
H99    H     0.54312   0.03284   0.18607   0.00000  Uiso   1.00
H100   H     0.54312   0.46887   0.32435   0.00000  Uiso   1.00
H101   H     0.42614   0.21235   0.02703   0.00000  Uiso   1.00
H102   H     0.54524   0.31248   0.46888   0.00000  Uiso   1.00
H103   H     0.42994   0.21113   0.11343   0.00000  Uiso   1.00
H104   H     0.54644   0.30920   0.38317   0.00000  Uiso   1.00
H105   H     0.57129   0.28842   0.04220   0.00000  Uiso   1.00
H106   H     0.45437   0.18987   0.46156   0.00000  Uiso   1.00
N107   N     0.50000   0.24999   0.12624   0.00000  Uiso   1.00
N108   N     0.50000   0.25001   0.37376   0.00000  Uiso   1.00
O109   O     0.50000   0.18453   0.28974   0.00000  Uiso   1.00
O110   O     0.50000   0.31546   0.21026   0.00000  Uiso   1.00
O111   O     0.50000   0.18453   0.21026   0.00000  Uiso   1.00
O112   O     0.50000   0.31547   0.28974   0.00000  Uiso   1.00
O113   O     0.42392   0.25000   0.28044   0.00000  Uiso   1.00
O114   O     0.57608   0.25000   0.21956   0.00000  Uiso   1.00
O115   O     0.42392   0.24999   0.20096   0.00000  Uiso   1.00
O116   O     0.57608   0.25000   0.29904   0.00000  Uiso   1.00
Zn117  Zn    0.50000   0.25000   0.30307   0.00000  Uiso   1.00
Zn118  Zn    0.50000   0.24999   0.19693   0.00000  Uiso   1.00
C119   C     0.57940   0.30012   0.13493   0.00000  Uiso   1.00
H120   H     0.57274   0.31374   0.16820   0.00000  Uiso   1.00
O121   O     0.62119   0.30901   0.12098   0.00000  Uiso   1.00
C122   C     0.44060   0.18270   0.36806   0.00000  Uiso   1.00
H123   H     0.42639   0.18743   0.33111   0.00000  Uiso   1.00
O124   O     0.42783   0.14817   0.38706   0.00000  Uiso   1.00
C125   C     0.83395   0.16393   0.25033   0.00000  Uiso   1.00
C126   C     0.83403   0.33607   0.24981   0.00000  Uiso   1.00
C127   C     0.79250   0.22865   0.04808   0.00000  Uiso   1.00
C128   C     0.85899   0.28458   0.44975   0.00000  Uiso   1.00
C129   C     0.79409   0.22829   0.09774   0.00000  Uiso   1.00
C130   C     0.85928   0.28319   0.40035   0.00000  Uiso   1.00
C131   C     0.87205   0.27262   0.10615   0.00000  Uiso   1.00
C132   C     0.80643   0.21729   0.39558   0.00000  Uiso   1.00
C133   C     0.87272   0.27176   0.05680   0.00000  Uiso   1.00
C134   C     0.80748   0.21683   0.44518   0.00000  Uiso   1.00
C135   C     0.83254   0.25039   0.02654   0.00000  Uiso   1.00
C136   C     0.83302   0.25080   0.47332   0.00000  Uiso   1.00
C137   C     0.73380   0.24970   0.23770   0.00000  Uiso   1.00
C138   C     0.93287   0.24995   0.26232   0.00000  Uiso   1.00
C139   C     0.67885   0.24900   0.23106   0.00000  Uiso   1.00
C140   C     0.98783   0.24995   0.26903   0.00000  Uiso   1.00
C141   C     0.82390   0.04543   0.28864   0.00000  Uiso   1.00
C142   C     0.82418   0.45402   0.20840   0.00000  Uiso   1.00
C143   C     0.82120   0.09137   0.28854   0.00000  Uiso   1.00
C144   C     0.82142   0.40796   0.20800   0.00000  Uiso   1.00
C145   C     0.83733   0.11608   0.25104   0.00000  Uiso   1.00
C146   C     0.83740   0.38401   0.24978   0.00000  Uiso   1.00
C147   C     0.85737   0.09489   0.21418   0.00000  Uiso   1.00
C148   C     0.85740   0.40605   0.29164   0.00000  Uiso   1.00
C149   C     0.86067   0.04900   0.21457   0.00000  Uiso   1.00
C150   C     0.86075   0.45204   0.29188   0.00000  Uiso   1.00
C151   C     0.84341   0.02422   0.25153   0.00000  Uiso   1.00
C152   C     0.84354   0.47607   0.25043   0.00000  Uiso   1.00
H153   H     0.99192   0.24768   0.19497   0.00000  Uiso   1.00
H154   H     0.67480   0.25098   0.30517   0.00000  Uiso   1.00
H155   H     0.80971   0.02644   0.31703   0.00000  Uiso   1.00
H156   H     0.81008   0.47241   0.17632   0.00000  Uiso   1.00
H157   H     0.80559   0.10739   0.31712   0.00000  Uiso   1.00
H158   H     0.80585   0.39117   0.17546   0.00000  Uiso   1.00
H159   H     0.87079   0.11374   0.18532   0.00000  Uiso   1.00
H160   H     0.87072   0.38779   0.32400   0.00000  Uiso   1.00
H161   H     0.87646   0.03284   0.18607   0.00000  Uiso   1.00
H162   H     0.87645   0.46887   0.32435   0.00000  Uiso   1.00
H163   H     0.75947   0.21235   0.02703   0.00000  Uiso   1.00
H164   H     0.87857   0.31248   0.46888   0.00000  Uiso   1.00
H165   H     0.76327   0.21113   0.11343   0.00000  Uiso   1.00
H166   H     0.87978   0.30920   0.38317   0.00000  Uiso   1.00
H167   H     0.90462   0.28842   0.04220   0.00000  Uiso   1.00
H168   H     0.78770   0.18987   0.46156   0.00000  Uiso   1.00
N169   N     0.83333   0.24999   0.12624   0.00000  Uiso   1.00
N170   N     0.83333   0.25001   0.37376   0.00000  Uiso   1.00
O171   O     0.83334   0.18453   0.28974   0.00000  Uiso   1.00
O172   O     0.83333   0.31546   0.21026   0.00000  Uiso   1.00
O173   O     0.83334   0.18453   0.21026   0.00000  Uiso   1.00
O174   O     0.83333   0.31547   0.28974   0.00000  Uiso   1.00
O175   O     0.75725   0.25000   0.28044   0.00000  Uiso   1.00
O176   O     0.90942   0.25000   0.21956   0.00000  Uiso   1.00
O177   O     0.75725   0.24999   0.20096   0.00000  Uiso   1.00
O178   O     0.90942   0.25000   0.29904   0.00000  Uiso   1.00
Zn179  Zn    0.83333   0.25000   0.30307   0.00000  Uiso   1.00
Zn180  Zn    0.83333   0.24999   0.19693   0.00000  Uiso   1.00
C181   C     0.91273   0.30012   0.13493   0.00000  Uiso   1.00
H182   H     0.90607   0.31374   0.16820   0.00000  Uiso   1.00
O183   O     0.95452   0.30901   0.12098   0.00000  Uiso   1.00
C184   C     0.77394   0.18270   0.36806   0.00000  Uiso   1.00
H185   H     0.75972   0.18743   0.33111   0.00000  Uiso   1.00
O186   O     0.76117   0.14817   0.38706   0.00000  Uiso   1.00
C187   C     0.16728   0.66393   0.25033   0.00000  Uiso   1.00
C188   C     0.16736   0.83607   0.24981   0.00000  Uiso   1.00
C189   C     0.12583   0.72865   0.04808   0.00000  Uiso   1.00
C190   C     0.19233   0.78458   0.44975   0.00000  Uiso   1.00
C191   C     0.12743   0.72829   0.09774   0.00000  Uiso   1.00
C192   C     0.19261   0.78319   0.40035   0.00000  Uiso   1.00
C193   C     0.20539   0.77262   0.10615   0.00000  Uiso   1.00
C194   C     0.13977   0.71729   0.39558   0.00000  Uiso   1.00
C195   C     0.20606   0.77176   0.05680   0.00000  Uiso   1.00
C196   C     0.14081   0.71683   0.44518   0.00000  Uiso   1.00
C197   C     0.16587   0.75039   0.02654   0.00000  Uiso   1.00
C198   C     0.16636   0.75080   0.47332   0.00000  Uiso   1.00
C199   C     0.06714   0.74970   0.23770   0.00000  Uiso   1.00
C200   C     0.26620   0.74995   0.26232   0.00000  Uiso   1.00
C201   C     0.01218   0.74900   0.23106   0.00000  Uiso   1.00
C202   C     0.32117   0.74995   0.26903   0.00000  Uiso   1.00
C203   C     0.15723   0.54543   0.28864   0.00000  Uiso   1.00
C204   C     0.15751   0.95402   0.20840   0.00000  Uiso   1.00
C205   C     0.15453   0.59137   0.28854   0.00000  Uiso   1.00
C206   C     0.15475   0.90796   0.20800   0.00000  Uiso   1.00
C207   C     0.17067   0.61608   0.25104   0.00000  Uiso   1.00
C208   C     0.17073   0.88401   0.24978   0.00000  Uiso   1.00
C209   C     0.19071   0.59489   0.21418   0.00000  Uiso   1.00
C210   C     0.19073   0.90605   0.29164   0.00000  Uiso   1.00
C211   C     0.19401   0.54900   0.21457   0.00000  Uiso   1.00
C212   C     0.19408   0.95204   0.29188   0.00000  Uiso   1.00
C213   C     0.17674   0.52422   0.25153   0.00000  Uiso   1.00
C214   C     0.17687   0.97607   0.25043   0.00000  Uiso   1.00
H215   H     0.32525   0.74768   0.19497   0.00000  Uiso   1.00
H216   H     0.00814   0.75098   0.30517   0.00000  Uiso   1.00
H217   H     0.14304   0.52644   0.31703   0.00000  Uiso   1.00
H218   H     0.14341   0.97241   0.17632   0.00000  Uiso   1.00
H219   H     0.13892   0.60739   0.31712   0.00000  Uiso   1.00
H220   H     0.13919   0.89117   0.17546   0.00000  Uiso   1.00
H221   H     0.20412   0.61374   0.18532   0.00000  Uiso   1.00
H222   H     0.20405   0.88779   0.32400   0.00000  Uiso   1.00
H223   H     0.20979   0.53284   0.18607   0.00000  Uiso   1.00
H224   H     0.20979   0.96887   0.32435   0.00000  Uiso   1.00
H225   H     0.09281   0.71235   0.02703   0.00000  Uiso   1.00
H226   H     0.21190   0.81248   0.46888   0.00000  Uiso   1.00
H227   H     0.09660   0.71113   0.11343   0.00000  Uiso   1.00
H228   H     0.21311   0.80920   0.38317   0.00000  Uiso   1.00
H229   H     0.23795   0.78842   0.04220   0.00000  Uiso   1.00
H230   H     0.12103   0.68987   0.46156   0.00000  Uiso   1.00
N231   N     0.16667   0.74999   0.12624   0.00000  Uiso   1.00
N232   N     0.16667   0.75001   0.37376   0.00000  Uiso   1.00
O233   O     0.16667   0.68453   0.28974   0.00000  Uiso   1.00
O234   O     0.16666   0.81546   0.21026   0.00000  Uiso   1.00
O235   O     0.16667   0.68453   0.21026   0.00000  Uiso   1.00
O236   O     0.16666   0.81547   0.28974   0.00000  Uiso   1.00
O237   O     0.09058   0.75000   0.28044   0.00000  Uiso   1.00
O238   O     0.24275   0.75000   0.21956   0.00000  Uiso   1.00
O239   O     0.09058   0.74999   0.20096   0.00000  Uiso   1.00
O240   O     0.24275   0.75000   0.29904   0.00000  Uiso   1.00
Zn241  Zn    0.16667   0.75000   0.30307   0.00000  Uiso   1.00
Zn242  Zn    0.16667   0.74999   0.19693   0.00000  Uiso   1.00
C243   C     0.24606   0.80012   0.13493   0.00000  Uiso   1.00
H244   H     0.23941   0.81374   0.16820   0.00000  Uiso   1.00
O245   O     0.28786   0.80901   0.12098   0.00000  Uiso   1.00
C246   C     0.10727   0.68270   0.36806   0.00000  Uiso   1.00
H247   H     0.09305   0.68743   0.33111   0.00000  Uiso   1.00
O248   O     0.09450   0.64817   0.38706   0.00000  Uiso   1.00
C249   C     0.50061   0.66393   0.25033   0.00000  Uiso   1.00
C250   C     0.50070   0.83607   0.24981   0.00000  Uiso   1.00
C251   C     0.45917   0.72865   0.04808   0.00000  Uiso   1.00
C252   C     0.52566   0.78458   0.44975   0.00000  Uiso   1.00
C253   C     0.46076   0.72829   0.09774   0.00000  Uiso   1.00
C254   C     0.52595   0.78319   0.40035   0.00000  Uiso   1.00
C255   C     0.53872   0.77262   0.10615   0.00000  Uiso   1.00
C256   C     0.47310   0.71729   0.39558   0.00000  Uiso   1.00
C257   C     0.53939   0.77176   0.05680   0.00000  Uiso   1.00
C258   C     0.47414   0.71683   0.44518   0.00000  Uiso   1.00
C259   C     0.49921   0.75039   0.02654   0.00000  Uiso   1.00
C260   C     0.49969   0.75080   0.47332   0.00000  Uiso   1.00
C261   C     0.40047   0.74970   0.23770   0.00000  Uiso   1.00
C262   C     0.59954   0.74995   0.26232   0.00000  Uiso   1.00
C263   C     0.34552   0.74900   0.23106   0.00000  Uiso   1.00
C264   C     0.65450   0.74995   0.26903   0.00000  Uiso   1.00
C265   C     0.49057   0.54543   0.28864   0.00000  Uiso   1.00
C266   C     0.49085   0.95402   0.20840   0.00000  Uiso   1.00
C267   C     0.48787   0.59137   0.28854   0.00000  Uiso   1.00
C268   C     0.48808   0.90796   0.20800   0.00000  Uiso   1.00
C269   C     0.50400   0.61608   0.25104   0.00000  Uiso   1.00
C270   C     0.50407   0.88401   0.24978   0.00000  Uiso   1.00
C271   C     0.52404   0.59489   0.21418   0.00000  Uiso   1.00
C272   C     0.52406   0.90605   0.29164   0.00000  Uiso   1.00
C273   C     0.52734   0.54900   0.21457   0.00000  Uiso   1.00
C274   C     0.52741   0.95204   0.29188   0.00000  Uiso   1.00
C275   C     0.51007   0.52422   0.25153   0.00000  Uiso   1.00
C276   C     0.51020   0.97607   0.25043   0.00000  Uiso   1.00
H277   H     0.65858   0.74768   0.19497   0.00000  Uiso   1.00
H278   H     0.34147   0.75098   0.30517   0.00000  Uiso   1.00
H279   H     0.47638   0.52644   0.31703   0.00000  Uiso   1.00
H280   H     0.47675   0.97241   0.17632   0.00000  Uiso   1.00
H281   H     0.47225   0.60739   0.31712   0.00000  Uiso   1.00
H282   H     0.47252   0.89117   0.17546   0.00000  Uiso   1.00
H283   H     0.53745   0.61374   0.18532   0.00000  Uiso   1.00
H284   H     0.53738   0.88779   0.32400   0.00000  Uiso   1.00
H285   H     0.54312   0.53284   0.18607   0.00000  Uiso   1.00
H286   H     0.54312   0.96887   0.32435   0.00000  Uiso   1.00
H287   H     0.42614   0.71235   0.02703   0.00000  Uiso   1.00
H288   H     0.54524   0.81248   0.46888   0.00000  Uiso   1.00
H289   H     0.42994   0.71113   0.11343   0.00000  Uiso   1.00
H290   H     0.54644   0.80920   0.38317   0.00000  Uiso   1.00
H291   H     0.57129   0.78842   0.04220   0.00000  Uiso   1.00
H292   H     0.45437   0.68987   0.46156   0.00000  Uiso   1.00
N293   N     0.50000   0.74999   0.12624   0.00000  Uiso   1.00
N294   N     0.50000   0.75001   0.37376   0.00000  Uiso   1.00
O295   O     0.50000   0.68453   0.28974   0.00000  Uiso   1.00
O296   O     0.50000   0.81546   0.21026   0.00000  Uiso   1.00
O297   O     0.50000   0.68453   0.21026   0.00000  Uiso   1.00
O298   O     0.50000   0.81547   0.28974   0.00000  Uiso   1.00
O299   O     0.42392   0.75000   0.28044   0.00000  Uiso   1.00
O300   O     0.57608   0.75000   0.21956   0.00000  Uiso   1.00
O301   O     0.42392   0.74999   0.20096   0.00000  Uiso   1.00
O302   O     0.57608   0.75000   0.29904   0.00000  Uiso   1.00
Zn303  Zn    0.50000   0.75000   0.30307   0.00000  Uiso   1.00
Zn304  Zn    0.50000   0.74999   0.19693   0.00000  Uiso   1.00
C305   C     0.57940   0.80012   0.13493   0.00000  Uiso   1.00
H306   H     0.57274   0.81374   0.16820   0.00000  Uiso   1.00
O307   O     0.62119   0.80901   0.12098   0.00000  Uiso   1.00
C308   C     0.44060   0.68270   0.36806   0.00000  Uiso   1.00
H309   H     0.42639   0.68743   0.33111   0.00000  Uiso   1.00
O310   O     0.42783   0.64817   0.38706   0.00000  Uiso   1.00
C311   C     0.83395   0.66393   0.25033   0.00000  Uiso   1.00
C312   C     0.83403   0.83607   0.24981   0.00000  Uiso   1.00
C313   C     0.79250   0.72865   0.04808   0.00000  Uiso   1.00
C314   C     0.85899   0.78458   0.44975   0.00000  Uiso   1.00
C315   C     0.79409   0.72829   0.09774   0.00000  Uiso   1.00
C316   C     0.85928   0.78319   0.40035   0.00000  Uiso   1.00
C317   C     0.87205   0.77262   0.10615   0.00000  Uiso   1.00
C318   C     0.80643   0.71729   0.39558   0.00000  Uiso   1.00
C319   C     0.87272   0.77176   0.05680   0.00000  Uiso   1.00
C320   C     0.80748   0.71683   0.44518   0.00000  Uiso   1.00
C321   C     0.83254   0.75039   0.02654   0.00000  Uiso   1.00
C322   C     0.83302   0.75080   0.47332   0.00000  Uiso   1.00
C323   C     0.73380   0.74970   0.23770   0.00000  Uiso   1.00
C324   C     0.93287   0.74995   0.26232   0.00000  Uiso   1.00
C325   C     0.67885   0.74900   0.23106   0.00000  Uiso   1.00
C326   C     0.98783   0.74995   0.26903   0.00000  Uiso   1.00
C327   C     0.82390   0.54543   0.28864   0.00000  Uiso   1.00
C328   C     0.82418   0.95402   0.20840   0.00000  Uiso   1.00
C329   C     0.82120   0.59137   0.28854   0.00000  Uiso   1.00
C330   C     0.82142   0.90796   0.20800   0.00000  Uiso   1.00
C331   C     0.83733   0.61608   0.25104   0.00000  Uiso   1.00
C332   C     0.83740   0.88401   0.24978   0.00000  Uiso   1.00
C333   C     0.85737   0.59489   0.21418   0.00000  Uiso   1.00
C334   C     0.85740   0.90605   0.29164   0.00000  Uiso   1.00
C335   C     0.86067   0.54900   0.21457   0.00000  Uiso   1.00
C336   C     0.86075   0.95204   0.29188   0.00000  Uiso   1.00
C337   C     0.84341   0.52422   0.25153   0.00000  Uiso   1.00
C338   C     0.84354   0.97607   0.25043   0.00000  Uiso   1.00
H339   H     0.99192   0.74768   0.19497   0.00000  Uiso   1.00
H340   H     0.67480   0.75098   0.30517   0.00000  Uiso   1.00
H341   H     0.80971   0.52644   0.31703   0.00000  Uiso   1.00
H342   H     0.81008   0.97241   0.17632   0.00000  Uiso   1.00
H343   H     0.80559   0.60739   0.31712   0.00000  Uiso   1.00
H344   H     0.80585   0.89117   0.17546   0.00000  Uiso   1.00
H345   H     0.87079   0.61374   0.18532   0.00000  Uiso   1.00
H346   H     0.87072   0.88779   0.32400   0.00000  Uiso   1.00
H347   H     0.87646   0.53284   0.18607   0.00000  Uiso   1.00
H348   H     0.87645   0.96887   0.32435   0.00000  Uiso   1.00
H349   H     0.75947   0.71235   0.02703   0.00000  Uiso   1.00
H350   H     0.87857   0.81248   0.46888   0.00000  Uiso   1.00
H351   H     0.76327   0.71113   0.11343   0.00000  Uiso   1.00
H352   H     0.87978   0.80920   0.38317   0.00000  Uiso   1.00
H353   H     0.90462   0.78842   0.04220   0.00000  Uiso   1.00
H354   H     0.78770   0.68987   0.46156   0.00000  Uiso   1.00
N355   N     0.83333   0.74999   0.12624   0.00000  Uiso   1.00
N356   N     0.83333   0.75001   0.37376   0.00000  Uiso   1.00
O357   O     0.83334   0.68453   0.28974   0.00000  Uiso   1.00
O358   O     0.83333   0.81546   0.21026   0.00000  Uiso   1.00
O359   O     0.83334   0.68453   0.21026   0.00000  Uiso   1.00
O360   O     0.83333   0.81547   0.28974   0.00000  Uiso   1.00
O361   O     0.75725   0.75000   0.28044   0.00000  Uiso   1.00
O362   O     0.90942   0.75000   0.21956   0.00000  Uiso   1.00
O363   O     0.75725   0.74999   0.20096   0.00000  Uiso   1.00
O364   O     0.90942   0.75000   0.29904   0.00000  Uiso   1.00
Zn365  Zn    0.83333   0.75000   0.30307   0.00000  Uiso   1.00
Zn366  Zn    0.83333   0.74999   0.19693   0.00000  Uiso   1.00
C367   C     0.91273   0.80012   0.13493   0.00000  Uiso   1.00
H368   H     0.90607   0.81374   0.16820   0.00000  Uiso   1.00
O369   O     0.95452   0.80901   0.12098   0.00000  Uiso   1.00
C370   C     0.77394   0.68270   0.36806   0.00000  Uiso   1.00
H371   H     0.75972   0.68743   0.33111   0.00000  Uiso   1.00
O372   O     0.76117   0.64817   0.38706   0.00000  Uiso   1.00
C373   C     0.16728   0.16393   0.75033   0.00000  Uiso   1.00
C374   C     0.16736   0.33607   0.74981   0.00000  Uiso   1.00
C375   C     0.12583   0.22865   0.54808   0.00000  Uiso   1.00
C376   C     0.19233   0.28458   0.94975   0.00000  Uiso   1.00
C377   C     0.12743   0.22829   0.59774   0.00000  Uiso   1.00
C378   C     0.19261   0.28319   0.90035   0.00000  Uiso   1.00
C379   C     0.20539   0.27262   0.60615   0.00000  Uiso   1.00
C380   C     0.13977   0.21729   0.89558   0.00000  Uiso   1.00
C381   C     0.20606   0.27176   0.55680   0.00000  Uiso   1.00
C382   C     0.14081   0.21683   0.94518   0.00000  Uiso   1.00
C383   C     0.16587   0.25039   0.52654   0.00000  Uiso   1.00
C384   C     0.16636   0.25080   0.97332   0.00000  Uiso   1.00
C385   C     0.06714   0.24970   0.73770   0.00000  Uiso   1.00
C386   C     0.26620   0.24995   0.76232   0.00000  Uiso   1.00
C387   C     0.01218   0.24900   0.73106   0.00000  Uiso   1.00
C388   C     0.32117   0.24995   0.76903   0.00000  Uiso   1.00
C389   C     0.15723   0.04543   0.78864   0.00000  Uiso   1.00
C390   C     0.15751   0.45402   0.70840   0.00000  Uiso   1.00
C391   C     0.15453   0.09137   0.78854   0.00000  Uiso   1.00
C392   C     0.15475   0.40796   0.70800   0.00000  Uiso   1.00
C393   C     0.17067   0.11608   0.75104   0.00000  Uiso   1.00
C394   C     0.17073   0.38401   0.74978   0.00000  Uiso   1.00
C395   C     0.19071   0.09489   0.71418   0.00000  Uiso   1.00
C396   C     0.19073   0.40605   0.79164   0.00000  Uiso   1.00
C397   C     0.19401   0.04900   0.71457   0.00000  Uiso   1.00
C398   C     0.19408   0.45204   0.79188   0.00000  Uiso   1.00
C399   C     0.17674   0.02422   0.75153   0.00000  Uiso   1.00
C400   C     0.17687   0.47607   0.75043   0.00000  Uiso   1.00
H401   H     0.32525   0.24768   0.69497   0.00000  Uiso   1.00
H402   H     0.00814   0.25098   0.80517   0.00000  Uiso   1.00
H403   H     0.14304   0.02644   0.81703   0.00000  Uiso   1.00
H404   H     0.14341   0.47241   0.67632   0.00000  Uiso   1.00
H405   H     0.13892   0.10739   0.81712   0.00000  Uiso   1.00
H406   H     0.13919   0.39117   0.67546   0.00000  Uiso   1.00
H407   H     0.20412   0.11374   0.68532   0.00000  Uiso   1.00
H408   H     0.20405   0.38779   0.82400   0.00000  Uiso   1.00
H409   H     0.20979   0.03284   0.68607   0.00000  Uiso   1.00
H410   H     0.20979   0.46887   0.82435   0.00000  Uiso   1.00
H411   H     0.09281   0.21235   0.52703   0.00000  Uiso   1.00
H412   H     0.21190   0.31248   0.96888   0.00000  Uiso   1.00
H413   H     0.09660   0.21113   0.61343   0.00000  Uiso   1.00
H414   H     0.21311   0.30920   0.88317   0.00000  Uiso   1.00
H415   H     0.23795   0.28842   0.54220   0.00000  Uiso   1.00
H416   H     0.12103   0.18987   0.96156   0.00000  Uiso   1.00
N417   N     0.16667   0.24999   0.62624   0.00000  Uiso   1.00
N418   N     0.16667   0.25001   0.87376   0.00000  Uiso   1.00
O419   O     0.16667   0.18453   0.78974   0.00000  Uiso   1.00
O420   O     0.16666   0.31546   0.71026   0.00000  Uiso   1.00
O421   O     0.16667   0.18453   0.71026   0.00000  Uiso   1.00
O422   O     0.16666   0.31547   0.78974   0.00000  Uiso   1.00
O423   O     0.09058   0.25000   0.78044   0.00000  Uiso   1.00
O424   O     0.24275   0.25000   0.71956   0.00000  Uiso   1.00
O425   O     0.09058   0.24999   0.70096   0.00000  Uiso   1.00
O426   O     0.24275   0.25000   0.79904   0.00000  Uiso   1.00
Zn427  Zn    0.16667   0.25000   0.80307   0.00000  Uiso   1.00
Zn428  Zn    0.16667   0.24999   0.69693   0.00000  Uiso   1.00
C429   C     0.24606   0.30012   0.63493   0.00000  Uiso   1.00
H430   H     0.23941   0.31374   0.66820   0.00000  Uiso   1.00
O431   O     0.28786   0.30901   0.62098   0.00000  Uiso   1.00
C432   C     0.10727   0.18270   0.86806   0.00000  Uiso   1.00
H433   H     0.09305   0.18743   0.83111   0.00000  Uiso   1.00
O434   O     0.09450   0.14817   0.88706   0.00000  Uiso   1.00
C435   C     0.50061   0.16393   0.75033   0.00000  Uiso   1.00
C436   C     0.50070   0.33607   0.74981   0.00000  Uiso   1.00
C437   C     0.45917   0.22865   0.54808   0.00000  Uiso   1.00
C438   C     0.52566   0.28458   0.94975   0.00000  Uiso   1.00
C439   C     0.46076   0.22829   0.59774   0.00000  Uiso   1.00
C440   C     0.52595   0.28319   0.90035   0.00000  Uiso   1.00
C441   C     0.53872   0.27262   0.60615   0.00000  Uiso   1.00
C442   C     0.47310   0.21729   0.89558   0.00000  Uiso   1.00
C443   C     0.53939   0.27176   0.55680   0.00000  Uiso   1.00
C444   C     0.47414   0.21683   0.94518   0.00000  Uiso   1.00
C445   C     0.49921   0.25039   0.52654   0.00000  Uiso   1.00
C446   C     0.49969   0.25080   0.97332   0.00000  Uiso   1.00
C447   C     0.40047   0.24970   0.73770   0.00000  Uiso   1.00
C448   C     0.59954   0.24995   0.76232   0.00000  Uiso   1.00
C449   C     0.34552   0.24900   0.73106   0.00000  Uiso   1.00
C450   C     0.65450   0.24995   0.76903   0.00000  Uiso   1.00
C451   C     0.49057   0.04543   0.78864   0.00000  Uiso   1.00
C452   C     0.49085   0.45402   0.70840   0.00000  Uiso   1.00
C453   C     0.48787   0.09137   0.78854   0.00000  Uiso   1.00
C454   C     0.48808   0.40796   0.70800   0.00000  Uiso   1.00
C455   C     0.50400   0.11608   0.75104   0.00000  Uiso   1.00
C456   C     0.50407   0.38401   0.74978   0.00000  Uiso   1.00
C457   C     0.52404   0.09489   0.71418   0.00000  Uiso   1.00
C458   C     0.52406   0.40605   0.79164   0.00000  Uiso   1.00
C459   C     0.52734   0.04900   0.71457   0.00000  Uiso   1.00
C460   C     0.52741   0.45204   0.79188   0.00000  Uiso   1.00
C461   C     0.51007   0.02422   0.75153   0.00000  Uiso   1.00
C462   C     0.51020   0.47607   0.75043   0.00000  Uiso   1.00
H463   H     0.65858   0.24768   0.69497   0.00000  Uiso   1.00
H464   H     0.34147   0.25098   0.80517   0.00000  Uiso   1.00
H465   H     0.47638   0.02644   0.81703   0.00000  Uiso   1.00
H466   H     0.47675   0.47241   0.67632   0.00000  Uiso   1.00
H467   H     0.47225   0.10739   0.81712   0.00000  Uiso   1.00
H468   H     0.47252   0.39117   0.67546   0.00000  Uiso   1.00
H469   H     0.53745   0.11374   0.68532   0.00000  Uiso   1.00
H470   H     0.53738   0.38779   0.82400   0.00000  Uiso   1.00
H471   H     0.54312   0.03284   0.68607   0.00000  Uiso   1.00
H472   H     0.54312   0.46887   0.82435   0.00000  Uiso   1.00
H473   H     0.42614   0.21235   0.52703   0.00000  Uiso   1.00
H474   H     0.54524   0.31248   0.96888   0.00000  Uiso   1.00
H475   H     0.42994   0.21113   0.61343   0.00000  Uiso   1.00
H476   H     0.54644   0.30920   0.88317   0.00000  Uiso   1.00
H477   H     0.57129   0.28842   0.54220   0.00000  Uiso   1.00
H478   H     0.45437   0.18987   0.96156   0.00000  Uiso   1.00
N479   N     0.50000   0.24999   0.62624   0.00000  Uiso   1.00
N480   N     0.50000   0.25001   0.87376   0.00000  Uiso   1.00
O481   O     0.50000   0.18453   0.78974   0.00000  Uiso   1.00
O482   O     0.50000   0.31546   0.71026   0.00000  Uiso   1.00
O483   O     0.50000   0.18453   0.71026   0.00000  Uiso   1.00
O484   O     0.50000   0.31547   0.78974   0.00000  Uiso   1.00
O485   O     0.42392   0.25000   0.78044   0.00000  Uiso   1.00
O486   O     0.57608   0.25000   0.71956   0.00000  Uiso   1.00
O487   O     0.42392   0.24999   0.70096   0.00000  Uiso   1.00
O488   O     0.57608   0.25000   0.79904   0.00000  Uiso   1.00
Zn489  Zn    0.50000   0.25000   0.80307   0.00000  Uiso   1.00
Zn490  Zn    0.50000   0.24999   0.69693   0.00000  Uiso   1.00
C491   C     0.57940   0.30012   0.63493   0.00000  Uiso   1.00
H492   H     0.57274   0.31374   0.66820   0.00000  Uiso   1.00
O493   O     0.62119   0.30901   0.62098   0.00000  Uiso   1.00
C494   C     0.44060   0.18270   0.86806   0.00000  Uiso   1.00
H495   H     0.42639   0.18743   0.83111   0.00000  Uiso   1.00
O496   O     0.42783   0.14817   0.88706   0.00000  Uiso   1.00
C497   C     0.83395   0.16393   0.75033   0.00000  Uiso   1.00
C498   C     0.83403   0.33607   0.74981   0.00000  Uiso   1.00
C499   C     0.79250   0.22865   0.54808   0.00000  Uiso   1.00
C500   C     0.85899   0.28458   0.94975   0.00000  Uiso   1.00
C501   C     0.79409   0.22829   0.59774   0.00000  Uiso   1.00
C502   C     0.85928   0.28319   0.90035   0.00000  Uiso   1.00
C503   C     0.87205   0.27262   0.60615   0.00000  Uiso   1.00
C504   C     0.80643   0.21729   0.89558   0.00000  Uiso   1.00
C505   C     0.87272   0.27176   0.55680   0.00000  Uiso   1.00
C506   C     0.80748   0.21683   0.94518   0.00000  Uiso   1.00
C507   C     0.83254   0.25039   0.52654   0.00000  Uiso   1.00
C508   C     0.83302   0.25080   0.97332   0.00000  Uiso   1.00
C509   C     0.73380   0.24970   0.73770   0.00000  Uiso   1.00
C510   C     0.93287   0.24995   0.76232   0.00000  Uiso   1.00
C511   C     0.67885   0.24900   0.73106   0.00000  Uiso   1.00
C512   C     0.98783   0.24995   0.76903   0.00000  Uiso   1.00
C513   C     0.82390   0.04543   0.78864   0.00000  Uiso   1.00
C514   C     0.82418   0.45402   0.70840   0.00000  Uiso   1.00
C515   C     0.82120   0.09137   0.78854   0.00000  Uiso   1.00
C516   C     0.82142   0.40796   0.70800   0.00000  Uiso   1.00
C517   C     0.83733   0.11608   0.75104   0.00000  Uiso   1.00
C518   C     0.83740   0.38401   0.74978   0.00000  Uiso   1.00
C519   C     0.85737   0.09489   0.71418   0.00000  Uiso   1.00
C520   C     0.85740   0.40605   0.79164   0.00000  Uiso   1.00
C521   C     0.86067   0.04900   0.71457   0.00000  Uiso   1.00
C522   C     0.86075   0.45204   0.79188   0.00000  Uiso   1.00
C523   C     0.84341   0.02422   0.75153   0.00000  Uiso   1.00
C524   C     0.84354   0.47607   0.75043   0.00000  Uiso   1.00
H525   H     0.99192   0.24768   0.69497   0.00000  Uiso   1.00
H526   H     0.67480   0.25098   0.80517   0.00000  Uiso   1.00
H527   H     0.80971   0.02644   0.81703   0.00000  Uiso   1.00
H528   H     0.81008   0.47241   0.67632   0.00000  Uiso   1.00
H529   H     0.80559   0.10739   0.81712   0.00000  Uiso   1.00
H530   H     0.80585   0.39117   0.67546   0.00000  Uiso   1.00
H531   H     0.87079   0.11374   0.68532   0.00000  Uiso   1.00
H532   H     0.87072   0.38779   0.82400   0.00000  Uiso   1.00
H533   H     0.87646   0.03284   0.68607   0.00000  Uiso   1.00
H534   H     0.87645   0.46887   0.82435   0.00000  Uiso   1.00
H535   H     0.75947   0.21235   0.52703   0.00000  Uiso   1.00
H536   H     0.87857   0.31248   0.96888   0.00000  Uiso   1.00
H537   H     0.76327   0.21113   0.61343   0.00000  Uiso   1.00
H538   H     0.87978   0.30920   0.88317   0.00000  Uiso   1.00
H539   H     0.90462   0.28842   0.54220   0.00000  Uiso   1.00
H540   H     0.78770   0.18987   0.96156   0.00000  Uiso   1.00
N541   N     0.83333   0.24999   0.62624   0.00000  Uiso   1.00
N542   N     0.83333   0.25001   0.87376   0.00000  Uiso   1.00
O543   O     0.83334   0.18453   0.78974   0.00000  Uiso   1.00
O544   O     0.83333   0.31546   0.71026   0.00000  Uiso   1.00
O545   O     0.83334   0.18453   0.71026   0.00000  Uiso   1.00
O546   O     0.83333   0.31547   0.78974   0.00000  Uiso   1.00
O547   O     0.75725   0.25000   0.78044   0.00000  Uiso   1.00
O548   O     0.90942   0.25000   0.71956   0.00000  Uiso   1.00
O549   O     0.75725   0.24999   0.70096   0.00000  Uiso   1.00
O550   O     0.90942   0.25000   0.79904   0.00000  Uiso   1.00
Zn551  Zn    0.83333   0.25000   0.80307   0.00000  Uiso   1.00
Zn552  Zn    0.83333   0.24999   0.69693   0.00000  Uiso   1.00
C553   C     0.91273   0.30012   0.63493   0.00000  Uiso   1.00
H554   H     0.90607   0.31374   0.66820   0.00000  Uiso   1.00
O555   O     0.95452   0.30901   0.62098   0.00000  Uiso   1.00
C556   C     0.77394   0.18270   0.86806   0.00000  Uiso   1.00
H557   H     0.75972   0.18743   0.83111   0.00000  Uiso   1.00
O558   O     0.76117   0.14817   0.88706   0.00000  Uiso   1.00
C559   C     0.16728   0.66393   0.75033   0.00000  Uiso   1.00
C560   C     0.16736   0.83607   0.74981   0.00000  Uiso   1.00
C561   C     0.12583   0.72865   0.54808   0.00000  Uiso   1.00
C562   C     0.19233   0.78458   0.94975   0.00000  Uiso   1.00
C563   C     0.12743   0.72829   0.59774   0.00000  Uiso   1.00
C564   C     0.19261   0.78319   0.90035   0.00000  Uiso   1.00
C565   C     0.20539   0.77262   0.60615   0.00000  Uiso   1.00
C566   C     0.13977   0.71729   0.89558   0.00000  Uiso   1.00
C567   C     0.20606   0.77176   0.55680   0.00000  Uiso   1.00
C568   C     0.14081   0.71683   0.94518   0.00000  Uiso   1.00
C569   C     0.16587   0.75039   0.52654   0.00000  Uiso   1.00
C570   C     0.16636   0.75080   0.97332   0.00000  Uiso   1.00
C571   C     0.06714   0.74970   0.73770   0.00000  Uiso   1.00
C572   C     0.26620   0.74995   0.76232   0.00000  Uiso   1.00
C573   C     0.01218   0.74900   0.73106   0.00000  Uiso   1.00
C574   C     0.32117   0.74995   0.76903   0.00000  Uiso   1.00
C575   C     0.15723   0.54543   0.78864   0.00000  Uiso   1.00
C576   C     0.15751   0.95402   0.70840   0.00000  Uiso   1.00
C577   C     0.15453   0.59137   0.78854   0.00000  Uiso   1.00
C578   C     0.15475   0.90796   0.70800   0.00000  Uiso   1.00
C579   C     0.17067   0.61608   0.75104   0.00000  Uiso   1.00
C580   C     0.17073   0.88401   0.74978   0.00000  Uiso   1.00
C581   C     0.19071   0.59489   0.71418   0.00000  Uiso   1.00
C582   C     0.19073   0.90605   0.79164   0.00000  Uiso   1.00
C583   C     0.19401   0.54900   0.71457   0.00000  Uiso   1.00
C584   C     0.19408   0.95204   0.79188   0.00000  Uiso   1.00
C585   C     0.17674   0.52422   0.75153   0.00000  Uiso   1.00
C586   C     0.17687   0.97607   0.75043   0.00000  Uiso   1.00
H587   H     0.32525   0.74768   0.69497   0.00000  Uiso   1.00
H588   H     0.00814   0.75098   0.80517   0.00000  Uiso   1.00
H589   H     0.14304   0.52644   0.81703   0.00000  Uiso   1.00
H590   H     0.14341   0.97241   0.67632   0.00000  Uiso   1.00
H591   H     0.13892   0.60739   0.81712   0.00000  Uiso   1.00
H592   H     0.13919   0.89117   0.67546   0.00000  Uiso   1.00
H593   H     0.20412   0.61374   0.68532   0.00000  Uiso   1.00
H594   H     0.20405   0.88779   0.82400   0.00000  Uiso   1.00
H595   H     0.20979   0.53284   0.68607   0.00000  Uiso   1.00
H596   H     0.20979   0.96887   0.82435   0.00000  Uiso   1.00
H597   H     0.09281   0.71235   0.52703   0.00000  Uiso   1.00
H598   H     0.21190   0.81248   0.96888   0.00000  Uiso   1.00
H599   H     0.09660   0.71113   0.61343   0.00000  Uiso   1.00
H600   H     0.21311   0.80920   0.88317   0.00000  Uiso   1.00
H601   H     0.23795   0.78842   0.54220   0.00000  Uiso   1.00
H602   H     0.12103   0.68987   0.96156   0.00000  Uiso   1.00
N603   N     0.16667   0.74999   0.62624   0.00000  Uiso   1.00
N604   N     0.16667   0.75001   0.87376   0.00000  Uiso   1.00
O605   O     0.16667   0.68453   0.78974   0.00000  Uiso   1.00
O606   O     0.16666   0.81546   0.71026   0.00000  Uiso   1.00
O607   O     0.16667   0.68453   0.71026   0.00000  Uiso   1.00
O608   O     0.16666   0.81547   0.78974   0.00000  Uiso   1.00
O609   O     0.09058   0.75000   0.78044   0.00000  Uiso   1.00
O610   O     0.24275   0.75000   0.71956   0.00000  Uiso   1.00
O611   O     0.09058   0.74999   0.70096   0.00000  Uiso   1.00
O612   O     0.24275   0.75000   0.79904   0.00000  Uiso   1.00
Zn613  Zn    0.16667   0.75000   0.80307   0.00000  Uiso   1.00
Zn614  Zn    0.16667   0.74999   0.69693   0.00000  Uiso   1.00
C615   C     0.24606   0.80012   0.63493   0.00000  Uiso   1.00
H616   H     0.23941   0.81374   0.66820   0.00000  Uiso   1.00
O617   O     0.28786   0.80901   0.62098   0.00000  Uiso   1.00
C618   C     0.10727   0.68270   0.86806   0.00000  Uiso   1.00
H619   H     0.09305   0.68743   0.83111   0.00000  Uiso   1.00
O620   O     0.09450   0.64817   0.88706   0.00000  Uiso   1.00
C621   C     0.50061   0.66393   0.75033   0.00000  Uiso   1.00
C622   C     0.50070   0.83607   0.74981   0.00000  Uiso   1.00
C623   C     0.45917   0.72865   0.54808   0.00000  Uiso   1.00
C624   C     0.52566   0.78458   0.94975   0.00000  Uiso   1.00
C625   C     0.46076   0.72829   0.59774   0.00000  Uiso   1.00
C626   C     0.52595   0.78319   0.90035   0.00000  Uiso   1.00
C627   C     0.53872   0.77262   0.60615   0.00000  Uiso   1.00
C628   C     0.47310   0.71729   0.89558   0.00000  Uiso   1.00
C629   C     0.53939   0.77176   0.55680   0.00000  Uiso   1.00
C630   C     0.47414   0.71683   0.94518   0.00000  Uiso   1.00
C631   C     0.49921   0.75039   0.52654   0.00000  Uiso   1.00
C632   C     0.49969   0.75080   0.97332   0.00000  Uiso   1.00
C633   C     0.40047   0.74970   0.73770   0.00000  Uiso   1.00
C634   C     0.59954   0.74995   0.76232   0.00000  Uiso   1.00
C635   C     0.34552   0.74900   0.73106   0.00000  Uiso   1.00
C636   C     0.65450   0.74995   0.76903   0.00000  Uiso   1.00
C637   C     0.49057   0.54543   0.78864   0.00000  Uiso   1.00
C638   C     0.49085   0.95402   0.70840   0.00000  Uiso   1.00
C639   C     0.48787   0.59137   0.78854   0.00000  Uiso   1.00
C640   C     0.48808   0.90796   0.70800   0.00000  Uiso   1.00
C641   C     0.50400   0.61608   0.75104   0.00000  Uiso   1.00
C642   C     0.50407   0.88401   0.74978   0.00000  Uiso   1.00
C643   C     0.52404   0.59489   0.71418   0.00000  Uiso   1.00
C644   C     0.52406   0.90605   0.79164   0.00000  Uiso   1.00
C645   C     0.52734   0.54900   0.71457   0.00000  Uiso   1.00
C646   C     0.52741   0.95204   0.79188   0.00000  Uiso   1.00
C647   C     0.51007   0.52422   0.75153   0.00000  Uiso   1.00
C648   C     0.51020   0.97607   0.75043   0.00000  Uiso   1.00
H649   H     0.65858   0.74768   0.69497   0.00000  Uiso   1.00
H650   H     0.34147   0.75098   0.80517   0.00000  Uiso   1.00
H651   H     0.47638   0.52644   0.81703   0.00000  Uiso   1.00
H652   H     0.47675   0.97241   0.67632   0.00000  Uiso   1.00
H653   H     0.47225   0.60739   0.81712   0.00000  Uiso   1.00
H654   H     0.47252   0.89117   0.67546   0.00000  Uiso   1.00
H655   H     0.53745   0.61374   0.68532   0.00000  Uiso   1.00
H656   H     0.53738   0.88779   0.82400   0.00000  Uiso   1.00
H657   H     0.54312   0.53284   0.68607   0.00000  Uiso   1.00
H658   H     0.54312   0.96887   0.82435   0.00000  Uiso   1.00
H659   H     0.42614   0.71235   0.52703   0.00000  Uiso   1.00
H660   H     0.54524   0.81248   0.96888   0.00000  Uiso   1.00
H661   H     0.42994   0.71113   0.61343   0.00000  Uiso   1.00
H662   H     0.54644   0.80920   0.88317   0.00000  Uiso   1.00
H663   H     0.57129   0.78842   0.54220   0.00000  Uiso   1.00
H664   H     0.45437   0.68987   0.96156   0.00000  Uiso   1.00
N665   N     0.50000   0.74999   0.62624   0.00000  Uiso   1.00
N666   N     0.50000   0.75001   0.87376   0.00000  Uiso   1.00
O667   O     0.50000   0.68453   0.78974   0.00000  Uiso   1.00
O668   O     0.50000   0.81546   0.71026   0.00000  Uiso   1.00
O669   O     0.50000   0.68453   0.71026   0.00000  Uiso   1.00
O670   O     0.50000   0.81547   0.78974   0.00000  Uiso   1.00
O671   O     0.42392   0.75000   0.78044   0.00000  Uiso   1.00
O672   O     0.57608   0.75000   0.71956   0.00000  Uiso   1.00
O673   O     0.42392   0.74999   0.70096   0.00000  Uiso   1.00
O674   O     0.57608   0.75000   0.79904   0.00000  Uiso   1.00
Zn675  Zn    0.50000   0.75000   0.80307   0.00000  Uiso   1.00
Zn676  Zn    0.50000   0.74999   0.69693   0.00000  Uiso   1.00
C677   C     0.57940   0.80012   0.63493   0.00000  Uiso   1.00
H678   H     0.57274   0.81374   0.66820   0.00000  Uiso   1.00
O679   O     0.62119   0.80901   0.62098   0.00000  Uiso   1.00
C680   C     0.44060   0.68270   0.86806   0.00000  Uiso   1.00
H681   H     0.42639   0.68743   0.83111   0.00000  Uiso   1.00
O682   O     0.42783   0.64817   0.88706   0.00000  Uiso   1.00
C683   C     0.83395   0.66393   0.75033   0.00000  Uiso   1.00
C684   C     0.83403   0.83607   0.74981   0.00000  Uiso   1.00
C685   C     0.79250   0.72865   0.54808   0.00000  Uiso   1.00
C686   C     0.85899   0.78458   0.94975   0.00000  Uiso   1.00
C687   C     0.79409   0.72829   0.59774   0.00000  Uiso   1.00
C688   C     0.85928   0.78319   0.90035   0.00000  Uiso   1.00
C689   C     0.87205   0.77262   0.60615   0.00000  Uiso   1.00
C690   C     0.80643   0.71729   0.89558   0.00000  Uiso   1.00
C691   C     0.87272   0.77176   0.55680   0.00000  Uiso   1.00
C692   C     0.80748   0.71683   0.94518   0.00000  Uiso   1.00
C693   C     0.83254   0.75039   0.52654   0.00000  Uiso   1.00
C694   C     0.83302   0.75080   0.97332   0.00000  Uiso   1.00
C695   C     0.73380   0.74970   0.73770   0.00000  Uiso   1.00
C696   C     0.93287   0.74995   0.76232   0.00000  Uiso   1.00
C697   C     0.67885   0.74900   0.73106   0.00000  Uiso   1.00
C698   C     0.98783   0.74995   0.76903   0.00000  Uiso   1.00
C699   C     0.82390   0.54543   0.78864   0.00000  Uiso   1.00
C700   C     0.82418   0.95402   0.70840   0.00000  Uiso   1.00
C701   C     0.82120   0.59137   0.78854   0.00000  Uiso   1.00
C702   C     0.82142   0.90796   0.70800   0.00000  Uiso   1.00
C703   C     0.83733   0.61608   0.75104   0.00000  Uiso   1.00
C704   C     0.83740   0.88401   0.74978   0.00000  Uiso   1.00
C705   C     0.85737   0.59489   0.71418   0.00000  Uiso   1.00
C706   C     0.85740   0.90605   0.79164   0.00000  Uiso   1.00
C707   C     0.86067   0.54900   0.71457   0.00000  Uiso   1.00
C708   C     0.86075   0.95204   0.79188   0.00000  Uiso   1.00
C709   C     0.84341   0.52422   0.75153   0.00000  Uiso   1.00
C710   C     0.84354   0.97607   0.75043   0.00000  Uiso   1.00
H711   H     0.99192   0.74768   0.69497   0.00000  Uiso   1.00
H712   H     0.67480   0.75098   0.80517   0.00000  Uiso   1.00
H713   H     0.80971   0.52644   0.81703   0.00000  Uiso   1.00
H714   H     0.81008   0.97241   0.67632   0.00000  Uiso   1.00
H715   H     0.80559   0.60739   0.81712   0.00000  Uiso   1.00
H716   H     0.80585   0.89117   0.67546   0.00000  Uiso   1.00
H717   H     0.87079   0.61374   0.68532   0.00000  Uiso   1.00
H718   H     0.87072   0.88779   0.82400   0.00000  Uiso   1.00
H719   H     0.87646   0.53284   0.68607   0.00000  Uiso   1.00
H720   H     0.87645   0.96887   0.82435   0.00000  Uiso   1.00
H721   H     0.75947   0.71235   0.52703   0.00000  Uiso   1.00
H722   H     0.87857   0.81248   0.96888   0.00000  Uiso   1.00
H723   H     0.76327   0.71113   0.61343   0.00000  Uiso   1.00
H724   H     0.87978   0.80920   0.88317   0.00000  Uiso   1.00
H725   H     0.90462   0.78842   0.54220   0.00000  Uiso   1.00
H726   H     0.78770   0.68987   0.96156   0.00000  Uiso   1.00
N727   N     0.83333   0.74999   0.62624   0.00000  Uiso   1.00
N728   N     0.83333   0.75001   0.87376   0.00000  Uiso   1.00
O729   O     0.83334   0.68453   0.78974   0.00000  Uiso   1.00
O730   O     0.83333   0.81546   0.71026   0.00000  Uiso   1.00
O731   O     0.83334   0.68453   0.71026   0.00000  Uiso   1.00
O732   O     0.83333   0.81547   0.78974   0.00000  Uiso   1.00
O733   O     0.75725   0.75000   0.78044   0.00000  Uiso   1.00
O734   O     0.90942   0.75000   0.71956   0.00000  Uiso   1.00
O735   O     0.75725   0.74999   0.70096   0.00000  Uiso   1.00
O736   O     0.90942   0.75000   0.79904   0.00000  Uiso   1.00
Zn737  Zn    0.83333   0.75000   0.80307   0.00000  Uiso   1.00
Zn738  Zn    0.83333   0.74999   0.69693   0.00000  Uiso   1.00
C739   C     0.91273   0.80012   0.63493   0.00000  Uiso   1.00
H740   H     0.90607   0.81374   0.66820   0.00000  Uiso   1.00
O741   O     0.95452   0.80901   0.62098   0.00000  Uiso   1.00
C742   C     0.77394   0.68270   0.86806   0.00000  Uiso   1.00
H743   H     0.75972   0.68743   0.83111   0.00000  Uiso   1.00
O744   O     0.76117   0.64817   0.88706   0.00000  Uiso   1.00
loop_
_geom_bond_atom_site_label_1
_geom_bond_atom_site_label_2
_geom_bond_distance
_geom_bond_site_symmetry_2
_ccdc_geom_bond_type
C1     C21     1.439   .     S
C1     O47     1.292   .     A
C1     O49     1.289   .     A
C2     C22     1.438   .     S
C2     O48     1.291   .     A
C2     O50     1.290   .     A
C3     C11     1.415   .     A
C3     H39     1.081   .     S
C3     C5      1.410   .     A
C4     H40     1.081   .     S
C4     C6      1.411   .     A
C4     C12     1.415   .     A
C5     H41     1.082   .     S
C5     N45     1.363   .     A
C6     N46     1.364   .     A
C6     H42     1.082   .     S
C7     C9      1.410   .     A
C7     N45     1.379   .     A
C7     C57     1.479   .     S
C8     C60     1.480   .     S
C8     C10     1.410   .     A
C8     N46     1.379   .     A
C9     C11     1.400   .     A
C9     H43     1.081   .     S
C10    C12     1.400   .     A
C10    H44     1.081   .     S
C11    C384    1.519   1_554 S
C12    C383    1.519   .     S
C13    C15     1.401   .     S
C13    O53     1.280   .     A
C13    O51     1.282   .     A
C14    O52     1.282   .     A
C14    C16     1.402   .     S
C14    O54     1.280   .     A
C15    C140    1.326   1_455 S
C15    H153    1.087   1_455 S
C16    C77     1.326   .     S
C16    H92     1.088   .     S
C17    H31     1.083   .     S
C17    C27     1.400   .     A
C17    C19     1.381   .     A
C18    H32     1.083   .     S
C18    C28     1.400   .     A
C18    C20     1.382   .     A
C19    C21     1.398   .     A
C19    H33     1.081   .     S
C20    H34     1.084   .     S
C20    C22     1.398   .     A
C21    C23     1.401   .     A
C22    C24     1.400   .     A
C23    H35     1.084   .     S
C23    C25     1.380   .     A
C24    H36     1.084   .     S
C24    C26     1.380   .     A
C25    C27     1.398   .     A
C25    H37     1.083   .     S
C26    C28     1.398   .     A
C26    H38     1.083   .     S
C27    C214    1.445   1_545 S
C28    C213    1.445   .     S
H29    C77     1.087   .     S
H30    C140    1.088   1_455 S
N45    Zn56    2.016   .     S
N46    Zn55    2.016   .     S
O47    Zn55    2.005   .     S
O48    Zn56    2.005   .     S
O49    Zn56    1.994   .     S
O50    Zn55    1.994   .     S
O51    Zn55    1.975   .     S
O52    Zn56    1.975   .     S
O53    Zn56    1.979   .     S
O54    Zn55    1.979   .     S
C57    H58     1.075   .     S
C57    O59     1.222   .     D
C60    O62     1.222   .     D
C60    H61     1.074   .     S
C63    C83     1.439   .     S
C63    O109    1.292   .     A
C63    O111    1.289   .     A
C64    C84     1.438   .     S
C64    O110    1.291   .     A
C64    O112    1.290   .     A
C65    C73     1.415   .     A
C65    H101    1.081   .     S
C65    C67     1.410   .     A
C66    H102    1.081   .     S
C66    C68     1.411   .     A
C66    C74     1.415   .     A
C67    H103    1.082   .     S
C67    N107    1.363   .     A
C68    N108    1.364   .     A
C68    H104    1.082   .     S
C69    C71     1.410   .     A
C69    N107    1.379   .     A
C69    C119    1.479   .     S
C70    C122    1.480   .     S
C70    C72     1.410   .     A
C70    N108    1.379   .     A
C71    C73     1.400   .     A
C71    H105    1.081   .     S
C72    C74     1.400   .     A
C72    H106    1.081   .     S
C73    C446    1.519   1_554 S
C74    C445    1.519   .     S
C75    C77     1.401   .     S
C75    O115    1.280   .     A
C75    O113    1.282   .     A
C76    O114    1.282   .     A
C76    C78     1.402   .     S
C76    O116    1.280   .     A
C78    C139    1.326   .     S
C78    H154    1.088   .     S
C79    H93     1.083   .     S
C79    C89     1.400   .     A
C79    C81     1.381   .     A
C80    H94     1.083   .     S
C80    C90     1.400   .     A
C80    C82     1.382   .     A
C81    C83     1.398   .     A
C81    H95     1.081   .     S
C82    H96     1.084   .     S
C82    C84     1.398   .     A
C83    C85     1.401   .     A
C84    C86     1.400   .     A
C85    H97     1.084   .     S
C85    C87     1.380   .     A
C86    H98     1.084   .     S
C86    C88     1.380   .     A
C87    C89     1.398   .     A
C87    H99     1.083   .     S
C88    C90     1.398   .     A
C88    H100    1.083   .     S
C89    C276    1.445   1_545 S
C90    C275    1.445   .     S
H91    C139    1.087   .     S
N107   Zn118   2.016   .     S
N108   Zn117   2.016   .     S
O109   Zn117   2.005   .     S
O110   Zn118   2.005   .     S
O111   Zn118   1.994   .     S
O112   Zn117   1.994   .     S
O113   Zn117   1.975   .     S
O114   Zn118   1.975   .     S
O115   Zn118   1.979   .     S
O116   Zn117   1.979   .     S
C119   H120    1.075   .     S
C119   O121    1.222   .     D
C122   O124    1.222   .     D
C122   H123    1.074   .     S
C125   C145    1.439   .     S
C125   O171    1.292   .     A
C125   O173    1.289   .     A
C126   C146    1.438   .     S
C126   O172    1.291   .     A
C126   O174    1.290   .     A
C127   C135    1.415   .     A
C127   H163    1.081   .     S
C127   C129    1.410   .     A
C128   H164    1.081   .     S
C128   C130    1.411   .     A
C128   C136    1.415   .     A
C129   H165    1.082   .     S
C129   N169    1.363   .     A
C130   N170    1.364   .     A
C130   H166    1.082   .     S
C131   C133    1.410   .     A
C131   N169    1.379   .     A
C131   C181    1.479   .     S
C132   C184    1.480   .     S
C132   C134    1.410   .     A
C132   N170    1.379   .     A
C133   C135    1.400   .     A
C133   H167    1.081   .     S
C134   C136    1.400   .     A
C134   H168    1.081   .     S
C135   C508    1.519   1_554 S
C136   C507    1.519   .     S
C137   C139    1.401   .     S
C137   O177    1.280   .     A
C137   O175    1.282   .     A
C138   O176    1.282   .     A
C138   C140    1.402   .     S
C138   O178    1.280   .     A
C140   C15     1.326   1_655 S
C140   H30     1.088   1_655 S
C141   H155    1.083   .     S
C141   C151    1.400   .     A
C141   C143    1.381   .     A
C142   H156    1.083   .     S
C142   C152    1.400   .     A
C142   C144    1.382   .     A
C143   C145    1.398   .     A
C143   H157    1.081   .     S
C144   H158    1.084   .     S
C144   C146    1.398   .     A
C145   C147    1.401   .     A
C146   C148    1.400   .     A
C147   H159    1.084   .     S
C147   C149    1.380   .     A
C148   H160    1.084   .     S
C148   C150    1.380   .     A
C149   C151    1.398   .     A
C149   H161    1.083   .     S
C150   C152    1.398   .     A
C150   H162    1.083   .     S
C151   C338    1.445   1_545 S
C152   C337    1.445   .     S
H153   C15     1.087   1_655 S
N169   Zn180   2.016   .     S
N170   Zn179   2.016   .     S
O171   Zn179   2.005   .     S
O172   Zn180   2.005   .     S
O173   Zn180   1.994   .     S
O174   Zn179   1.994   .     S
O175   Zn179   1.975   .     S
O176   Zn180   1.975   .     S
O177   Zn180   1.979   .     S
O178   Zn179   1.979   .     S
C181   H182    1.075   .     S
C181   O183    1.222   .     D
C184   O186    1.222   .     D
C184   H185    1.074   .     S
C187   C207    1.439   .     S
C187   O233    1.292   .     A
C187   O235    1.289   .     A
C188   C208    1.438   .     S
C188   O234    1.291   .     A
C188   O236    1.290   .     A
C189   C197    1.415   .     A
C189   H225    1.081   .     S
C189   C191    1.410   .     A
C190   H226    1.081   .     S
C190   C192    1.411   .     A
C190   C198    1.415   .     A
C191   H227    1.082   .     S
C191   N231    1.363   .     A
C192   N232    1.364   .     A
C192   H228    1.082   .     S
C193   C195    1.410   .     A
C193   N231    1.379   .     A
C193   C243    1.479   .     S
C194   C246    1.480   .     S
C194   C196    1.410   .     A
C194   N232    1.379   .     A
C195   C197    1.400   .     A
C195   H229    1.081   .     S
C196   C198    1.400   .     A
C196   H230    1.081   .     S
C197   C570    1.519   1_554 S
C198   C569    1.519   .     S
C199   C201    1.401   .     S
C199   O239    1.280   .     A
C199   O237    1.282   .     A
C200   O238    1.282   .     A
C200   C202    1.402   .     S
C200   O240    1.280   .     A
C201   C326    1.326   1_455 S
C201   H339    1.087   1_455 S
C202   C263    1.326   .     S
C202   H278    1.088   .     S
C203   H217    1.083   .     S
C203   C213    1.400   .     A
C203   C205    1.381   .     A
C204   H218    1.083   .     S
C204   C214    1.400   .     A
C204   C206    1.382   .     A
C205   C207    1.398   .     A
C205   H219    1.081   .     S
C206   H220    1.084   .     S
C206   C208    1.398   .     A
C207   C209    1.401   .     A
C208   C210    1.400   .     A
C209   H221    1.084   .     S
C209   C211    1.380   .     A
C210   H222    1.084   .     S
C210   C212    1.380   .     A
C211   C213    1.398   .     A
C211   H223    1.083   .     S
C212   C214    1.398   .     A
C212   H224    1.083   .     S
C214   C27     1.445   1_565 S
H215   C263    1.087   .     S
H216   C326    1.088   1_455 S
N231   Zn242   2.016   .     S
N232   Zn241   2.016   .     S
O233   Zn241   2.005   .     S
O234   Zn242   2.005   .     S
O235   Zn242   1.994   .     S
O236   Zn241   1.994   .     S
O237   Zn241   1.975   .     S
O238   Zn242   1.975   .     S
O239   Zn242   1.979   .     S
O240   Zn241   1.979   .     S
C243   H244    1.075   .     S
C243   O245    1.222   .     D
C246   O248    1.222   .     D
C246   H247    1.074   .     S
C249   C269    1.439   .     S
C249   O295    1.292   .     A
C249   O297    1.289   .     A
C250   C270    1.438   .     S
C250   O296    1.291   .     A
C250   O298    1.290   .     A
C251   C259    1.415   .     A
C251   H287    1.081   .     S
C251   C253    1.410   .     A
C252   H288    1.081   .     S
C252   C254    1.411   .     A
C252   C260    1.415   .     A
C253   H289    1.082   .     S
C253   N293    1.363   .     A
C254   N294    1.364   .     A
C254   H290    1.082   .     S
C255   C257    1.410   .     A
C255   N293    1.379   .     A
C255   C305    1.479   .     S
C256   C308    1.480   .     S
C256   C258    1.410   .     A
C256   N294    1.379   .     A
C257   C259    1.400   .     A
C257   H291    1.081   .     S
C258   C260    1.400   .     A
C258   H292    1.081   .     S
C259   C632    1.519   1_554 S
C260   C631    1.519   .     S
C261   C263    1.401   .     S
C261   O301    1.280   .     A
C261   O299    1.282   .     A
C262   O300    1.282   .     A
C262   C264    1.402   .     S
C262   O302    1.280   .     A
C264   C325    1.326   .     S
C264   H340    1.088   .     S
C265   H279    1.083   .     S
C265   C275    1.400   .     A
C265   C267    1.381   .     A
C266   H280    1.083   .     S
C266   C276    1.400   .     A
C266   C268    1.382   .     A
C267   C269    1.398   .     A
C267   H281    1.081   .     S
C268   H282    1.084   .     S
C268   C270    1.398   .     A
C269   C271    1.401   .     A
C270   C272    1.400   .     A
C271   H283    1.084   .     S
C271   C273    1.380   .     A
C272   H284    1.084   .     S
C272   C274    1.380   .     A
C273   C275    1.398   .     A
C273   H285    1.083   .     S
C274   C276    1.398   .     A
C274   H286    1.083   .     S
C276   C89     1.445   1_565 S
H277   C325    1.087   .     S
N293   Zn304   2.016   .     S
N294   Zn303   2.016   .     S
O295   Zn303   2.005   .     S
O296   Zn304   2.005   .     S
O297   Zn304   1.994   .     S
O298   Zn303   1.994   .     S
O299   Zn303   1.975   .     S
O300   Zn304   1.975   .     S
O301   Zn304   1.979   .     S
O302   Zn303   1.979   .     S
C305   H306    1.075   .     S
C305   O307    1.222   .     D
C308   O310    1.222   .     D
C308   H309    1.074   .     S
C311   C331    1.439   .     S
C311   O357    1.292   .     A
C311   O359    1.289   .     A
C312   C332    1.438   .     S
C312   O358    1.291   .     A
C312   O360    1.290   .     A
C313   C321    1.415   .     A
C313   H349    1.081   .     S
C313   C315    1.410   .     A
C314   H350    1.081   .     S
C314   C316    1.411   .     A
C314   C322    1.415   .     A
C315   H351    1.082   .     S
C315   N355    1.363   .     A
C316   N356    1.364   .     A
C316   H352    1.082   .     S
C317   C319    1.410   .     A
C317   N355    1.379   .     A
C317   C367    1.479   .     S
C318   C370    1.480   .     S
C318   C320    1.410   .     A
C318   N356    1.379   .     A
C319   C321    1.400   .     A
C319   H353    1.081   .     S
C320   C322    1.400   .     A
C320   H354    1.081   .     S
C321   C694    1.519   1_554 S
C322   C693    1.519   .     S
C323   C325    1.401   .     S
C323   O363    1.280   .     A
C323   O361    1.282   .     A
C324   O362    1.282   .     A
C324   C326    1.402   .     S
C324   O364    1.280   .     A
C326   C201    1.326   1_655 S
C326   H216    1.088   1_655 S
C327   H341    1.083   .     S
C327   C337    1.400   .     A
C327   C329    1.381   .     A
C328   H342    1.083   .     S
C328   C338    1.400   .     A
C328   C330    1.382   .     A
C329   C331    1.398   .     A
C329   H343    1.081   .     S
C330   H344    1.084   .     S
C330   C332    1.398   .     A
C331   C333    1.401   .     A
C332   C334    1.400   .     A
C333   H345    1.084   .     S
C333   C335    1.380   .     A
C334   H346    1.084   .     S
C334   C336    1.380   .     A
C335   C337    1.398   .     A
C335   H347    1.083   .     S
C336   C338    1.398   .     A
C336   H348    1.083   .     S
C338   C151    1.445   1_565 S
H339   C201    1.087   1_655 S
N355   Zn366   2.016   .     S
N356   Zn365   2.016   .     S
O357   Zn365   2.005   .     S
O358   Zn366   2.005   .     S
O359   Zn366   1.994   .     S
O360   Zn365   1.994   .     S
O361   Zn365   1.975   .     S
O362   Zn366   1.975   .     S
O363   Zn366   1.979   .     S
O364   Zn365   1.979   .     S
C367   H368    1.075   .     S
C367   O369    1.222   .     D
C370   O372    1.222   .     D
C370   H371    1.074   .     S
C373   C393    1.439   .     S
C373   O419    1.292   .     A
C373   O421    1.289   .     A
C374   C394    1.438   .     S
C374   O420    1.291   .     A
C374   O422    1.290   .     A
C375   C383    1.415   .     A
C375   H411    1.081   .     S
C375   C377    1.410   .     A
C376   H412    1.081   .     S
C376   C378    1.411   .     A
C376   C384    1.415   .     A
C377   H413    1.082   .     S
C377   N417    1.363   .     A
C378   N418    1.364   .     A
C378   H414    1.082   .     S
C379   C381    1.410   .     A
C379   N417    1.379   .     A
C379   C429    1.479   .     S
C380   C432    1.480   .     S
C380   C382    1.410   .     A
C380   N418    1.379   .     A
C381   C383    1.400   .     A
C381   H415    1.081   .     S
C382   C384    1.400   .     A
C382   H416    1.081   .     S
C384   C11     1.519   1_556 S
C385   C387    1.401   .     S
C385   O425    1.280   .     A
C385   O423    1.282   .     A
C386   O424    1.282   .     A
C386   C388    1.402   .     S
C386   O426    1.280   .     A
C387   C512    1.326   1_455 S
C387   H525    1.087   1_455 S
C388   C449    1.326   .     S
C388   H464    1.088   .     S
C389   H403    1.083   .     S
C389   C399    1.400   .     A
C389   C391    1.381   .     A
C390   H404    1.083   .     S
C390   C400    1.400   .     A
C390   C392    1.382   .     A
C391   C393    1.398   .     A
C391   H405    1.081   .     S
C392   H406    1.084   .     S
C392   C394    1.398   .     A
C393   C395    1.401   .     A
C394   C396    1.400   .     A
C395   H407    1.084   .     S
C395   C397    1.380   .     A
C396   H408    1.084   .     S
C396   C398    1.380   .     A
C397   C399    1.398   .     A
C397   H409    1.083   .     S
C398   C400    1.398   .     A
C398   H410    1.083   .     S
C399   C586    1.445   1_545 S
C400   C585    1.445   .     S
H401   C449    1.087   .     S
H402   C512    1.088   1_455 S
N417   Zn428   2.016   .     S
N418   Zn427   2.016   .     S
O419   Zn427   2.005   .     S
O420   Zn428   2.005   .     S
O421   Zn428   1.994   .     S
O422   Zn427   1.994   .     S
O423   Zn427   1.975   .     S
O424   Zn428   1.975   .     S
O425   Zn428   1.979   .     S
O426   Zn427   1.979   .     S
C429   H430    1.075   .     S
C429   O431    1.222   .     D
C432   O434    1.222   .     D
C432   H433    1.074   .     S
C435   C455    1.439   .     S
C435   O481    1.292   .     A
C435   O483    1.289   .     A
C436   C456    1.438   .     S
C436   O482    1.291   .     A
C436   O484    1.290   .     A
C437   C445    1.415   .     A
C437   H473    1.081   .     S
C437   C439    1.410   .     A
C438   H474    1.081   .     S
C438   C440    1.411   .     A
C438   C446    1.415   .     A
C439   H475    1.082   .     S
C439   N479    1.363   .     A
C440   N480    1.364   .     A
C440   H476    1.082   .     S
C441   C443    1.410   .     A
C441   N479    1.379   .     A
C441   C491    1.479   .     S
C442   C494    1.480   .     S
C442   C444    1.410   .     A
C442   N480    1.379   .     A
C443   C445    1.400   .     A
C443   H477    1.081   .     S
C444   C446    1.400   .     A
C444   H478    1.081   .     S
C446   C73     1.519   1_556 S
C447   C449    1.401   .     S
C447   O487    1.280   .     A
C447   O485    1.282   .     A
C448   O486    1.282   .     A
C448   C450    1.402   .     S
C448   O488    1.280   .     A
C450   C511    1.326   .     S
C450   H526    1.088   .     S
C451   H465    1.083   .     S
C451   C461    1.400   .     A
C451   C453    1.381   .     A
C452   H466    1.083   .     S
C452   C462    1.400   .     A
C452   C454    1.382   .     A
C453   C455    1.398   .     A
C453   H467    1.081   .     S
C454   H468    1.084   .     S
C454   C456    1.398   .     A
C455   C457    1.401   .     A
C456   C458    1.400   .     A
C457   H469    1.084   .     S
C457   C459    1.380   .     A
C458   H470    1.084   .     S
C458   C460    1.380   .     A
C459   C461    1.398   .     A
C459   H471    1.083   .     S
C460   C462    1.398   .     A
C460   H472    1.083   .     S
C461   C648    1.445   1_545 S
C462   C647    1.445   .     S
H463   C511    1.087   .     S
N479   Zn490   2.016   .     S
N480   Zn489   2.016   .     S
O481   Zn489   2.005   .     S
O482   Zn490   2.005   .     S
O483   Zn490   1.994   .     S
O484   Zn489   1.994   .     S
O485   Zn489   1.975   .     S
O486   Zn490   1.975   .     S
O487   Zn490   1.979   .     S
O488   Zn489   1.979   .     S
C491   H492    1.075   .     S
C491   O493    1.222   .     D
C494   O496    1.222   .     D
C494   H495    1.074   .     S
C497   C517    1.439   .     S
C497   O543    1.292   .     A
C497   O545    1.289   .     A
C498   C518    1.438   .     S
C498   O544    1.291   .     A
C498   O546    1.290   .     A
C499   C507    1.415   .     A
C499   H535    1.081   .     S
C499   C501    1.410   .     A
C500   H536    1.081   .     S
C500   C502    1.411   .     A
C500   C508    1.415   .     A
C501   H537    1.082   .     S
C501   N541    1.363   .     A
C502   N542    1.364   .     A
C502   H538    1.082   .     S
C503   C505    1.410   .     A
C503   N541    1.379   .     A
C503   C553    1.479   .     S
C504   C556    1.480   .     S
C504   C506    1.410   .     A
C504   N542    1.379   .     A
C505   C507    1.400   .     A
C505   H539    1.081   .     S
C506   C508    1.400   .     A
C506   H540    1.081   .     S
C508   C135    1.519   1_556 S
C509   C511    1.401   .     S
C509   O549    1.280   .     A
C509   O547    1.282   .     A
C510   O548    1.282   .     A
C510   C512    1.402   .     S
C510   O550    1.280   .     A
C512   C387    1.326   1_655 S
C512   H402    1.088   1_655 S
C513   H527    1.083   .     S
C513   C523    1.400   .     A
C513   C515    1.381   .     A
C514   H528    1.083   .     S
C514   C524    1.400   .     A
C514   C516    1.382   .     A
C515   C517    1.398   .     A
C515   H529    1.081   .     S
C516   H530    1.084   .     S
C516   C518    1.398   .     A
C517   C519    1.401   .     A
C518   C520    1.400   .     A
C519   H531    1.084   .     S
C519   C521    1.380   .     A
C520   H532    1.084   .     S
C520   C522    1.380   .     A
C521   C523    1.398   .     A
C521   H533    1.083   .     S
C522   C524    1.398   .     A
C522   H534    1.083   .     S
C523   C710    1.445   1_545 S
C524   C709    1.445   .     S
H525   C387    1.087   1_655 S
N541   Zn552   2.016   .     S
N542   Zn551   2.016   .     S
O543   Zn551   2.005   .     S
O544   Zn552   2.005   .     S
O545   Zn552   1.994   .     S
O546   Zn551   1.994   .     S
O547   Zn551   1.975   .     S
O548   Zn552   1.975   .     S
O549   Zn552   1.979   .     S
O550   Zn551   1.979   .     S
C553   H554    1.075   .     S
C553   O555    1.222   .     D
C556   O558    1.222   .     D
C556   H557    1.074   .     S
C559   C579    1.439   .     S
C559   O605    1.292   .     A
C559   O607    1.289   .     A
C560   C580    1.438   .     S
C560   O606    1.291   .     A
C560   O608    1.290   .     A
C561   C569    1.415   .     A
C561   H597    1.081   .     S
C561   C563    1.410   .     A
C562   H598    1.081   .     S
C562   C564    1.411   .     A
C562   C570    1.415   .     A
C563   H599    1.082   .     S
C563   N603    1.363   .     A
C564   N604    1.364   .     A
C564   H600    1.082   .     S
C565   C567    1.410   .     A
C565   N603    1.379   .     A
C565   C615    1.479   .     S
C566   C618    1.480   .     S
C566   C568    1.410   .     A
C566   N604    1.379   .     A
C567   C569    1.400   .     A
C567   H601    1.081   .     S
C568   C570    1.400   .     A
C568   H602    1.081   .     S
C570   C197    1.519   1_556 S
C571   C573    1.401   .     S
C571   O611    1.280   .     A
C571   O609    1.282   .     A
C572   O610    1.282   .     A
C572   C574    1.402   .     S
C572   O612    1.280   .     A
C573   C698    1.326   1_455 S
C573   H711    1.087   1_455 S
C574   C635    1.326   .     S
C574   H650    1.088   .     S
C575   H589    1.083   .     S
C575   C585    1.400   .     A
C575   C577    1.381   .     A
C576   H590    1.083   .     S
C576   C586    1.400   .     A
C576   C578    1.382   .     A
C577   C579    1.398   .     A
C577   H591    1.081   .     S
C578   H592    1.084   .     S
C578   C580    1.398   .     A
C579   C581    1.401   .     A
C580   C582    1.400   .     A
C581   H593    1.084   .     S
C581   C583    1.380   .     A
C582   H594    1.084   .     S
C582   C584    1.380   .     A
C583   C585    1.398   .     A
C583   H595    1.083   .     S
C584   C586    1.398   .     A
C584   H596    1.083   .     S
C586   C399    1.445   1_565 S
H587   C635    1.087   .     S
H588   C698    1.088   1_455 S
N603   Zn614   2.016   .     S
N604   Zn613   2.016   .     S
O605   Zn613   2.005   .     S
O606   Zn614   2.005   .     S
O607   Zn614   1.994   .     S
O608   Zn613   1.994   .     S
O609   Zn613   1.975   .     S
O610   Zn614   1.975   .     S
O611   Zn614   1.979   .     S
O612   Zn613   1.979   .     S
C615   H616    1.075   .     S
C615   O617    1.222   .     D
C618   O620    1.222   .     D
C618   H619    1.074   .     S
C621   C641    1.439   .     S
C621   O667    1.292   .     A
C621   O669    1.289   .     A
C622   C642    1.438   .     S
C622   O668    1.291   .     A
C622   O670    1.290   .     A
C623   C631    1.415   .     A
C623   H659    1.081   .     S
C623   C625    1.410   .     A
C624   H660    1.081   .     S
C624   C626    1.411   .     A
C624   C632    1.415   .     A
C625   H661    1.082   .     S
C625   N665    1.363   .     A
C626   N666    1.364   .     A
C626   H662    1.082   .     S
C627   C629    1.410   .     A
C627   N665    1.379   .     A
C627   C677    1.479   .     S
C628   C680    1.480   .     S
C628   C630    1.410   .     A
C628   N666    1.379   .     A
C629   C631    1.400   .     A
C629   H663    1.081   .     S
C630   C632    1.400   .     A
C630   H664    1.081   .     S
C632   C259    1.519   1_556 S
C633   C635    1.401   .     S
C633   O673    1.280   .     A
C633   O671    1.282   .     A
C634   O672    1.282   .     A
C634   C636    1.402   .     S
C634   O674    1.280   .     A
C636   C697    1.326   .     S
C636   H712    1.088   .     S
C637   H651    1.083   .     S
C637   C647    1.400   .     A
C637   C639    1.381   .     A
C638   H652    1.083   .     S
C638   C648    1.400   .     A
C638   C640    1.382   .     A
C639   C641    1.398   .     A
C639   H653    1.081   .     S
C640   H654    1.084   .     S
C640   C642    1.398   .     A
C641   C643    1.401   .     A
C642   C644    1.400   .     A
C643   H655    1.084   .     S
C643   C645    1.380   .     A
C644   H656    1.084   .     S
C644   C646    1.380   .     A
C645   C647    1.398   .     A
C645   H657    1.083   .     S
C646   C648    1.398   .     A
C646   H658    1.083   .     S
C648   C461    1.445   1_565 S
H649   C697    1.087   .     S
N665   Zn676   2.016   .     S
N666   Zn675   2.016   .     S
O667   Zn675   2.005   .     S
O668   Zn676   2.005   .     S
O669   Zn676   1.994   .     S
O670   Zn675   1.994   .     S
O671   Zn675   1.975   .     S
O672   Zn676   1.975   .     S
O673   Zn676   1.979   .     S
O674   Zn675   1.979   .     S
C677   H678    1.075   .     S
C677   O679    1.222   .     D
C680   O682    1.222   .     D
C680   H681    1.074   .     S
C683   C703    1.439   .     S
C683   O729    1.292   .     A
C683   O731    1.289   .     A
C684   C704    1.438   .     S
C684   O730    1.291   .     A
C684   O732    1.290   .     A
C685   C693    1.415   .     A
C685   H721    1.081   .     S
C685   C687    1.410   .     A
C686   H722    1.081   .     S
C686   C688    1.411   .     A
C686   C694    1.415   .     A
C687   H723    1.082   .     S
C687   N727    1.363   .     A
C688   N728    1.364   .     A
C688   H724    1.082   .     S
C689   C691    1.410   .     A
C689   N727    1.379   .     A
C689   C739    1.479   .     S
C690   C742    1.480   .     S
C690   C692    1.410   .     A
C690   N728    1.379   .     A
C691   C693    1.400   .     A
C691   H725    1.081   .     S
C692   C694    1.400   .     A
C692   H726    1.081   .     S
C694   C321    1.519   1_556 S
C695   C697    1.401   .     S
C695   O735    1.280   .     A
C695   O733    1.282   .     A
C696   O734    1.282   .     A
C696   C698    1.402   .     S
C696   O736    1.280   .     A
C698   C573    1.326   1_655 S
C698   H588    1.088   1_655 S
C699   H713    1.083   .     S
C699   C709    1.400   .     A
C699   C701    1.381   .     A
C700   H714    1.083   .     S
C700   C710    1.400   .     A
C700   C702    1.382   .     A
C701   C703    1.398   .     A
C701   H715    1.081   .     S
C702   H716    1.084   .     S
C702   C704    1.398   .     A
C703   C705    1.401   .     A
C704   C706    1.400   .     A
C705   H717    1.084   .     S
C705   C707    1.380   .     A
C706   H718    1.084   .     S
C706   C708    1.380   .     A
C707   C709    1.398   .     A
C707   H719    1.083   .     S
C708   C710    1.398   .     A
C708   H720    1.083   .     S
C710   C523    1.445   1_565 S
H711   C573    1.087   1_655 S
N727   Zn738   2.016   .     S
N728   Zn737   2.016   .     S
O729   Zn737   2.005   .     S
O730   Zn738   2.005   .     S
O731   Zn738   1.994   .     S
O732   Zn737   1.994   .     S
O733   Zn737   1.975   .     S
O734   Zn738   1.975   .     S
O735   Zn738   1.979   .     S
O736   Zn737   1.979   .     S
C739   H740    1.075   .     S
C739   O741    1.222   .     D
C742   O744    1.222   .     D
C742   H743    1.074   .     S
