data_str_m3_o10_o17_pcu_sym.186
_audit_creation_date              2020-01-03
_audit_creation_method            'Materials Studio'
_symmetry_space_group_name_H-M    'P1'
_symmetry_Int_Tables_number       1
_symmetry_cell_setting            triclinic
loop_
_symmetry_equiv_pos_as_xyz
  x,y,z
_cell_length_a                    23.5765
_cell_length_b                    25.6135
_cell_length_c                    29.7771
_cell_angle_alpha                 92.0401
_cell_angle_beta                  85.2319
_cell_angle_gamma                 93.6976
loop_
_atom_site_label
_atom_site_type_symbol
_atom_site_fract_x
_atom_site_fract_y
_atom_site_fract_z
_atom_site_U_iso_or_equiv
_atom_site_adp_type
_atom_site_occupancy
C1     C     0.18180   0.26477   0.24877   0.00000  Uiso   1.00
C2     C     0.15153   0.06857   0.25123   0.00000  Uiso   1.00
C3     C     0.20427   0.25825   0.47812   0.00000  Uiso   1.00
C4     C     0.12906   0.07509   0.02188   0.00000  Uiso   1.00
C5     C     0.18972   0.31936   0.24812   0.00000  Uiso   1.00
C6     C     0.14361   0.01398   0.25188   0.00000  Uiso   1.00
C7     C     0.16708   0.16726   0.33622   0.00000  Uiso   1.00
C8     C     0.16625   0.16607   0.16378   0.00000  Uiso   1.00
C9     C     0.14882   0.11904   0.09314   0.00000  Uiso   1.00
C10    C     0.18451   0.21430   0.40686   0.00000  Uiso   1.00
C11    C     0.16564   0.16510   0.11619   0.00000  Uiso   1.00
C12    C     0.16769   0.16823   0.38381   0.00000  Uiso   1.00
C13    C     0.18413   0.21067   0.09425   0.00000  Uiso   1.00
C14    C     0.14920   0.12266   0.40575   0.00000  Uiso   1.00
C15    C     0.18545   0.21197   0.04763   0.00000  Uiso   1.00
C16    C     0.14788   0.12137   0.45237   0.00000  Uiso   1.00
C17    C     0.16663   0.16628   0.02348   0.00000  Uiso   1.00
C18    C     0.16671   0.16705   0.47652   0.00000  Uiso   1.00
C19    C     0.14812   0.11970   0.04629   0.00000  Uiso   1.00
C20    C     0.18522   0.21364   0.45371   0.00000  Uiso   1.00
C21    C     0.20502   0.25766   0.02463   0.00000  Uiso   1.00
C22    C     0.12831   0.07567   0.47537   0.00000  Uiso   1.00
H23    H     0.19744   0.24498   0.11407   0.00000  Uiso   1.00
H24    H     0.13590   0.08836   0.38593   0.00000  Uiso   1.00
H25    H     0.21950   0.29386   0.46133   0.00000  Uiso   1.00
H26    H     0.11383   0.03948   0.03867   0.00000  Uiso   1.00
H27    H     0.23330   0.00300   0.24461   0.00000  Uiso   1.00
H28    H     0.10003   0.33033   0.25539   0.00000  Uiso   1.00
N29    N     0.31678   0.15265   0.23783   0.00000  Uiso   1.00
N30    N     0.01656   0.18068   0.26217   0.00000  Uiso   1.00
O31    O     0.12975   0.24619   0.25299   0.00000  Uiso   1.00
O32    O     0.20358   0.08714   0.24701   0.00000  Uiso   1.00
O33    O     0.22613   0.23721   0.24519   0.00000  Uiso   1.00
O34    O     0.10720   0.09613   0.25481   0.00000  Uiso   1.00
O35    O     0.11847   0.17117   0.31997   0.00000  Uiso   1.00
O36    O     0.21486   0.16216   0.18003   0.00000  Uiso   1.00
O37    O     0.21485   0.16219   0.31217   0.00000  Uiso   1.00
O38    O     0.11848   0.17115   0.18783   0.00000  Uiso   1.00
Zn39   Zn    0.10231   0.17266   0.25521   0.00000  Uiso   1.00
Zn40   Zn    0.23102   0.16067   0.24479   0.00000  Uiso   1.00
Br41   Br    0.13002   0.05560   0.12625   0.00000  Uiso   1.00
Br42   Br    0.20332   0.27773   0.37375   0.00000  Uiso   1.00
C43    C     0.22764   0.30427   0.04751   0.00000  Uiso   1.00
N44    N     0.24607   0.00819   0.06563   0.00000  Uiso   1.00
C45    C     0.10569   0.02906   0.45249   0.00000  Uiso   1.00
N46    N     0.08726   0.32514   0.43437   0.00000  Uiso   1.00
Br47   Br    0.01239   0.10080   0.19799   0.00000  Uiso   1.00
Br48   Br    0.32095   0.23254   0.30201   0.00000  Uiso   1.00
C49    C     0.51514   0.26477   0.24877   0.00000  Uiso   1.00
C50    C     0.48486   0.06857   0.25123   0.00000  Uiso   1.00
C51    C     0.53760   0.25825   0.47812   0.00000  Uiso   1.00
C52    C     0.46240   0.07509   0.02188   0.00000  Uiso   1.00
C53    C     0.52306   0.31936   0.24812   0.00000  Uiso   1.00
C54    C     0.47694   0.01398   0.25188   0.00000  Uiso   1.00
C55    C     0.50041   0.16726   0.33622   0.00000  Uiso   1.00
C56    C     0.49959   0.16607   0.16378   0.00000  Uiso   1.00
C57    C     0.48215   0.11904   0.09314   0.00000  Uiso   1.00
C58    C     0.51785   0.21430   0.40686   0.00000  Uiso   1.00
C59    C     0.49898   0.16510   0.11619   0.00000  Uiso   1.00
C60    C     0.50102   0.16823   0.38381   0.00000  Uiso   1.00
C61    C     0.51746   0.21067   0.09425   0.00000  Uiso   1.00
C62    C     0.48254   0.12266   0.40575   0.00000  Uiso   1.00
C63    C     0.51878   0.21197   0.04763   0.00000  Uiso   1.00
C64    C     0.48121   0.12137   0.45237   0.00000  Uiso   1.00
C65    C     0.49996   0.16628   0.02348   0.00000  Uiso   1.00
C66    C     0.50004   0.16705   0.47652   0.00000  Uiso   1.00
C67    C     0.48145   0.11970   0.04629   0.00000  Uiso   1.00
C68    C     0.51855   0.21364   0.45371   0.00000  Uiso   1.00
C69    C     0.53835   0.25766   0.02463   0.00000  Uiso   1.00
C70    C     0.46165   0.07567   0.47537   0.00000  Uiso   1.00
H71    H     0.53077   0.24498   0.11407   0.00000  Uiso   1.00
H72    H     0.46923   0.08836   0.38593   0.00000  Uiso   1.00
H73    H     0.55283   0.29386   0.46133   0.00000  Uiso   1.00
H74    H     0.44717   0.03948   0.03867   0.00000  Uiso   1.00
H75    H     0.56664   0.00300   0.24461   0.00000  Uiso   1.00
H76    H     0.43336   0.33033   0.25539   0.00000  Uiso   1.00
N77    N     0.65011   0.15265   0.23783   0.00000  Uiso   1.00
N78    N     0.34989   0.18068   0.26217   0.00000  Uiso   1.00
O79    O     0.46308   0.24619   0.25299   0.00000  Uiso   1.00
O80    O     0.53692   0.08714   0.24701   0.00000  Uiso   1.00
O81    O     0.55946   0.23721   0.24519   0.00000  Uiso   1.00
O82    O     0.44054   0.09613   0.25481   0.00000  Uiso   1.00
O83    O     0.45181   0.17117   0.31997   0.00000  Uiso   1.00
O84    O     0.54819   0.16216   0.18003   0.00000  Uiso   1.00
O85    O     0.54819   0.16219   0.31217   0.00000  Uiso   1.00
O86    O     0.45181   0.17115   0.18783   0.00000  Uiso   1.00
Zn87   Zn    0.43565   0.17266   0.25521   0.00000  Uiso   1.00
Zn88   Zn    0.56435   0.16067   0.24479   0.00000  Uiso   1.00
Br89   Br    0.46335   0.05560   0.12625   0.00000  Uiso   1.00
Br90   Br    0.53665   0.27773   0.37375   0.00000  Uiso   1.00
C91    C     0.56097   0.30427   0.04751   0.00000  Uiso   1.00
N92    N     0.57940   0.00819   0.06563   0.00000  Uiso   1.00
C93    C     0.43903   0.02906   0.45249   0.00000  Uiso   1.00
N94    N     0.42060   0.32514   0.43437   0.00000  Uiso   1.00
Br95   Br    0.34572   0.10080   0.19799   0.00000  Uiso   1.00
Br96   Br    0.65428   0.23254   0.30201   0.00000  Uiso   1.00
C97    C     0.84847   0.26477   0.24877   0.00000  Uiso   1.00
C98    C     0.81820   0.06857   0.25123   0.00000  Uiso   1.00
C99    C     0.87094   0.25825   0.47812   0.00000  Uiso   1.00
C100   C     0.79573   0.07509   0.02188   0.00000  Uiso   1.00
C101   C     0.85639   0.31936   0.24812   0.00000  Uiso   1.00
C102   C     0.81028   0.01398   0.25188   0.00000  Uiso   1.00
C103   C     0.83375   0.16726   0.33622   0.00000  Uiso   1.00
C104   C     0.83292   0.16607   0.16378   0.00000  Uiso   1.00
C105   C     0.81549   0.11904   0.09314   0.00000  Uiso   1.00
C106   C     0.85118   0.21430   0.40686   0.00000  Uiso   1.00
C107   C     0.83231   0.16510   0.11619   0.00000  Uiso   1.00
C108   C     0.83435   0.16823   0.38381   0.00000  Uiso   1.00
C109   C     0.85080   0.21067   0.09425   0.00000  Uiso   1.00
C110   C     0.81587   0.12266   0.40575   0.00000  Uiso   1.00
C111   C     0.85212   0.21197   0.04763   0.00000  Uiso   1.00
C112   C     0.81455   0.12137   0.45237   0.00000  Uiso   1.00
C113   C     0.83329   0.16628   0.02348   0.00000  Uiso   1.00
C114   C     0.83337   0.16705   0.47652   0.00000  Uiso   1.00
C115   C     0.81478   0.11970   0.04629   0.00000  Uiso   1.00
C116   C     0.85188   0.21364   0.45371   0.00000  Uiso   1.00
C117   C     0.87169   0.25766   0.02463   0.00000  Uiso   1.00
C118   C     0.79498   0.07567   0.47537   0.00000  Uiso   1.00
H119   H     0.86410   0.24498   0.11407   0.00000  Uiso   1.00
H120   H     0.80256   0.08836   0.38593   0.00000  Uiso   1.00
H121   H     0.88617   0.29386   0.46133   0.00000  Uiso   1.00
H122   H     0.78050   0.03948   0.03867   0.00000  Uiso   1.00
H123   H     0.89997   0.00300   0.24461   0.00000  Uiso   1.00
H124   H     0.76670   0.33033   0.25539   0.00000  Uiso   1.00
N125   N     0.98344   0.15265   0.23783   0.00000  Uiso   1.00
N126   N     0.68322   0.18068   0.26217   0.00000  Uiso   1.00
O127   O     0.79642   0.24619   0.25299   0.00000  Uiso   1.00
O128   O     0.87025   0.08714   0.24701   0.00000  Uiso   1.00
O129   O     0.89280   0.23721   0.24519   0.00000  Uiso   1.00
O130   O     0.77387   0.09613   0.25481   0.00000  Uiso   1.00
O131   O     0.78514   0.17117   0.31997   0.00000  Uiso   1.00
O132   O     0.88153   0.16216   0.18003   0.00000  Uiso   1.00
O133   O     0.88152   0.16219   0.31217   0.00000  Uiso   1.00
O134   O     0.78515   0.17115   0.18783   0.00000  Uiso   1.00
Zn135  Zn    0.76898   0.17266   0.25521   0.00000  Uiso   1.00
Zn136  Zn    0.89769   0.16067   0.24479   0.00000  Uiso   1.00
Br137  Br    0.79668   0.05560   0.12625   0.00000  Uiso   1.00
Br138  Br    0.86998   0.27773   0.37375   0.00000  Uiso   1.00
C139   C     0.89431   0.30427   0.04751   0.00000  Uiso   1.00
N140   N     0.91274   0.00819   0.06563   0.00000  Uiso   1.00
C141   C     0.77236   0.02906   0.45249   0.00000  Uiso   1.00
N142   N     0.75393   0.32514   0.43437   0.00000  Uiso   1.00
Br143  Br    0.67905   0.10080   0.19799   0.00000  Uiso   1.00
Br144  Br    0.98761   0.23254   0.30201   0.00000  Uiso   1.00
C145   C     0.18180   0.59810   0.24877   0.00000  Uiso   1.00
C146   C     0.15153   0.40190   0.25123   0.00000  Uiso   1.00
C147   C     0.20427   0.59158   0.47812   0.00000  Uiso   1.00
C148   C     0.12906   0.40842   0.02188   0.00000  Uiso   1.00
C149   C     0.18972   0.65269   0.24812   0.00000  Uiso   1.00
C150   C     0.14361   0.34731   0.25188   0.00000  Uiso   1.00
C151   C     0.16708   0.50059   0.33622   0.00000  Uiso   1.00
C152   C     0.16625   0.49941   0.16378   0.00000  Uiso   1.00
C153   C     0.14882   0.45237   0.09314   0.00000  Uiso   1.00
C154   C     0.18451   0.54763   0.40686   0.00000  Uiso   1.00
C155   C     0.16564   0.49844   0.11619   0.00000  Uiso   1.00
C156   C     0.16769   0.50156   0.38381   0.00000  Uiso   1.00
C157   C     0.18413   0.54401   0.09425   0.00000  Uiso   1.00
C158   C     0.14920   0.45599   0.40575   0.00000  Uiso   1.00
C159   C     0.18545   0.54530   0.04763   0.00000  Uiso   1.00
C160   C     0.14788   0.45470   0.45237   0.00000  Uiso   1.00
C161   C     0.16663   0.49961   0.02348   0.00000  Uiso   1.00
C162   C     0.16671   0.50039   0.47652   0.00000  Uiso   1.00
C163   C     0.14812   0.45303   0.04629   0.00000  Uiso   1.00
C164   C     0.18522   0.54697   0.45371   0.00000  Uiso   1.00
C165   C     0.20502   0.59100   0.02463   0.00000  Uiso   1.00
C166   C     0.12831   0.40900   0.47537   0.00000  Uiso   1.00
H167   H     0.19744   0.57831   0.11407   0.00000  Uiso   1.00
H168   H     0.13590   0.42169   0.38593   0.00000  Uiso   1.00
H169   H     0.21950   0.62719   0.46133   0.00000  Uiso   1.00
H170   H     0.11383   0.37281   0.03867   0.00000  Uiso   1.00
H171   H     0.23330   0.33634   0.24461   0.00000  Uiso   1.00
H172   H     0.10003   0.66366   0.25539   0.00000  Uiso   1.00
N173   N     0.31678   0.48598   0.23783   0.00000  Uiso   1.00
N174   N     0.01656   0.51402   0.26217   0.00000  Uiso   1.00
O175   O     0.12975   0.57952   0.25299   0.00000  Uiso   1.00
O176   O     0.20358   0.42048   0.24701   0.00000  Uiso   1.00
O177   O     0.22613   0.57054   0.24519   0.00000  Uiso   1.00
O178   O     0.10720   0.42946   0.25481   0.00000  Uiso   1.00
O179   O     0.11847   0.50450   0.31997   0.00000  Uiso   1.00
O180   O     0.21486   0.49550   0.18003   0.00000  Uiso   1.00
O181   O     0.21485   0.49552   0.31217   0.00000  Uiso   1.00
O182   O     0.11848   0.50448   0.18783   0.00000  Uiso   1.00
Zn183  Zn    0.10231   0.50600   0.25521   0.00000  Uiso   1.00
Zn184  Zn    0.23102   0.49400   0.24479   0.00000  Uiso   1.00
Br185  Br    0.13002   0.38894   0.12625   0.00000  Uiso   1.00
Br186  Br    0.20332   0.61106   0.37375   0.00000  Uiso   1.00
C187   C     0.22764   0.63761   0.04751   0.00000  Uiso   1.00
N188   N     0.24607   0.34153   0.06563   0.00000  Uiso   1.00
C189   C     0.10569   0.36239   0.45249   0.00000  Uiso   1.00
N190   N     0.08726   0.65847   0.43437   0.00000  Uiso   1.00
Br191  Br    0.01239   0.43413   0.19799   0.00000  Uiso   1.00
Br192  Br    0.32095   0.56587   0.30201   0.00000  Uiso   1.00
C193   C     0.51514   0.59810   0.24877   0.00000  Uiso   1.00
C194   C     0.48486   0.40190   0.25123   0.00000  Uiso   1.00
C195   C     0.53760   0.59158   0.47812   0.00000  Uiso   1.00
C196   C     0.46240   0.40842   0.02188   0.00000  Uiso   1.00
C197   C     0.52306   0.65269   0.24812   0.00000  Uiso   1.00
C198   C     0.47694   0.34731   0.25188   0.00000  Uiso   1.00
C199   C     0.50041   0.50059   0.33622   0.00000  Uiso   1.00
C200   C     0.49959   0.49941   0.16378   0.00000  Uiso   1.00
C201   C     0.48215   0.45237   0.09314   0.00000  Uiso   1.00
C202   C     0.51785   0.54763   0.40686   0.00000  Uiso   1.00
C203   C     0.49898   0.49844   0.11619   0.00000  Uiso   1.00
C204   C     0.50102   0.50156   0.38381   0.00000  Uiso   1.00
C205   C     0.51746   0.54401   0.09425   0.00000  Uiso   1.00
C206   C     0.48254   0.45599   0.40575   0.00000  Uiso   1.00
C207   C     0.51878   0.54530   0.04763   0.00000  Uiso   1.00
C208   C     0.48121   0.45470   0.45237   0.00000  Uiso   1.00
C209   C     0.49996   0.49961   0.02348   0.00000  Uiso   1.00
C210   C     0.50004   0.50039   0.47652   0.00000  Uiso   1.00
C211   C     0.48145   0.45303   0.04629   0.00000  Uiso   1.00
C212   C     0.51855   0.54697   0.45371   0.00000  Uiso   1.00
C213   C     0.53835   0.59100   0.02463   0.00000  Uiso   1.00
C214   C     0.46165   0.40900   0.47537   0.00000  Uiso   1.00
H215   H     0.53077   0.57831   0.11407   0.00000  Uiso   1.00
H216   H     0.46923   0.42169   0.38593   0.00000  Uiso   1.00
H217   H     0.55283   0.62719   0.46133   0.00000  Uiso   1.00
H218   H     0.44717   0.37281   0.03867   0.00000  Uiso   1.00
H219   H     0.56664   0.33634   0.24461   0.00000  Uiso   1.00
H220   H     0.43336   0.66366   0.25539   0.00000  Uiso   1.00
N221   N     0.65011   0.48598   0.23783   0.00000  Uiso   1.00
N222   N     0.34989   0.51402   0.26217   0.00000  Uiso   1.00
O223   O     0.46308   0.57952   0.25299   0.00000  Uiso   1.00
O224   O     0.53692   0.42048   0.24701   0.00000  Uiso   1.00
O225   O     0.55946   0.57054   0.24519   0.00000  Uiso   1.00
O226   O     0.44054   0.42946   0.25481   0.00000  Uiso   1.00
O227   O     0.45181   0.50450   0.31997   0.00000  Uiso   1.00
O228   O     0.54819   0.49550   0.18003   0.00000  Uiso   1.00
O229   O     0.54819   0.49552   0.31217   0.00000  Uiso   1.00
O230   O     0.45181   0.50448   0.18783   0.00000  Uiso   1.00
Zn231  Zn    0.43565   0.50600   0.25521   0.00000  Uiso   1.00
Zn232  Zn    0.56435   0.49400   0.24479   0.00000  Uiso   1.00
Br233  Br    0.46335   0.38894   0.12625   0.00000  Uiso   1.00
Br234  Br    0.53665   0.61106   0.37375   0.00000  Uiso   1.00
C235   C     0.56097   0.63761   0.04751   0.00000  Uiso   1.00
N236   N     0.57940   0.34153   0.06563   0.00000  Uiso   1.00
C237   C     0.43903   0.36239   0.45249   0.00000  Uiso   1.00
N238   N     0.42060   0.65847   0.43437   0.00000  Uiso   1.00
Br239  Br    0.34572   0.43413   0.19799   0.00000  Uiso   1.00
Br240  Br    0.65428   0.56587   0.30201   0.00000  Uiso   1.00
C241   C     0.84847   0.59810   0.24877   0.00000  Uiso   1.00
C242   C     0.81820   0.40190   0.25123   0.00000  Uiso   1.00
C243   C     0.87094   0.59158   0.47812   0.00000  Uiso   1.00
C244   C     0.79573   0.40842   0.02188   0.00000  Uiso   1.00
C245   C     0.85639   0.65269   0.24812   0.00000  Uiso   1.00
C246   C     0.81028   0.34731   0.25188   0.00000  Uiso   1.00
C247   C     0.83375   0.50059   0.33622   0.00000  Uiso   1.00
C248   C     0.83292   0.49941   0.16378   0.00000  Uiso   1.00
C249   C     0.81549   0.45237   0.09314   0.00000  Uiso   1.00
C250   C     0.85118   0.54763   0.40686   0.00000  Uiso   1.00
C251   C     0.83231   0.49844   0.11619   0.00000  Uiso   1.00
C252   C     0.83435   0.50156   0.38381   0.00000  Uiso   1.00
C253   C     0.85080   0.54401   0.09425   0.00000  Uiso   1.00
C254   C     0.81587   0.45599   0.40575   0.00000  Uiso   1.00
C255   C     0.85212   0.54530   0.04763   0.00000  Uiso   1.00
C256   C     0.81455   0.45470   0.45237   0.00000  Uiso   1.00
C257   C     0.83329   0.49961   0.02348   0.00000  Uiso   1.00
C258   C     0.83337   0.50039   0.47652   0.00000  Uiso   1.00
C259   C     0.81478   0.45303   0.04629   0.00000  Uiso   1.00
C260   C     0.85188   0.54697   0.45371   0.00000  Uiso   1.00
C261   C     0.87169   0.59100   0.02463   0.00000  Uiso   1.00
C262   C     0.79498   0.40900   0.47537   0.00000  Uiso   1.00
H263   H     0.86410   0.57831   0.11407   0.00000  Uiso   1.00
H264   H     0.80256   0.42169   0.38593   0.00000  Uiso   1.00
H265   H     0.88617   0.62719   0.46133   0.00000  Uiso   1.00
H266   H     0.78050   0.37281   0.03867   0.00000  Uiso   1.00
H267   H     0.89997   0.33634   0.24461   0.00000  Uiso   1.00
H268   H     0.76670   0.66366   0.25539   0.00000  Uiso   1.00
N269   N     0.98344   0.48598   0.23783   0.00000  Uiso   1.00
N270   N     0.68322   0.51402   0.26217   0.00000  Uiso   1.00
O271   O     0.79642   0.57952   0.25299   0.00000  Uiso   1.00
O272   O     0.87025   0.42048   0.24701   0.00000  Uiso   1.00
O273   O     0.89280   0.57054   0.24519   0.00000  Uiso   1.00
O274   O     0.77387   0.42946   0.25481   0.00000  Uiso   1.00
O275   O     0.78514   0.50450   0.31997   0.00000  Uiso   1.00
O276   O     0.88153   0.49550   0.18003   0.00000  Uiso   1.00
O277   O     0.88152   0.49552   0.31217   0.00000  Uiso   1.00
O278   O     0.78515   0.50448   0.18783   0.00000  Uiso   1.00
Zn279  Zn    0.76898   0.50600   0.25521   0.00000  Uiso   1.00
Zn280  Zn    0.89769   0.49400   0.24479   0.00000  Uiso   1.00
Br281  Br    0.79668   0.38894   0.12625   0.00000  Uiso   1.00
Br282  Br    0.86998   0.61106   0.37375   0.00000  Uiso   1.00
C283   C     0.89431   0.63761   0.04751   0.00000  Uiso   1.00
N284   N     0.91274   0.34153   0.06563   0.00000  Uiso   1.00
C285   C     0.77236   0.36239   0.45249   0.00000  Uiso   1.00
N286   N     0.75393   0.65847   0.43437   0.00000  Uiso   1.00
Br287  Br    0.67905   0.43413   0.19799   0.00000  Uiso   1.00
Br288  Br    0.98761   0.56587   0.30201   0.00000  Uiso   1.00
C289   C     0.18180   0.93143   0.24877   0.00000  Uiso   1.00
C290   C     0.15153   0.73523   0.25123   0.00000  Uiso   1.00
C291   C     0.20427   0.92492   0.47812   0.00000  Uiso   1.00
C292   C     0.12906   0.74175   0.02188   0.00000  Uiso   1.00
C293   C     0.18972   0.98602   0.24812   0.00000  Uiso   1.00
C294   C     0.14361   0.68064   0.25188   0.00000  Uiso   1.00
C295   C     0.16708   0.83393   0.33622   0.00000  Uiso   1.00
C296   C     0.16625   0.83274   0.16378   0.00000  Uiso   1.00
C297   C     0.14882   0.78570   0.09314   0.00000  Uiso   1.00
C298   C     0.18451   0.88096   0.40686   0.00000  Uiso   1.00
C299   C     0.16564   0.83177   0.11619   0.00000  Uiso   1.00
C300   C     0.16769   0.83490   0.38381   0.00000  Uiso   1.00
C301   C     0.18413   0.87734   0.09425   0.00000  Uiso   1.00
C302   C     0.14920   0.78933   0.40575   0.00000  Uiso   1.00
C303   C     0.18545   0.87863   0.04763   0.00000  Uiso   1.00
C304   C     0.14788   0.78803   0.45237   0.00000  Uiso   1.00
C305   C     0.16663   0.83295   0.02348   0.00000  Uiso   1.00
C306   C     0.16671   0.83372   0.47652   0.00000  Uiso   1.00
C307   C     0.14812   0.78636   0.04629   0.00000  Uiso   1.00
C308   C     0.18522   0.88030   0.45371   0.00000  Uiso   1.00
C309   C     0.20502   0.92433   0.02463   0.00000  Uiso   1.00
C310   C     0.12831   0.74234   0.47537   0.00000  Uiso   1.00
H311   H     0.19744   0.91164   0.11407   0.00000  Uiso   1.00
H312   H     0.13590   0.75502   0.38593   0.00000  Uiso   1.00
H313   H     0.21950   0.96052   0.46133   0.00000  Uiso   1.00
H314   H     0.11383   0.70614   0.03867   0.00000  Uiso   1.00
H315   H     0.23330   0.66967   0.24461   0.00000  Uiso   1.00
H316   H     0.10003   0.99700   0.25539   0.00000  Uiso   1.00
N317   N     0.31678   0.81932   0.23783   0.00000  Uiso   1.00
N318   N     0.01656   0.84735   0.26217   0.00000  Uiso   1.00
O319   O     0.12975   0.91286   0.25299   0.00000  Uiso   1.00
O320   O     0.20358   0.75381   0.24701   0.00000  Uiso   1.00
O321   O     0.22613   0.90387   0.24519   0.00000  Uiso   1.00
O322   O     0.10720   0.76279   0.25481   0.00000  Uiso   1.00
O323   O     0.11847   0.83784   0.31997   0.00000  Uiso   1.00
O324   O     0.21486   0.82883   0.18003   0.00000  Uiso   1.00
O325   O     0.21485   0.82885   0.31217   0.00000  Uiso   1.00
O326   O     0.11848   0.83781   0.18783   0.00000  Uiso   1.00
Zn327  Zn    0.10231   0.83933   0.25521   0.00000  Uiso   1.00
Zn328  Zn    0.23102   0.82734   0.24479   0.00000  Uiso   1.00
Br329  Br    0.13002   0.72227   0.12625   0.00000  Uiso   1.00
Br330  Br    0.20332   0.94440   0.37375   0.00000  Uiso   1.00
C331   C     0.22764   0.97094   0.04751   0.00000  Uiso   1.00
N332   N     0.24607   0.67486   0.06563   0.00000  Uiso   1.00
C333   C     0.10569   0.69573   0.45249   0.00000  Uiso   1.00
N334   N     0.08726   0.99181   0.43437   0.00000  Uiso   1.00
Br335  Br    0.01239   0.76746   0.19799   0.00000  Uiso   1.00
Br336  Br    0.32095   0.89920   0.30201   0.00000  Uiso   1.00
C337   C     0.51514   0.93143   0.24877   0.00000  Uiso   1.00
C338   C     0.48486   0.73523   0.25123   0.00000  Uiso   1.00
C339   C     0.53760   0.92492   0.47812   0.00000  Uiso   1.00
C340   C     0.46240   0.74175   0.02188   0.00000  Uiso   1.00
C341   C     0.52306   0.98602   0.24812   0.00000  Uiso   1.00
C342   C     0.47694   0.68064   0.25188   0.00000  Uiso   1.00
C343   C     0.50041   0.83393   0.33622   0.00000  Uiso   1.00
C344   C     0.49959   0.83274   0.16378   0.00000  Uiso   1.00
C345   C     0.48215   0.78570   0.09314   0.00000  Uiso   1.00
C346   C     0.51785   0.88096   0.40686   0.00000  Uiso   1.00
C347   C     0.49898   0.83177   0.11619   0.00000  Uiso   1.00
C348   C     0.50102   0.83490   0.38381   0.00000  Uiso   1.00
C349   C     0.51746   0.87734   0.09425   0.00000  Uiso   1.00
C350   C     0.48254   0.78933   0.40575   0.00000  Uiso   1.00
C351   C     0.51878   0.87863   0.04763   0.00000  Uiso   1.00
C352   C     0.48121   0.78803   0.45237   0.00000  Uiso   1.00
C353   C     0.49996   0.83295   0.02348   0.00000  Uiso   1.00
C354   C     0.50004   0.83372   0.47652   0.00000  Uiso   1.00
C355   C     0.48145   0.78636   0.04629   0.00000  Uiso   1.00
C356   C     0.51855   0.88030   0.45371   0.00000  Uiso   1.00
C357   C     0.53835   0.92433   0.02463   0.00000  Uiso   1.00
C358   C     0.46165   0.74234   0.47537   0.00000  Uiso   1.00
H359   H     0.53077   0.91164   0.11407   0.00000  Uiso   1.00
H360   H     0.46923   0.75502   0.38593   0.00000  Uiso   1.00
H361   H     0.55283   0.96052   0.46133   0.00000  Uiso   1.00
H362   H     0.44717   0.70614   0.03867   0.00000  Uiso   1.00
H363   H     0.56664   0.66967   0.24461   0.00000  Uiso   1.00
H364   H     0.43336   0.99700   0.25539   0.00000  Uiso   1.00
N365   N     0.65011   0.81932   0.23783   0.00000  Uiso   1.00
N366   N     0.34989   0.84735   0.26217   0.00000  Uiso   1.00
O367   O     0.46308   0.91286   0.25299   0.00000  Uiso   1.00
O368   O     0.53692   0.75381   0.24701   0.00000  Uiso   1.00
O369   O     0.55946   0.90387   0.24519   0.00000  Uiso   1.00
O370   O     0.44054   0.76279   0.25481   0.00000  Uiso   1.00
O371   O     0.45181   0.83784   0.31997   0.00000  Uiso   1.00
O372   O     0.54819   0.82883   0.18003   0.00000  Uiso   1.00
O373   O     0.54819   0.82885   0.31217   0.00000  Uiso   1.00
O374   O     0.45181   0.83781   0.18783   0.00000  Uiso   1.00
Zn375  Zn    0.43565   0.83933   0.25521   0.00000  Uiso   1.00
Zn376  Zn    0.56435   0.82734   0.24479   0.00000  Uiso   1.00
Br377  Br    0.46335   0.72227   0.12625   0.00000  Uiso   1.00
Br378  Br    0.53665   0.94440   0.37375   0.00000  Uiso   1.00
C379   C     0.56097   0.97094   0.04751   0.00000  Uiso   1.00
N380   N     0.57940   0.67486   0.06563   0.00000  Uiso   1.00
C381   C     0.43903   0.69573   0.45249   0.00000  Uiso   1.00
N382   N     0.42060   0.99181   0.43437   0.00000  Uiso   1.00
Br383  Br    0.34572   0.76746   0.19799   0.00000  Uiso   1.00
Br384  Br    0.65428   0.89920   0.30201   0.00000  Uiso   1.00
C385   C     0.84847   0.93143   0.24877   0.00000  Uiso   1.00
C386   C     0.81820   0.73523   0.25123   0.00000  Uiso   1.00
C387   C     0.87094   0.92492   0.47812   0.00000  Uiso   1.00
C388   C     0.79573   0.74175   0.02188   0.00000  Uiso   1.00
C389   C     0.85639   0.98602   0.24812   0.00000  Uiso   1.00
C390   C     0.81028   0.68064   0.25188   0.00000  Uiso   1.00
C391   C     0.83375   0.83393   0.33622   0.00000  Uiso   1.00
C392   C     0.83292   0.83274   0.16378   0.00000  Uiso   1.00
C393   C     0.81549   0.78570   0.09314   0.00000  Uiso   1.00
C394   C     0.85118   0.88096   0.40686   0.00000  Uiso   1.00
C395   C     0.83231   0.83177   0.11619   0.00000  Uiso   1.00
C396   C     0.83435   0.83490   0.38381   0.00000  Uiso   1.00
C397   C     0.85080   0.87734   0.09425   0.00000  Uiso   1.00
C398   C     0.81587   0.78933   0.40575   0.00000  Uiso   1.00
C399   C     0.85212   0.87863   0.04763   0.00000  Uiso   1.00
C400   C     0.81455   0.78803   0.45237   0.00000  Uiso   1.00
C401   C     0.83329   0.83295   0.02348   0.00000  Uiso   1.00
C402   C     0.83337   0.83372   0.47652   0.00000  Uiso   1.00
C403   C     0.81478   0.78636   0.04629   0.00000  Uiso   1.00
C404   C     0.85188   0.88030   0.45371   0.00000  Uiso   1.00
C405   C     0.87169   0.92433   0.02463   0.00000  Uiso   1.00
C406   C     0.79498   0.74234   0.47537   0.00000  Uiso   1.00
H407   H     0.86410   0.91164   0.11407   0.00000  Uiso   1.00
H408   H     0.80256   0.75502   0.38593   0.00000  Uiso   1.00
H409   H     0.88617   0.96052   0.46133   0.00000  Uiso   1.00
H410   H     0.78050   0.70614   0.03867   0.00000  Uiso   1.00
H411   H     0.89997   0.66967   0.24461   0.00000  Uiso   1.00
H412   H     0.76670   0.99700   0.25539   0.00000  Uiso   1.00
N413   N     0.98344   0.81932   0.23783   0.00000  Uiso   1.00
N414   N     0.68322   0.84735   0.26217   0.00000  Uiso   1.00
O415   O     0.79642   0.91286   0.25299   0.00000  Uiso   1.00
O416   O     0.87025   0.75381   0.24701   0.00000  Uiso   1.00
O417   O     0.89280   0.90387   0.24519   0.00000  Uiso   1.00
O418   O     0.77387   0.76279   0.25481   0.00000  Uiso   1.00
O419   O     0.78514   0.83784   0.31997   0.00000  Uiso   1.00
O420   O     0.88153   0.82883   0.18003   0.00000  Uiso   1.00
O421   O     0.88152   0.82885   0.31217   0.00000  Uiso   1.00
O422   O     0.78515   0.83781   0.18783   0.00000  Uiso   1.00
Zn423  Zn    0.76898   0.83933   0.25521   0.00000  Uiso   1.00
Zn424  Zn    0.89769   0.82734   0.24479   0.00000  Uiso   1.00
Br425  Br    0.79668   0.72227   0.12625   0.00000  Uiso   1.00
Br426  Br    0.86998   0.94440   0.37375   0.00000  Uiso   1.00
C427   C     0.89431   0.97094   0.04751   0.00000  Uiso   1.00
N428   N     0.91274   0.67486   0.06563   0.00000  Uiso   1.00
C429   C     0.77236   0.69573   0.45249   0.00000  Uiso   1.00
N430   N     0.75393   0.99181   0.43437   0.00000  Uiso   1.00
Br431  Br    0.67905   0.76746   0.19799   0.00000  Uiso   1.00
Br432  Br    0.98761   0.89920   0.30201   0.00000  Uiso   1.00
C433   C     0.18180   0.26477   0.74877   0.00000  Uiso   1.00
C434   C     0.15153   0.06857   0.75123   0.00000  Uiso   1.00
C435   C     0.20427   0.25825   0.97812   0.00000  Uiso   1.00
C436   C     0.12906   0.07509   0.52188   0.00000  Uiso   1.00
C437   C     0.18972   0.31936   0.74812   0.00000  Uiso   1.00
C438   C     0.14361   0.01398   0.75188   0.00000  Uiso   1.00
C439   C     0.16708   0.16726   0.83622   0.00000  Uiso   1.00
C440   C     0.16625   0.16607   0.66378   0.00000  Uiso   1.00
C441   C     0.14882   0.11904   0.59314   0.00000  Uiso   1.00
C442   C     0.18451   0.21430   0.90686   0.00000  Uiso   1.00
C443   C     0.16564   0.16510   0.61619   0.00000  Uiso   1.00
C444   C     0.16769   0.16823   0.88381   0.00000  Uiso   1.00
C445   C     0.18413   0.21067   0.59425   0.00000  Uiso   1.00
C446   C     0.14920   0.12266   0.90575   0.00000  Uiso   1.00
C447   C     0.18545   0.21197   0.54763   0.00000  Uiso   1.00
C448   C     0.14788   0.12137   0.95237   0.00000  Uiso   1.00
C449   C     0.16663   0.16628   0.52348   0.00000  Uiso   1.00
C450   C     0.16671   0.16705   0.97652   0.00000  Uiso   1.00
C451   C     0.14812   0.11970   0.54629   0.00000  Uiso   1.00
C452   C     0.18522   0.21364   0.95371   0.00000  Uiso   1.00
C453   C     0.20502   0.25766   0.52463   0.00000  Uiso   1.00
C454   C     0.12831   0.07567   0.97537   0.00000  Uiso   1.00
H455   H     0.19744   0.24498   0.61407   0.00000  Uiso   1.00
H456   H     0.13590   0.08836   0.88593   0.00000  Uiso   1.00
H457   H     0.21950   0.29386   0.96133   0.00000  Uiso   1.00
H458   H     0.11383   0.03948   0.53867   0.00000  Uiso   1.00
H459   H     0.23330   0.00300   0.74461   0.00000  Uiso   1.00
H460   H     0.10003   0.33033   0.75539   0.00000  Uiso   1.00
N461   N     0.31678   0.15265   0.73783   0.00000  Uiso   1.00
N462   N     0.01656   0.18068   0.76217   0.00000  Uiso   1.00
O463   O     0.12975   0.24619   0.75299   0.00000  Uiso   1.00
O464   O     0.20358   0.08714   0.74701   0.00000  Uiso   1.00
O465   O     0.22613   0.23721   0.74519   0.00000  Uiso   1.00
O466   O     0.10720   0.09613   0.75481   0.00000  Uiso   1.00
O467   O     0.11847   0.17117   0.81997   0.00000  Uiso   1.00
O468   O     0.21486   0.16216   0.68003   0.00000  Uiso   1.00
O469   O     0.21485   0.16219   0.81217   0.00000  Uiso   1.00
O470   O     0.11848   0.17115   0.68783   0.00000  Uiso   1.00
Zn471  Zn    0.10231   0.17266   0.75521   0.00000  Uiso   1.00
Zn472  Zn    0.23102   0.16067   0.74479   0.00000  Uiso   1.00
Br473  Br    0.13002   0.05560   0.62625   0.00000  Uiso   1.00
Br474  Br    0.20332   0.27773   0.87375   0.00000  Uiso   1.00
C475   C     0.22764   0.30427   0.54751   0.00000  Uiso   1.00
N476   N     0.24607   0.00819   0.56563   0.00000  Uiso   1.00
C477   C     0.10569   0.02906   0.95249   0.00000  Uiso   1.00
N478   N     0.08726   0.32514   0.93437   0.00000  Uiso   1.00
Br479  Br    0.01239   0.10080   0.69799   0.00000  Uiso   1.00
Br480  Br    0.32095   0.23254   0.80201   0.00000  Uiso   1.00
C481   C     0.51514   0.26477   0.74877   0.00000  Uiso   1.00
C482   C     0.48486   0.06857   0.75123   0.00000  Uiso   1.00
C483   C     0.53760   0.25825   0.97812   0.00000  Uiso   1.00
C484   C     0.46240   0.07509   0.52188   0.00000  Uiso   1.00
C485   C     0.52306   0.31936   0.74812   0.00000  Uiso   1.00
C486   C     0.47694   0.01398   0.75188   0.00000  Uiso   1.00
C487   C     0.50041   0.16726   0.83622   0.00000  Uiso   1.00
C488   C     0.49959   0.16607   0.66378   0.00000  Uiso   1.00
C489   C     0.48215   0.11904   0.59314   0.00000  Uiso   1.00
C490   C     0.51785   0.21430   0.90686   0.00000  Uiso   1.00
C491   C     0.49898   0.16510   0.61619   0.00000  Uiso   1.00
C492   C     0.50102   0.16823   0.88381   0.00000  Uiso   1.00
C493   C     0.51746   0.21067   0.59425   0.00000  Uiso   1.00
C494   C     0.48254   0.12266   0.90575   0.00000  Uiso   1.00
C495   C     0.51878   0.21197   0.54763   0.00000  Uiso   1.00
C496   C     0.48121   0.12137   0.95237   0.00000  Uiso   1.00
C497   C     0.49996   0.16628   0.52348   0.00000  Uiso   1.00
C498   C     0.50004   0.16705   0.97652   0.00000  Uiso   1.00
C499   C     0.48145   0.11970   0.54629   0.00000  Uiso   1.00
C500   C     0.51855   0.21364   0.95371   0.00000  Uiso   1.00
C501   C     0.53835   0.25766   0.52463   0.00000  Uiso   1.00
C502   C     0.46165   0.07567   0.97537   0.00000  Uiso   1.00
H503   H     0.53077   0.24498   0.61407   0.00000  Uiso   1.00
H504   H     0.46923   0.08836   0.88593   0.00000  Uiso   1.00
H505   H     0.55283   0.29386   0.96133   0.00000  Uiso   1.00
H506   H     0.44717   0.03948   0.53867   0.00000  Uiso   1.00
H507   H     0.56664   0.00300   0.74461   0.00000  Uiso   1.00
H508   H     0.43336   0.33033   0.75539   0.00000  Uiso   1.00
N509   N     0.65011   0.15265   0.73783   0.00000  Uiso   1.00
N510   N     0.34989   0.18068   0.76217   0.00000  Uiso   1.00
O511   O     0.46308   0.24619   0.75299   0.00000  Uiso   1.00
O512   O     0.53692   0.08714   0.74701   0.00000  Uiso   1.00
O513   O     0.55946   0.23721   0.74519   0.00000  Uiso   1.00
O514   O     0.44054   0.09613   0.75481   0.00000  Uiso   1.00
O515   O     0.45181   0.17117   0.81997   0.00000  Uiso   1.00
O516   O     0.54819   0.16216   0.68003   0.00000  Uiso   1.00
O517   O     0.54819   0.16219   0.81217   0.00000  Uiso   1.00
O518   O     0.45181   0.17115   0.68783   0.00000  Uiso   1.00
Zn519  Zn    0.43565   0.17266   0.75521   0.00000  Uiso   1.00
Zn520  Zn    0.56435   0.16067   0.74479   0.00000  Uiso   1.00
Br521  Br    0.46335   0.05560   0.62625   0.00000  Uiso   1.00
Br522  Br    0.53665   0.27773   0.87375   0.00000  Uiso   1.00
C523   C     0.56097   0.30427   0.54751   0.00000  Uiso   1.00
N524   N     0.57940   0.00819   0.56563   0.00000  Uiso   1.00
C525   C     0.43903   0.02906   0.95249   0.00000  Uiso   1.00
N526   N     0.42060   0.32514   0.93437   0.00000  Uiso   1.00
Br527  Br    0.34572   0.10080   0.69799   0.00000  Uiso   1.00
Br528  Br    0.65428   0.23254   0.80201   0.00000  Uiso   1.00
C529   C     0.84847   0.26477   0.74877   0.00000  Uiso   1.00
C530   C     0.81820   0.06857   0.75123   0.00000  Uiso   1.00
C531   C     0.87094   0.25825   0.97812   0.00000  Uiso   1.00
C532   C     0.79573   0.07509   0.52188   0.00000  Uiso   1.00
C533   C     0.85639   0.31936   0.74812   0.00000  Uiso   1.00
C534   C     0.81028   0.01398   0.75188   0.00000  Uiso   1.00
C535   C     0.83375   0.16726   0.83622   0.00000  Uiso   1.00
C536   C     0.83292   0.16607   0.66378   0.00000  Uiso   1.00
C537   C     0.81549   0.11904   0.59314   0.00000  Uiso   1.00
C538   C     0.85118   0.21430   0.90686   0.00000  Uiso   1.00
C539   C     0.83231   0.16510   0.61619   0.00000  Uiso   1.00
C540   C     0.83435   0.16823   0.88381   0.00000  Uiso   1.00
C541   C     0.85080   0.21067   0.59425   0.00000  Uiso   1.00
C542   C     0.81587   0.12266   0.90575   0.00000  Uiso   1.00
C543   C     0.85212   0.21197   0.54763   0.00000  Uiso   1.00
C544   C     0.81455   0.12137   0.95237   0.00000  Uiso   1.00
C545   C     0.83329   0.16628   0.52348   0.00000  Uiso   1.00
C546   C     0.83337   0.16705   0.97652   0.00000  Uiso   1.00
C547   C     0.81478   0.11970   0.54629   0.00000  Uiso   1.00
C548   C     0.85188   0.21364   0.95371   0.00000  Uiso   1.00
C549   C     0.87169   0.25766   0.52463   0.00000  Uiso   1.00
C550   C     0.79498   0.07567   0.97537   0.00000  Uiso   1.00
H551   H     0.86410   0.24498   0.61407   0.00000  Uiso   1.00
H552   H     0.80256   0.08836   0.88593   0.00000  Uiso   1.00
H553   H     0.88617   0.29386   0.96133   0.00000  Uiso   1.00
H554   H     0.78050   0.03948   0.53867   0.00000  Uiso   1.00
H555   H     0.89997   0.00300   0.74461   0.00000  Uiso   1.00
H556   H     0.76670   0.33033   0.75539   0.00000  Uiso   1.00
N557   N     0.98344   0.15265   0.73783   0.00000  Uiso   1.00
N558   N     0.68322   0.18068   0.76217   0.00000  Uiso   1.00
O559   O     0.79642   0.24619   0.75299   0.00000  Uiso   1.00
O560   O     0.87025   0.08714   0.74701   0.00000  Uiso   1.00
O561   O     0.89280   0.23721   0.74519   0.00000  Uiso   1.00
O562   O     0.77387   0.09613   0.75481   0.00000  Uiso   1.00
O563   O     0.78514   0.17117   0.81997   0.00000  Uiso   1.00
O564   O     0.88153   0.16216   0.68003   0.00000  Uiso   1.00
O565   O     0.88152   0.16219   0.81217   0.00000  Uiso   1.00
O566   O     0.78515   0.17115   0.68783   0.00000  Uiso   1.00
Zn567  Zn    0.76898   0.17266   0.75521   0.00000  Uiso   1.00
Zn568  Zn    0.89769   0.16067   0.74479   0.00000  Uiso   1.00
Br569  Br    0.79668   0.05560   0.62625   0.00000  Uiso   1.00
Br570  Br    0.86998   0.27773   0.87375   0.00000  Uiso   1.00
C571   C     0.89431   0.30427   0.54751   0.00000  Uiso   1.00
N572   N     0.91274   0.00819   0.56563   0.00000  Uiso   1.00
C573   C     0.77236   0.02906   0.95249   0.00000  Uiso   1.00
N574   N     0.75393   0.32514   0.93437   0.00000  Uiso   1.00
Br575  Br    0.67905   0.10080   0.69799   0.00000  Uiso   1.00
Br576  Br    0.98761   0.23254   0.80201   0.00000  Uiso   1.00
C577   C     0.18180   0.59810   0.74877   0.00000  Uiso   1.00
C578   C     0.15153   0.40190   0.75123   0.00000  Uiso   1.00
C579   C     0.20427   0.59158   0.97812   0.00000  Uiso   1.00
C580   C     0.12906   0.40842   0.52188   0.00000  Uiso   1.00
C581   C     0.18972   0.65269   0.74812   0.00000  Uiso   1.00
C582   C     0.14361   0.34731   0.75188   0.00000  Uiso   1.00
C583   C     0.16708   0.50059   0.83622   0.00000  Uiso   1.00
C584   C     0.16625   0.49941   0.66378   0.00000  Uiso   1.00
C585   C     0.14882   0.45237   0.59314   0.00000  Uiso   1.00
C586   C     0.18451   0.54763   0.90686   0.00000  Uiso   1.00
C587   C     0.16564   0.49844   0.61619   0.00000  Uiso   1.00
C588   C     0.16769   0.50156   0.88381   0.00000  Uiso   1.00
C589   C     0.18413   0.54401   0.59425   0.00000  Uiso   1.00
C590   C     0.14920   0.45599   0.90575   0.00000  Uiso   1.00
C591   C     0.18545   0.54530   0.54763   0.00000  Uiso   1.00
C592   C     0.14788   0.45470   0.95237   0.00000  Uiso   1.00
C593   C     0.16663   0.49961   0.52348   0.00000  Uiso   1.00
C594   C     0.16671   0.50039   0.97652   0.00000  Uiso   1.00
C595   C     0.14812   0.45303   0.54629   0.00000  Uiso   1.00
C596   C     0.18522   0.54697   0.95371   0.00000  Uiso   1.00
C597   C     0.20502   0.59100   0.52463   0.00000  Uiso   1.00
C598   C     0.12831   0.40900   0.97537   0.00000  Uiso   1.00
H599   H     0.19744   0.57831   0.61407   0.00000  Uiso   1.00
H600   H     0.13590   0.42169   0.88593   0.00000  Uiso   1.00
H601   H     0.21950   0.62719   0.96133   0.00000  Uiso   1.00
H602   H     0.11383   0.37281   0.53867   0.00000  Uiso   1.00
H603   H     0.23330   0.33634   0.74461   0.00000  Uiso   1.00
H604   H     0.10003   0.66366   0.75539   0.00000  Uiso   1.00
N605   N     0.31678   0.48598   0.73783   0.00000  Uiso   1.00
N606   N     0.01656   0.51402   0.76217   0.00000  Uiso   1.00
O607   O     0.12975   0.57952   0.75299   0.00000  Uiso   1.00
O608   O     0.20358   0.42048   0.74701   0.00000  Uiso   1.00
O609   O     0.22613   0.57054   0.74519   0.00000  Uiso   1.00
O610   O     0.10720   0.42946   0.75481   0.00000  Uiso   1.00
O611   O     0.11847   0.50450   0.81997   0.00000  Uiso   1.00
O612   O     0.21486   0.49550   0.68003   0.00000  Uiso   1.00
O613   O     0.21485   0.49552   0.81217   0.00000  Uiso   1.00
O614   O     0.11848   0.50448   0.68783   0.00000  Uiso   1.00
Zn615  Zn    0.10231   0.50600   0.75521   0.00000  Uiso   1.00
Zn616  Zn    0.23102   0.49400   0.74479   0.00000  Uiso   1.00
Br617  Br    0.13002   0.38894   0.62625   0.00000  Uiso   1.00
Br618  Br    0.20332   0.61106   0.87375   0.00000  Uiso   1.00
C619   C     0.22764   0.63761   0.54751   0.00000  Uiso   1.00
N620   N     0.24607   0.34153   0.56563   0.00000  Uiso   1.00
C621   C     0.10569   0.36239   0.95249   0.00000  Uiso   1.00
N622   N     0.08726   0.65847   0.93437   0.00000  Uiso   1.00
Br623  Br    0.01239   0.43413   0.69799   0.00000  Uiso   1.00
Br624  Br    0.32095   0.56587   0.80201   0.00000  Uiso   1.00
C625   C     0.51514   0.59810   0.74877   0.00000  Uiso   1.00
C626   C     0.48486   0.40190   0.75123   0.00000  Uiso   1.00
C627   C     0.53760   0.59158   0.97812   0.00000  Uiso   1.00
C628   C     0.46240   0.40842   0.52188   0.00000  Uiso   1.00
C629   C     0.52306   0.65269   0.74812   0.00000  Uiso   1.00
C630   C     0.47694   0.34731   0.75188   0.00000  Uiso   1.00
C631   C     0.50041   0.50059   0.83622   0.00000  Uiso   1.00
C632   C     0.49959   0.49941   0.66378   0.00000  Uiso   1.00
C633   C     0.48215   0.45237   0.59314   0.00000  Uiso   1.00
C634   C     0.51785   0.54763   0.90686   0.00000  Uiso   1.00
C635   C     0.49898   0.49844   0.61619   0.00000  Uiso   1.00
C636   C     0.50102   0.50156   0.88381   0.00000  Uiso   1.00
C637   C     0.51746   0.54401   0.59425   0.00000  Uiso   1.00
C638   C     0.48254   0.45599   0.90575   0.00000  Uiso   1.00
C639   C     0.51878   0.54530   0.54763   0.00000  Uiso   1.00
C640   C     0.48121   0.45470   0.95237   0.00000  Uiso   1.00
C641   C     0.49996   0.49961   0.52348   0.00000  Uiso   1.00
C642   C     0.50004   0.50039   0.97652   0.00000  Uiso   1.00
C643   C     0.48145   0.45303   0.54629   0.00000  Uiso   1.00
C644   C     0.51855   0.54697   0.95371   0.00000  Uiso   1.00
C645   C     0.53835   0.59100   0.52463   0.00000  Uiso   1.00
C646   C     0.46165   0.40900   0.97537   0.00000  Uiso   1.00
H647   H     0.53077   0.57831   0.61407   0.00000  Uiso   1.00
H648   H     0.46923   0.42169   0.88593   0.00000  Uiso   1.00
H649   H     0.55283   0.62719   0.96133   0.00000  Uiso   1.00
H650   H     0.44717   0.37281   0.53867   0.00000  Uiso   1.00
H651   H     0.56664   0.33634   0.74461   0.00000  Uiso   1.00
H652   H     0.43336   0.66366   0.75539   0.00000  Uiso   1.00
N653   N     0.65011   0.48598   0.73783   0.00000  Uiso   1.00
N654   N     0.34989   0.51402   0.76217   0.00000  Uiso   1.00
O655   O     0.46308   0.57952   0.75299   0.00000  Uiso   1.00
O656   O     0.53692   0.42048   0.74701   0.00000  Uiso   1.00
O657   O     0.55946   0.57054   0.74519   0.00000  Uiso   1.00
O658   O     0.44054   0.42946   0.75481   0.00000  Uiso   1.00
O659   O     0.45181   0.50450   0.81997   0.00000  Uiso   1.00
O660   O     0.54819   0.49550   0.68003   0.00000  Uiso   1.00
O661   O     0.54819   0.49552   0.81217   0.00000  Uiso   1.00
O662   O     0.45181   0.50448   0.68783   0.00000  Uiso   1.00
Zn663  Zn    0.43565   0.50600   0.75521   0.00000  Uiso   1.00
Zn664  Zn    0.56435   0.49400   0.74479   0.00000  Uiso   1.00
Br665  Br    0.46335   0.38894   0.62625   0.00000  Uiso   1.00
Br666  Br    0.53665   0.61106   0.87375   0.00000  Uiso   1.00
C667   C     0.56097   0.63761   0.54751   0.00000  Uiso   1.00
N668   N     0.57940   0.34153   0.56563   0.00000  Uiso   1.00
C669   C     0.43903   0.36239   0.95249   0.00000  Uiso   1.00
N670   N     0.42060   0.65847   0.93437   0.00000  Uiso   1.00
Br671  Br    0.34572   0.43413   0.69799   0.00000  Uiso   1.00
Br672  Br    0.65428   0.56587   0.80201   0.00000  Uiso   1.00
C673   C     0.84847   0.59810   0.74877   0.00000  Uiso   1.00
C674   C     0.81820   0.40190   0.75123   0.00000  Uiso   1.00
C675   C     0.87094   0.59158   0.97812   0.00000  Uiso   1.00
C676   C     0.79573   0.40842   0.52188   0.00000  Uiso   1.00
C677   C     0.85639   0.65269   0.74812   0.00000  Uiso   1.00
C678   C     0.81028   0.34731   0.75188   0.00000  Uiso   1.00
C679   C     0.83375   0.50059   0.83622   0.00000  Uiso   1.00
C680   C     0.83292   0.49941   0.66378   0.00000  Uiso   1.00
C681   C     0.81549   0.45237   0.59314   0.00000  Uiso   1.00
C682   C     0.85118   0.54763   0.90686   0.00000  Uiso   1.00
C683   C     0.83231   0.49844   0.61619   0.00000  Uiso   1.00
C684   C     0.83435   0.50156   0.88381   0.00000  Uiso   1.00
C685   C     0.85080   0.54401   0.59425   0.00000  Uiso   1.00
C686   C     0.81587   0.45599   0.90575   0.00000  Uiso   1.00
C687   C     0.85212   0.54530   0.54763   0.00000  Uiso   1.00
C688   C     0.81455   0.45470   0.95237   0.00000  Uiso   1.00
C689   C     0.83329   0.49961   0.52348   0.00000  Uiso   1.00
C690   C     0.83337   0.50039   0.97652   0.00000  Uiso   1.00
C691   C     0.81478   0.45303   0.54629   0.00000  Uiso   1.00
C692   C     0.85188   0.54697   0.95371   0.00000  Uiso   1.00
C693   C     0.87169   0.59100   0.52463   0.00000  Uiso   1.00
C694   C     0.79498   0.40900   0.97537   0.00000  Uiso   1.00
H695   H     0.86410   0.57831   0.61407   0.00000  Uiso   1.00
H696   H     0.80256   0.42169   0.88593   0.00000  Uiso   1.00
H697   H     0.88617   0.62719   0.96133   0.00000  Uiso   1.00
H698   H     0.78050   0.37281   0.53867   0.00000  Uiso   1.00
H699   H     0.89997   0.33634   0.74461   0.00000  Uiso   1.00
H700   H     0.76670   0.66366   0.75539   0.00000  Uiso   1.00
N701   N     0.98344   0.48598   0.73783   0.00000  Uiso   1.00
N702   N     0.68322   0.51402   0.76217   0.00000  Uiso   1.00
O703   O     0.79642   0.57952   0.75299   0.00000  Uiso   1.00
O704   O     0.87025   0.42048   0.74701   0.00000  Uiso   1.00
O705   O     0.89280   0.57054   0.74519   0.00000  Uiso   1.00
O706   O     0.77387   0.42946   0.75481   0.00000  Uiso   1.00
O707   O     0.78514   0.50450   0.81997   0.00000  Uiso   1.00
O708   O     0.88153   0.49550   0.68003   0.00000  Uiso   1.00
O709   O     0.88152   0.49552   0.81217   0.00000  Uiso   1.00
O710   O     0.78515   0.50448   0.68783   0.00000  Uiso   1.00
Zn711  Zn    0.76898   0.50600   0.75521   0.00000  Uiso   1.00
Zn712  Zn    0.89769   0.49400   0.74479   0.00000  Uiso   1.00
Br713  Br    0.79668   0.38894   0.62625   0.00000  Uiso   1.00
Br714  Br    0.86998   0.61106   0.87375   0.00000  Uiso   1.00
C715   C     0.89431   0.63761   0.54751   0.00000  Uiso   1.00
N716   N     0.91274   0.34153   0.56563   0.00000  Uiso   1.00
C717   C     0.77236   0.36239   0.95249   0.00000  Uiso   1.00
N718   N     0.75393   0.65847   0.93437   0.00000  Uiso   1.00
Br719  Br    0.67905   0.43413   0.69799   0.00000  Uiso   1.00
Br720  Br    0.98761   0.56587   0.80201   0.00000  Uiso   1.00
C721   C     0.18180   0.93143   0.74877   0.00000  Uiso   1.00
C722   C     0.15153   0.73523   0.75123   0.00000  Uiso   1.00
C723   C     0.20427   0.92492   0.97812   0.00000  Uiso   1.00
C724   C     0.12906   0.74175   0.52188   0.00000  Uiso   1.00
C725   C     0.18972   0.98602   0.74812   0.00000  Uiso   1.00
C726   C     0.14361   0.68064   0.75188   0.00000  Uiso   1.00
C727   C     0.16708   0.83393   0.83622   0.00000  Uiso   1.00
C728   C     0.16625   0.83274   0.66378   0.00000  Uiso   1.00
C729   C     0.14882   0.78570   0.59314   0.00000  Uiso   1.00
C730   C     0.18451   0.88096   0.90686   0.00000  Uiso   1.00
C731   C     0.16564   0.83177   0.61619   0.00000  Uiso   1.00
C732   C     0.16769   0.83490   0.88381   0.00000  Uiso   1.00
C733   C     0.18413   0.87734   0.59425   0.00000  Uiso   1.00
C734   C     0.14920   0.78933   0.90575   0.00000  Uiso   1.00
C735   C     0.18545   0.87863   0.54763   0.00000  Uiso   1.00
C736   C     0.14788   0.78803   0.95237   0.00000  Uiso   1.00
C737   C     0.16663   0.83295   0.52348   0.00000  Uiso   1.00
C738   C     0.16671   0.83372   0.97652   0.00000  Uiso   1.00
C739   C     0.14812   0.78636   0.54629   0.00000  Uiso   1.00
C740   C     0.18522   0.88030   0.95371   0.00000  Uiso   1.00
C741   C     0.20502   0.92433   0.52463   0.00000  Uiso   1.00
C742   C     0.12831   0.74234   0.97537   0.00000  Uiso   1.00
H743   H     0.19744   0.91164   0.61407   0.00000  Uiso   1.00
H744   H     0.13590   0.75502   0.88593   0.00000  Uiso   1.00
H745   H     0.21950   0.96052   0.96133   0.00000  Uiso   1.00
H746   H     0.11383   0.70614   0.53867   0.00000  Uiso   1.00
H747   H     0.23330   0.66967   0.74461   0.00000  Uiso   1.00
H748   H     0.10003   0.99700   0.75539   0.00000  Uiso   1.00
N749   N     0.31678   0.81932   0.73783   0.00000  Uiso   1.00
N750   N     0.01656   0.84735   0.76217   0.00000  Uiso   1.00
O751   O     0.12975   0.91286   0.75299   0.00000  Uiso   1.00
O752   O     0.20358   0.75381   0.74701   0.00000  Uiso   1.00
O753   O     0.22613   0.90387   0.74519   0.00000  Uiso   1.00
O754   O     0.10720   0.76279   0.75481   0.00000  Uiso   1.00
O755   O     0.11847   0.83784   0.81997   0.00000  Uiso   1.00
O756   O     0.21486   0.82883   0.68003   0.00000  Uiso   1.00
O757   O     0.21485   0.82885   0.81217   0.00000  Uiso   1.00
O758   O     0.11848   0.83781   0.68783   0.00000  Uiso   1.00
Zn759  Zn    0.10231   0.83933   0.75521   0.00000  Uiso   1.00
Zn760  Zn    0.23102   0.82734   0.74479   0.00000  Uiso   1.00
Br761  Br    0.13002   0.72227   0.62625   0.00000  Uiso   1.00
Br762  Br    0.20332   0.94440   0.87375   0.00000  Uiso   1.00
C763   C     0.22764   0.97094   0.54751   0.00000  Uiso   1.00
N764   N     0.24607   0.67486   0.56563   0.00000  Uiso   1.00
C765   C     0.10569   0.69573   0.95249   0.00000  Uiso   1.00
N766   N     0.08726   0.99181   0.93437   0.00000  Uiso   1.00
Br767  Br    0.01239   0.76746   0.69799   0.00000  Uiso   1.00
Br768  Br    0.32095   0.89920   0.80201   0.00000  Uiso   1.00
C769   C     0.51514   0.93143   0.74877   0.00000  Uiso   1.00
C770   C     0.48486   0.73523   0.75123   0.00000  Uiso   1.00
C771   C     0.53760   0.92492   0.97812   0.00000  Uiso   1.00
C772   C     0.46240   0.74175   0.52188   0.00000  Uiso   1.00
C773   C     0.52306   0.98602   0.74812   0.00000  Uiso   1.00
C774   C     0.47694   0.68064   0.75188   0.00000  Uiso   1.00
C775   C     0.50041   0.83393   0.83622   0.00000  Uiso   1.00
C776   C     0.49959   0.83274   0.66378   0.00000  Uiso   1.00
C777   C     0.48215   0.78570   0.59314   0.00000  Uiso   1.00
C778   C     0.51785   0.88096   0.90686   0.00000  Uiso   1.00
C779   C     0.49898   0.83177   0.61619   0.00000  Uiso   1.00
C780   C     0.50102   0.83490   0.88381   0.00000  Uiso   1.00
C781   C     0.51746   0.87734   0.59425   0.00000  Uiso   1.00
C782   C     0.48254   0.78933   0.90575   0.00000  Uiso   1.00
C783   C     0.51878   0.87863   0.54763   0.00000  Uiso   1.00
C784   C     0.48121   0.78803   0.95237   0.00000  Uiso   1.00
C785   C     0.49996   0.83295   0.52348   0.00000  Uiso   1.00
C786   C     0.50004   0.83372   0.97652   0.00000  Uiso   1.00
C787   C     0.48145   0.78636   0.54629   0.00000  Uiso   1.00
C788   C     0.51855   0.88030   0.95371   0.00000  Uiso   1.00
C789   C     0.53835   0.92433   0.52463   0.00000  Uiso   1.00
C790   C     0.46165   0.74234   0.97537   0.00000  Uiso   1.00
H791   H     0.53077   0.91164   0.61407   0.00000  Uiso   1.00
H792   H     0.46923   0.75502   0.88593   0.00000  Uiso   1.00
H793   H     0.55283   0.96052   0.96133   0.00000  Uiso   1.00
H794   H     0.44717   0.70614   0.53867   0.00000  Uiso   1.00
H795   H     0.56664   0.66967   0.74461   0.00000  Uiso   1.00
H796   H     0.43336   0.99700   0.75539   0.00000  Uiso   1.00
N797   N     0.65011   0.81932   0.73783   0.00000  Uiso   1.00
N798   N     0.34989   0.84735   0.76217   0.00000  Uiso   1.00
O799   O     0.46308   0.91286   0.75299   0.00000  Uiso   1.00
O800   O     0.53692   0.75381   0.74701   0.00000  Uiso   1.00
O801   O     0.55946   0.90387   0.74519   0.00000  Uiso   1.00
O802   O     0.44054   0.76279   0.75481   0.00000  Uiso   1.00
O803   O     0.45181   0.83784   0.81997   0.00000  Uiso   1.00
O804   O     0.54819   0.82883   0.68003   0.00000  Uiso   1.00
O805   O     0.54819   0.82885   0.81217   0.00000  Uiso   1.00
O806   O     0.45181   0.83781   0.68783   0.00000  Uiso   1.00
Zn807  Zn    0.43565   0.83933   0.75521   0.00000  Uiso   1.00
Zn808  Zn    0.56435   0.82734   0.74479   0.00000  Uiso   1.00
Br809  Br    0.46335   0.72227   0.62625   0.00000  Uiso   1.00
Br810  Br    0.53665   0.94440   0.87375   0.00000  Uiso   1.00
C811   C     0.56097   0.97094   0.54751   0.00000  Uiso   1.00
N812   N     0.57940   0.67486   0.56563   0.00000  Uiso   1.00
C813   C     0.43903   0.69573   0.95249   0.00000  Uiso   1.00
N814   N     0.42060   0.99181   0.93437   0.00000  Uiso   1.00
Br815  Br    0.34572   0.76746   0.69799   0.00000  Uiso   1.00
Br816  Br    0.65428   0.89920   0.80201   0.00000  Uiso   1.00
C817   C     0.84847   0.93143   0.74877   0.00000  Uiso   1.00
C818   C     0.81820   0.73523   0.75123   0.00000  Uiso   1.00
C819   C     0.87094   0.92492   0.97812   0.00000  Uiso   1.00
C820   C     0.79573   0.74175   0.52188   0.00000  Uiso   1.00
C821   C     0.85639   0.98602   0.74812   0.00000  Uiso   1.00
C822   C     0.81028   0.68064   0.75188   0.00000  Uiso   1.00
C823   C     0.83375   0.83393   0.83622   0.00000  Uiso   1.00
C824   C     0.83292   0.83274   0.66378   0.00000  Uiso   1.00
C825   C     0.81549   0.78570   0.59314   0.00000  Uiso   1.00
C826   C     0.85118   0.88096   0.90686   0.00000  Uiso   1.00
C827   C     0.83231   0.83177   0.61619   0.00000  Uiso   1.00
C828   C     0.83435   0.83490   0.88381   0.00000  Uiso   1.00
C829   C     0.85080   0.87734   0.59425   0.00000  Uiso   1.00
C830   C     0.81587   0.78933   0.90575   0.00000  Uiso   1.00
C831   C     0.85212   0.87863   0.54763   0.00000  Uiso   1.00
C832   C     0.81455   0.78803   0.95237   0.00000  Uiso   1.00
C833   C     0.83329   0.83295   0.52348   0.00000  Uiso   1.00
C834   C     0.83337   0.83372   0.97652   0.00000  Uiso   1.00
C835   C     0.81478   0.78636   0.54629   0.00000  Uiso   1.00
C836   C     0.85188   0.88030   0.95371   0.00000  Uiso   1.00
C837   C     0.87169   0.92433   0.52463   0.00000  Uiso   1.00
C838   C     0.79498   0.74234   0.97537   0.00000  Uiso   1.00
H839   H     0.86410   0.91164   0.61407   0.00000  Uiso   1.00
H840   H     0.80256   0.75502   0.88593   0.00000  Uiso   1.00
H841   H     0.88617   0.96052   0.96133   0.00000  Uiso   1.00
H842   H     0.78050   0.70614   0.53867   0.00000  Uiso   1.00
H843   H     0.89997   0.66967   0.74461   0.00000  Uiso   1.00
H844   H     0.76670   0.99700   0.75539   0.00000  Uiso   1.00
N845   N     0.98344   0.81932   0.73783   0.00000  Uiso   1.00
N846   N     0.68322   0.84735   0.76217   0.00000  Uiso   1.00
O847   O     0.79642   0.91286   0.75299   0.00000  Uiso   1.00
O848   O     0.87025   0.75381   0.74701   0.00000  Uiso   1.00
O849   O     0.89280   0.90387   0.74519   0.00000  Uiso   1.00
O850   O     0.77387   0.76279   0.75481   0.00000  Uiso   1.00
O851   O     0.78514   0.83784   0.81997   0.00000  Uiso   1.00
O852   O     0.88153   0.82883   0.68003   0.00000  Uiso   1.00
O853   O     0.88152   0.82885   0.81217   0.00000  Uiso   1.00
O854   O     0.78515   0.83781   0.68783   0.00000  Uiso   1.00
Zn855  Zn    0.76898   0.83933   0.75521   0.00000  Uiso   1.00
Zn856  Zn    0.89769   0.82734   0.74479   0.00000  Uiso   1.00
Br857  Br    0.79668   0.72227   0.62625   0.00000  Uiso   1.00
Br858  Br    0.86998   0.94440   0.87375   0.00000  Uiso   1.00
C859   C     0.89431   0.97094   0.54751   0.00000  Uiso   1.00
N860   N     0.91274   0.67486   0.56563   0.00000  Uiso   1.00
C861   C     0.77236   0.69573   0.95249   0.00000  Uiso   1.00
N862   N     0.75393   0.99181   0.93437   0.00000  Uiso   1.00
Br863  Br    0.67905   0.76746   0.69799   0.00000  Uiso   1.00
Br864  Br    0.98761   0.89920   0.80201   0.00000  Uiso   1.00
loop_
_geom_bond_atom_site_label_1
_geom_bond_atom_site_label_2
_geom_bond_distance
_geom_bond_site_symmetry_2
_ccdc_geom_bond_type
C1     O31     1.285   .     A
C1     O33     1.293   .     A
C1     C5      1.399   .     S
C2     O34     1.293   .     A
C2     C6      1.399   .     S
C2     O32     1.285   .     A
C3     C20     1.402   .     A
C3     H25     1.082   .     S
C3     C453    1.387   .     S
C4     H26     1.082   .     S
C4     C19     1.402   .     A
C4     C454    1.387   1_554 S
C5     C150    1.335   .     S
C5     H171    1.088   .     S
C6     C293    1.335   1_545 S
C6     H316    1.088   1_545 S
C7     O37     1.295   .     A
C7     C12     1.418   .     S
C7     O35     1.291   .     A
C8     C11     1.418   .     S
C8     O38     1.295   .     A
C8     O36     1.291   .     A
C9     Br41    1.938   .     S
C9     C11     1.396   .     A
C9     C19     1.397   .     A
C10    Br42    1.938   .     S
C10    C12     1.396   .     A
C10    C20     1.397   .     A
C11    C13     1.386   .     A
C12    C14     1.386   .     A
C13    C15     1.388   .     A
C13    H23     1.085   .     S
C14    C16     1.388   .     A
C14    H24     1.085   .     S
C15    C21     1.409   .     A
C15    C17     1.418   .     A
C16    C18     1.418   .     A
C16    C22     1.409   .     A
C17    C19     1.420   .     A
C17    C450    1.399   1_554 S
C18    C20     1.420   .     A
C18    C449    1.399   .     S
C21    C43     1.447   .     S
C21    C435    1.387   1_554 S
C22    C45     1.447   .     S
C22    C436    1.387   .     S
H27    C293    1.088   1_545 S
H28    C150    1.088   .     S
N29    Zn40    2.038   .     S
N29    N78     1.279   .     S
N29    Br95    1.873   .     S
N30    Zn39    2.038   .     S
N30    N125    1.279   1_455 S
N30    Br144   1.873   1_455 S
O31    Zn39    1.953   .     S
O32    Zn40    1.953   .     S
O33    Zn40    1.971   .     S
O34    Zn39    1.971   .     S
O35    Zn39    1.999   .     S
O36    Zn40    1.999   .     S
O37    Zn40    2.011   .     S
O38    Zn39    2.011   .     S
C43    N188    1.157   .     S
N44    C331    1.157   1_545 S
C45    N334    1.157   1_545 S
N46    C189    1.157   .     S
Br47   N125    1.873   1_455 S
Br48   N78     1.873   .     S
C49    O79     1.285   .     A
C49    O81     1.293   .     A
C49    C53     1.399   .     S
C50    O82     1.293   .     A
C50    C54     1.399   .     S
C50    O80     1.285   .     A
C51    C68     1.402   .     A
C51    H73     1.082   .     S
C51    C501    1.387   .     S
C52    H74     1.082   .     S
C52    C67     1.402   .     A
C52    C502    1.387   1_554 S
C53    C198    1.335   .     S
C53    H219    1.088   .     S
C54    C341    1.335   1_545 S
C54    H364    1.088   1_545 S
C55    O85     1.295   .     A
C55    C60     1.418   .     S
C55    O83     1.291   .     A
C56    C59     1.418   .     S
C56    O86     1.295   .     A
C56    O84     1.291   .     A
C57    Br89    1.938   .     S
C57    C59     1.396   .     A
C57    C67     1.397   .     A
C58    Br90    1.938   .     S
C58    C60     1.396   .     A
C58    C68     1.397   .     A
C59    C61     1.386   .     A
C60    C62     1.386   .     A
C61    C63     1.388   .     A
C61    H71     1.085   .     S
C62    C64     1.388   .     A
C62    H72     1.085   .     S
C63    C69     1.409   .     A
C63    C65     1.418   .     A
C64    C66     1.418   .     A
C64    C70     1.409   .     A
C65    C67     1.420   .     A
C65    C498    1.399   1_554 S
C66    C68     1.420   .     A
C66    C497    1.399   .     S
C69    C91     1.447   .     S
C69    C483    1.387   1_554 S
C70    C93     1.447   .     S
C70    C484    1.387   .     S
H75    C341    1.088   1_545 S
H76    C198    1.088   .     S
N77    Zn88    2.038   .     S
N77    N126    1.279   .     S
N77    Br143   1.873   .     S
N78    Zn87    2.038   .     S
O79    Zn87    1.953   .     S
O80    Zn88    1.953   .     S
O81    Zn88    1.971   .     S
O82    Zn87    1.971   .     S
O83    Zn87    1.999   .     S
O84    Zn88    1.999   .     S
O85    Zn88    2.011   .     S
O86    Zn87    2.011   .     S
C91    N236    1.157   .     S
N92    C379    1.157   1_545 S
C93    N382    1.157   1_545 S
N94    C237    1.157   .     S
Br96   N126    1.873   .     S
C97    O127    1.285   .     A
C97    O129    1.293   .     A
C97    C101    1.399   .     S
C98    O130    1.293   .     A
C98    C102    1.399   .     S
C98    O128    1.285   .     A
C99    C116    1.402   .     A
C99    H121    1.082   .     S
C99    C549    1.387   .     S
C100   H122    1.082   .     S
C100   C115    1.402   .     A
C100   C550    1.387   1_554 S
C101   C246    1.335   .     S
C101   H267    1.088   .     S
C102   C389    1.335   1_545 S
C102   H412    1.088   1_545 S
C103   O133    1.295   .     A
C103   C108    1.418   .     S
C103   O131    1.291   .     A
C104   C107    1.418   .     S
C104   O134    1.295   .     A
C104   O132    1.291   .     A
C105   Br137   1.938   .     S
C105   C107    1.396   .     A
C105   C115    1.397   .     A
C106   Br138   1.938   .     S
C106   C108    1.396   .     A
C106   C116    1.397   .     A
C107   C109    1.386   .     A
C108   C110    1.386   .     A
C109   C111    1.388   .     A
C109   H119    1.085   .     S
C110   C112    1.388   .     A
C110   H120    1.085   .     S
C111   C117    1.409   .     A
C111   C113    1.418   .     A
C112   C114    1.418   .     A
C112   C118    1.409   .     A
C113   C115    1.420   .     A
C113   C546    1.399   1_554 S
C114   C116    1.420   .     A
C114   C545    1.399   .     S
C117   C139    1.447   .     S
C117   C531    1.387   1_554 S
C118   C141    1.447   .     S
C118   C532    1.387   .     S
H123   C389    1.088   1_545 S
H124   C246    1.088   .     S
N125   Zn136   2.038   .     S
N125   N30     1.279   1_655 S
N125   Br47    1.873   1_655 S
N126   Zn135   2.038   .     S
O127   Zn135   1.953   .     S
O128   Zn136   1.953   .     S
O129   Zn136   1.971   .     S
O130   Zn135   1.971   .     S
O131   Zn135   1.999   .     S
O132   Zn136   1.999   .     S
O133   Zn136   2.011   .     S
O134   Zn135   2.011   .     S
C139   N284    1.157   .     S
N140   C427    1.157   1_545 S
C141   N430    1.157   1_545 S
N142   C285    1.157   .     S
Br144  N30     1.873   1_655 S
C145   O175    1.285   .     A
C145   O177    1.293   .     A
C145   C149    1.399   .     S
C146   O178    1.293   .     A
C146   C150    1.399   .     S
C146   O176    1.285   .     A
C147   C164    1.402   .     A
C147   H169    1.082   .     S
C147   C597    1.387   .     S
C148   H170    1.082   .     S
C148   C163    1.402   .     A
C148   C598    1.387   1_554 S
C149   C294    1.335   .     S
C149   H315    1.088   .     S
C151   O181    1.295   .     A
C151   C156    1.418   .     S
C151   O179    1.291   .     A
C152   C155    1.418   .     S
C152   O182    1.295   .     A
C152   O180    1.291   .     A
C153   Br185   1.938   .     S
C153   C155    1.396   .     A
C153   C163    1.397   .     A
C154   Br186   1.938   .     S
C154   C156    1.396   .     A
C154   C164    1.397   .     A
C155   C157    1.386   .     A
C156   C158    1.386   .     A
C157   C159    1.388   .     A
C157   H167    1.085   .     S
C158   C160    1.388   .     A
C158   H168    1.085   .     S
C159   C165    1.409   .     A
C159   C161    1.418   .     A
C160   C162    1.418   .     A
C160   C166    1.409   .     A
C161   C163    1.420   .     A
C161   C594    1.399   1_554 S
C162   C164    1.420   .     A
C162   C593    1.399   .     S
C165   C187    1.447   .     S
C165   C579    1.387   1_554 S
C166   C189    1.447   .     S
C166   C580    1.387   .     S
H172   C294    1.088   .     S
N173   Zn184   2.038   .     S
N173   N222    1.279   .     S
N173   Br239   1.873   .     S
N174   Zn183   2.038   .     S
N174   N269    1.279   1_455 S
N174   Br288   1.873   1_455 S
O175   Zn183   1.953   .     S
O176   Zn184   1.953   .     S
O177   Zn184   1.971   .     S
O178   Zn183   1.971   .     S
O179   Zn183   1.999   .     S
O180   Zn184   1.999   .     S
O181   Zn184   2.011   .     S
O182   Zn183   2.011   .     S
C187   N332    1.157   .     S
N190   C333    1.157   .     S
Br191  N269    1.873   1_455 S
Br192  N222    1.873   .     S
C193   O223    1.285   .     A
C193   O225    1.293   .     A
C193   C197    1.399   .     S
C194   O226    1.293   .     A
C194   C198    1.399   .     S
C194   O224    1.285   .     A
C195   C212    1.402   .     A
C195   H217    1.082   .     S
C195   C645    1.387   .     S
C196   H218    1.082   .     S
C196   C211    1.402   .     A
C196   C646    1.387   1_554 S
C197   C342    1.335   .     S
C197   H363    1.088   .     S
C199   O229    1.295   .     A
C199   C204    1.418   .     S
C199   O227    1.291   .     A
C200   C203    1.418   .     S
C200   O230    1.295   .     A
C200   O228    1.291   .     A
C201   Br233   1.938   .     S
C201   C203    1.396   .     A
C201   C211    1.397   .     A
C202   Br234   1.938   .     S
C202   C204    1.396   .     A
C202   C212    1.397   .     A
C203   C205    1.386   .     A
C204   C206    1.386   .     A
C205   C207    1.388   .     A
C205   H215    1.085   .     S
C206   C208    1.388   .     A
C206   H216    1.085   .     S
C207   C213    1.409   .     A
C207   C209    1.418   .     A
C208   C210    1.418   .     A
C208   C214    1.409   .     A
C209   C211    1.420   .     A
C209   C642    1.399   1_554 S
C210   C212    1.420   .     A
C210   C641    1.399   .     S
C213   C235    1.447   .     S
C213   C627    1.387   1_554 S
C214   C237    1.447   .     S
C214   C628    1.387   .     S
H220   C342    1.088   .     S
N221   Zn232   2.038   .     S
N221   N270    1.279   .     S
N221   Br287   1.873   .     S
N222   Zn231   2.038   .     S
O223   Zn231   1.953   .     S
O224   Zn232   1.953   .     S
O225   Zn232   1.971   .     S
O226   Zn231   1.971   .     S
O227   Zn231   1.999   .     S
O228   Zn232   1.999   .     S
O229   Zn232   2.011   .     S
O230   Zn231   2.011   .     S
C235   N380    1.157   .     S
N238   C381    1.157   .     S
Br240  N270    1.873   .     S
C241   O271    1.285   .     A
C241   O273    1.293   .     A
C241   C245    1.399   .     S
C242   O274    1.293   .     A
C242   C246    1.399   .     S
C242   O272    1.285   .     A
C243   C260    1.402   .     A
C243   H265    1.082   .     S
C243   C693    1.387   .     S
C244   H266    1.082   .     S
C244   C259    1.402   .     A
C244   C694    1.387   1_554 S
C245   C390    1.335   .     S
C245   H411    1.088   .     S
C247   O277    1.295   .     A
C247   C252    1.418   .     S
C247   O275    1.291   .     A
C248   C251    1.418   .     S
C248   O278    1.295   .     A
C248   O276    1.291   .     A
C249   Br281   1.938   .     S
C249   C251    1.396   .     A
C249   C259    1.397   .     A
C250   Br282   1.938   .     S
C250   C252    1.396   .     A
C250   C260    1.397   .     A
C251   C253    1.386   .     A
C252   C254    1.386   .     A
C253   C255    1.388   .     A
C253   H263    1.085   .     S
C254   C256    1.388   .     A
C254   H264    1.085   .     S
C255   C261    1.409   .     A
C255   C257    1.418   .     A
C256   C258    1.418   .     A
C256   C262    1.409   .     A
C257   C259    1.420   .     A
C257   C690    1.399   1_554 S
C258   C260    1.420   .     A
C258   C689    1.399   .     S
C261   C283    1.447   .     S
C261   C675    1.387   1_554 S
C262   C285    1.447   .     S
C262   C676    1.387   .     S
H268   C390    1.088   .     S
N269   Zn280   2.038   .     S
N269   N174    1.279   1_655 S
N269   Br191   1.873   1_655 S
N270   Zn279   2.038   .     S
O271   Zn279   1.953   .     S
O272   Zn280   1.953   .     S
O273   Zn280   1.971   .     S
O274   Zn279   1.971   .     S
O275   Zn279   1.999   .     S
O276   Zn280   1.999   .     S
O277   Zn280   2.011   .     S
O278   Zn279   2.011   .     S
C283   N428    1.157   .     S
N286   C429    1.157   .     S
Br288  N174    1.873   1_655 S
C289   O319    1.285   .     A
C289   O321    1.293   .     A
C289   C293    1.399   .     S
C290   O322    1.293   .     A
C290   C294    1.399   .     S
C290   O320    1.285   .     A
C291   C308    1.402   .     A
C291   H313    1.082   .     S
C291   C741    1.387   .     S
C292   H314    1.082   .     S
C292   C307    1.402   .     A
C292   C742    1.387   1_554 S
C293   C6      1.335   1_565 S
C293   H27     1.088   1_565 S
C295   O325    1.295   .     A
C295   C300    1.418   .     S
C295   O323    1.291   .     A
C296   C299    1.418   .     S
C296   O326    1.295   .     A
C296   O324    1.291   .     A
C297   Br329   1.938   .     S
C297   C299    1.396   .     A
C297   C307    1.397   .     A
C298   Br330   1.938   .     S
C298   C300    1.396   .     A
C298   C308    1.397   .     A
C299   C301    1.386   .     A
C300   C302    1.386   .     A
C301   C303    1.388   .     A
C301   H311    1.085   .     S
C302   C304    1.388   .     A
C302   H312    1.085   .     S
C303   C309    1.409   .     A
C303   C305    1.418   .     A
C304   C306    1.418   .     A
C304   C310    1.409   .     A
C305   C307    1.420   .     A
C305   C738    1.399   1_554 S
C306   C308    1.420   .     A
C306   C737    1.399   .     S
C309   C331    1.447   .     S
C309   C723    1.387   1_554 S
C310   C333    1.447   .     S
C310   C724    1.387   .     S
H316   C6      1.088   1_565 S
N317   Zn328   2.038   .     S
N317   N366    1.279   .     S
N317   Br383   1.873   .     S
N318   Zn327   2.038   .     S
N318   N413    1.279   1_455 S
N318   Br432   1.873   1_455 S
O319   Zn327   1.953   .     S
O320   Zn328   1.953   .     S
O321   Zn328   1.971   .     S
O322   Zn327   1.971   .     S
O323   Zn327   1.999   .     S
O324   Zn328   1.999   .     S
O325   Zn328   2.011   .     S
O326   Zn327   2.011   .     S
C331   N44     1.157   1_565 S
N334   C45     1.157   1_565 S
Br335  N413    1.873   1_455 S
Br336  N366    1.873   .     S
C337   O367    1.285   .     A
C337   O369    1.293   .     A
C337   C341    1.399   .     S
C338   O370    1.293   .     A
C338   C342    1.399   .     S
C338   O368    1.285   .     A
C339   C356    1.402   .     A
C339   H361    1.082   .     S
C339   C789    1.387   .     S
C340   H362    1.082   .     S
C340   C355    1.402   .     A
C340   C790    1.387   1_554 S
C341   C54     1.335   1_565 S
C341   H75     1.088   1_565 S
C343   O373    1.295   .     A
C343   C348    1.418   .     S
C343   O371    1.291   .     A
C344   C347    1.418   .     S
C344   O374    1.295   .     A
C344   O372    1.291   .     A
C345   Br377   1.938   .     S
C345   C347    1.396   .     A
C345   C355    1.397   .     A
C346   Br378   1.938   .     S
C346   C348    1.396   .     A
C346   C356    1.397   .     A
C347   C349    1.386   .     A
C348   C350    1.386   .     A
C349   C351    1.388   .     A
C349   H359    1.085   .     S
C350   C352    1.388   .     A
C350   H360    1.085   .     S
C351   C357    1.409   .     A
C351   C353    1.418   .     A
C352   C354    1.418   .     A
C352   C358    1.409   .     A
C353   C355    1.420   .     A
C353   C786    1.399   1_554 S
C354   C356    1.420   .     A
C354   C785    1.399   .     S
C357   C379    1.447   .     S
C357   C771    1.387   1_554 S
C358   C381    1.447   .     S
C358   C772    1.387   .     S
H364   C54     1.088   1_565 S
N365   Zn376   2.038   .     S
N365   N414    1.279   .     S
N365   Br431   1.873   .     S
N366   Zn375   2.038   .     S
O367   Zn375   1.953   .     S
O368   Zn376   1.953   .     S
O369   Zn376   1.971   .     S
O370   Zn375   1.971   .     S
O371   Zn375   1.999   .     S
O372   Zn376   1.999   .     S
O373   Zn376   2.011   .     S
O374   Zn375   2.011   .     S
C379   N92     1.157   1_565 S
N382   C93     1.157   1_565 S
Br384  N414    1.873   .     S
C385   O415    1.285   .     A
C385   O417    1.293   .     A
C385   C389    1.399   .     S
C386   O418    1.293   .     A
C386   C390    1.399   .     S
C386   O416    1.285   .     A
C387   C404    1.402   .     A
C387   H409    1.082   .     S
C387   C837    1.387   .     S
C388   H410    1.082   .     S
C388   C403    1.402   .     A
C388   C838    1.387   1_554 S
C389   C102    1.335   1_565 S
C389   H123    1.088   1_565 S
C391   O421    1.295   .     A
C391   C396    1.418   .     S
C391   O419    1.291   .     A
C392   C395    1.418   .     S
C392   O422    1.295   .     A
C392   O420    1.291   .     A
C393   Br425   1.938   .     S
C393   C395    1.396   .     A
C393   C403    1.397   .     A
C394   Br426   1.938   .     S
C394   C396    1.396   .     A
C394   C404    1.397   .     A
C395   C397    1.386   .     A
C396   C398    1.386   .     A
C397   C399    1.388   .     A
C397   H407    1.085   .     S
C398   C400    1.388   .     A
C398   H408    1.085   .     S
C399   C405    1.409   .     A
C399   C401    1.418   .     A
C400   C402    1.418   .     A
C400   C406    1.409   .     A
C401   C403    1.420   .     A
C401   C834    1.399   1_554 S
C402   C404    1.420   .     A
C402   C833    1.399   .     S
C405   C427    1.447   .     S
C405   C819    1.387   1_554 S
C406   C429    1.447   .     S
C406   C820    1.387   .     S
H412   C102    1.088   1_565 S
N413   Zn424   2.038   .     S
N413   N318    1.279   1_655 S
N413   Br335   1.873   1_655 S
N414   Zn423   2.038   .     S
O415   Zn423   1.953   .     S
O416   Zn424   1.953   .     S
O417   Zn424   1.971   .     S
O418   Zn423   1.971   .     S
O419   Zn423   1.999   .     S
O420   Zn424   1.999   .     S
O421   Zn424   2.011   .     S
O422   Zn423   2.011   .     S
C427   N140    1.157   1_565 S
N430   C141    1.157   1_565 S
Br432  N318    1.873   1_655 S
C433   O463    1.285   .     A
C433   O465    1.293   .     A
C433   C437    1.399   .     S
C434   O466    1.293   .     A
C434   C438    1.399   .     S
C434   O464    1.285   .     A
C435   C452    1.402   .     A
C435   H457    1.082   .     S
C435   C21     1.387   1_556 S
C436   H458    1.082   .     S
C436   C451    1.402   .     A
C437   C582    1.335   .     S
C437   H603    1.088   .     S
C438   C725    1.335   1_545 S
C438   H748    1.088   1_545 S
C439   O469    1.295   .     A
C439   C444    1.418   .     S
C439   O467    1.291   .     A
C440   C443    1.418   .     S
C440   O470    1.295   .     A
C440   O468    1.291   .     A
C441   Br473   1.938   .     S
C441   C443    1.396   .     A
C441   C451    1.397   .     A
C442   Br474   1.938   .     S
C442   C444    1.396   .     A
C442   C452    1.397   .     A
C443   C445    1.386   .     A
C444   C446    1.386   .     A
C445   C447    1.388   .     A
C445   H455    1.085   .     S
C446   C448    1.388   .     A
C446   H456    1.085   .     S
C447   C453    1.409   .     A
C447   C449    1.418   .     A
C448   C450    1.418   .     A
C448   C454    1.409   .     A
C449   C451    1.420   .     A
C450   C452    1.420   .     A
C450   C17     1.399   1_556 S
C453   C475    1.447   .     S
C454   C477    1.447   .     S
C454   C4      1.387   1_556 S
H459   C725    1.088   1_545 S
H460   C582    1.088   .     S
N461   Zn472   2.038   .     S
N461   N510    1.279   .     S
N461   Br527   1.873   .     S
N462   Zn471   2.038   .     S
N462   N557    1.279   1_455 S
N462   Br576   1.873   1_455 S
O463   Zn471   1.953   .     S
O464   Zn472   1.953   .     S
O465   Zn472   1.971   .     S
O466   Zn471   1.971   .     S
O467   Zn471   1.999   .     S
O468   Zn472   1.999   .     S
O469   Zn472   2.011   .     S
O470   Zn471   2.011   .     S
C475   N620    1.157   .     S
N476   C763    1.157   1_545 S
C477   N766    1.157   1_545 S
N478   C621    1.157   .     S
Br479  N557    1.873   1_455 S
Br480  N510    1.873   .     S
C481   O511    1.285   .     A
C481   O513    1.293   .     A
C481   C485    1.399   .     S
C482   O514    1.293   .     A
C482   C486    1.399   .     S
C482   O512    1.285   .     A
C483   C500    1.402   .     A
C483   H505    1.082   .     S
C483   C69     1.387   1_556 S
C484   H506    1.082   .     S
C484   C499    1.402   .     A
C485   C630    1.335   .     S
C485   H651    1.088   .     S
C486   C773    1.335   1_545 S
C486   H796    1.088   1_545 S
C487   O517    1.295   .     A
C487   C492    1.418   .     S
C487   O515    1.291   .     A
C488   C491    1.418   .     S
C488   O518    1.295   .     A
C488   O516    1.291   .     A
C489   Br521   1.938   .     S
C489   C491    1.396   .     A
C489   C499    1.397   .     A
C490   Br522   1.938   .     S
C490   C492    1.396   .     A
C490   C500    1.397   .     A
C491   C493    1.386   .     A
C492   C494    1.386   .     A
C493   C495    1.388   .     A
C493   H503    1.085   .     S
C494   C496    1.388   .     A
C494   H504    1.085   .     S
C495   C501    1.409   .     A
C495   C497    1.418   .     A
C496   C498    1.418   .     A
C496   C502    1.409   .     A
C497   C499    1.420   .     A
C498   C500    1.420   .     A
C498   C65     1.399   1_556 S
C501   C523    1.447   .     S
C502   C525    1.447   .     S
C502   C52     1.387   1_556 S
H507   C773    1.088   1_545 S
H508   C630    1.088   .     S
N509   Zn520   2.038   .     S
N509   N558    1.279   .     S
N509   Br575   1.873   .     S
N510   Zn519   2.038   .     S
O511   Zn519   1.953   .     S
O512   Zn520   1.953   .     S
O513   Zn520   1.971   .     S
O514   Zn519   1.971   .     S
O515   Zn519   1.999   .     S
O516   Zn520   1.999   .     S
O517   Zn520   2.011   .     S
O518   Zn519   2.011   .     S
C523   N668    1.157   .     S
N524   C811    1.157   1_545 S
C525   N814    1.157   1_545 S
N526   C669    1.157   .     S
Br528  N558    1.873   .     S
C529   O559    1.285   .     A
C529   O561    1.293   .     A
C529   C533    1.399   .     S
C530   O562    1.293   .     A
C530   C534    1.399   .     S
C530   O560    1.285   .     A
C531   C548    1.402   .     A
C531   H553    1.082   .     S
C531   C117    1.387   1_556 S
C532   H554    1.082   .     S
C532   C547    1.402   .     A
C533   C678    1.335   .     S
C533   H699    1.088   .     S
C534   C821    1.335   1_545 S
C534   H844    1.088   1_545 S
C535   O565    1.295   .     A
C535   C540    1.418   .     S
C535   O563    1.291   .     A
C536   C539    1.418   .     S
C536   O566    1.295   .     A
C536   O564    1.291   .     A
C537   Br569   1.938   .     S
C537   C539    1.396   .     A
C537   C547    1.397   .     A
C538   Br570   1.938   .     S
C538   C540    1.396   .     A
C538   C548    1.397   .     A
C539   C541    1.386   .     A
C540   C542    1.386   .     A
C541   C543    1.388   .     A
C541   H551    1.085   .     S
C542   C544    1.388   .     A
C542   H552    1.085   .     S
C543   C549    1.409   .     A
C543   C545    1.418   .     A
C544   C546    1.418   .     A
C544   C550    1.409   .     A
C545   C547    1.420   .     A
C546   C548    1.420   .     A
C546   C113    1.399   1_556 S
C549   C571    1.447   .     S
C550   C573    1.447   .     S
C550   C100    1.387   1_556 S
H555   C821    1.088   1_545 S
H556   C678    1.088   .     S
N557   Zn568   2.038   .     S
N557   N462    1.279   1_655 S
N557   Br479   1.873   1_655 S
N558   Zn567   2.038   .     S
O559   Zn567   1.953   .     S
O560   Zn568   1.953   .     S
O561   Zn568   1.971   .     S
O562   Zn567   1.971   .     S
O563   Zn567   1.999   .     S
O564   Zn568   1.999   .     S
O565   Zn568   2.011   .     S
O566   Zn567   2.011   .     S
C571   N716    1.157   .     S
N572   C859    1.157   1_545 S
C573   N862    1.157   1_545 S
N574   C717    1.157   .     S
Br576  N462    1.873   1_655 S
C577   O607    1.285   .     A
C577   O609    1.293   .     A
C577   C581    1.399   .     S
C578   O610    1.293   .     A
C578   C582    1.399   .     S
C578   O608    1.285   .     A
C579   C596    1.402   .     A
C579   H601    1.082   .     S
C579   C165    1.387   1_556 S
C580   H602    1.082   .     S
C580   C595    1.402   .     A
C581   C726    1.335   .     S
C581   H747    1.088   .     S
C583   O613    1.295   .     A
C583   C588    1.418   .     S
C583   O611    1.291   .     A
C584   C587    1.418   .     S
C584   O614    1.295   .     A
C584   O612    1.291   .     A
C585   Br617   1.938   .     S
C585   C587    1.396   .     A
C585   C595    1.397   .     A
C586   Br618   1.938   .     S
C586   C588    1.396   .     A
C586   C596    1.397   .     A
C587   C589    1.386   .     A
C588   C590    1.386   .     A
C589   C591    1.388   .     A
C589   H599    1.085   .     S
C590   C592    1.388   .     A
C590   H600    1.085   .     S
C591   C597    1.409   .     A
C591   C593    1.418   .     A
C592   C594    1.418   .     A
C592   C598    1.409   .     A
C593   C595    1.420   .     A
C594   C596    1.420   .     A
C594   C161    1.399   1_556 S
C597   C619    1.447   .     S
C598   C621    1.447   .     S
C598   C148    1.387   1_556 S
H604   C726    1.088   .     S
N605   Zn616   2.038   .     S
N605   N654    1.279   .     S
N605   Br671   1.873   .     S
N606   Zn615   2.038   .     S
N606   N701    1.279   1_455 S
N606   Br720   1.873   1_455 S
O607   Zn615   1.953   .     S
O608   Zn616   1.953   .     S
O609   Zn616   1.971   .     S
O610   Zn615   1.971   .     S
O611   Zn615   1.999   .     S
O612   Zn616   1.999   .     S
O613   Zn616   2.011   .     S
O614   Zn615   2.011   .     S
C619   N764    1.157   .     S
N622   C765    1.157   .     S
Br623  N701    1.873   1_455 S
Br624  N654    1.873   .     S
C625   O655    1.285   .     A
C625   O657    1.293   .     A
C625   C629    1.399   .     S
C626   O658    1.293   .     A
C626   C630    1.399   .     S
C626   O656    1.285   .     A
C627   C644    1.402   .     A
C627   H649    1.082   .     S
C627   C213    1.387   1_556 S
C628   H650    1.082   .     S
C628   C643    1.402   .     A
C629   C774    1.335   .     S
C629   H795    1.088   .     S
C631   O661    1.295   .     A
C631   C636    1.418   .     S
C631   O659    1.291   .     A
C632   C635    1.418   .     S
C632   O662    1.295   .     A
C632   O660    1.291   .     A
C633   Br665   1.938   .     S
C633   C635    1.396   .     A
C633   C643    1.397   .     A
C634   Br666   1.938   .     S
C634   C636    1.396   .     A
C634   C644    1.397   .     A
C635   C637    1.386   .     A
C636   C638    1.386   .     A
C637   C639    1.388   .     A
C637   H647    1.085   .     S
C638   C640    1.388   .     A
C638   H648    1.085   .     S
C639   C645    1.409   .     A
C639   C641    1.418   .     A
C640   C642    1.418   .     A
C640   C646    1.409   .     A
C641   C643    1.420   .     A
C642   C644    1.420   .     A
C642   C209    1.399   1_556 S
C645   C667    1.447   .     S
C646   C669    1.447   .     S
C646   C196    1.387   1_556 S
H652   C774    1.088   .     S
N653   Zn664   2.038   .     S
N653   N702    1.279   .     S
N653   Br719   1.873   .     S
N654   Zn663   2.038   .     S
O655   Zn663   1.953   .     S
O656   Zn664   1.953   .     S
O657   Zn664   1.971   .     S
O658   Zn663   1.971   .     S
O659   Zn663   1.999   .     S
O660   Zn664   1.999   .     S
O661   Zn664   2.011   .     S
O662   Zn663   2.011   .     S
C667   N812    1.157   .     S
N670   C813    1.157   .     S
Br672  N702    1.873   .     S
C673   O703    1.285   .     A
C673   O705    1.293   .     A
C673   C677    1.399   .     S
C674   O706    1.293   .     A
C674   C678    1.399   .     S
C674   O704    1.285   .     A
C675   C692    1.402   .     A
C675   H697    1.082   .     S
C675   C261    1.387   1_556 S
C676   H698    1.082   .     S
C676   C691    1.402   .     A
C677   C822    1.335   .     S
C677   H843    1.088   .     S
C679   O709    1.295   .     A
C679   C684    1.418   .     S
C679   O707    1.291   .     A
C680   C683    1.418   .     S
C680   O710    1.295   .     A
C680   O708    1.291   .     A
C681   Br713   1.938   .     S
C681   C683    1.396   .     A
C681   C691    1.397   .     A
C682   Br714   1.938   .     S
C682   C684    1.396   .     A
C682   C692    1.397   .     A
C683   C685    1.386   .     A
C684   C686    1.386   .     A
C685   C687    1.388   .     A
C685   H695    1.085   .     S
C686   C688    1.388   .     A
C686   H696    1.085   .     S
C687   C693    1.409   .     A
C687   C689    1.418   .     A
C688   C690    1.418   .     A
C688   C694    1.409   .     A
C689   C691    1.420   .     A
C690   C692    1.420   .     A
C690   C257    1.399   1_556 S
C693   C715    1.447   .     S
C694   C717    1.447   .     S
C694   C244    1.387   1_556 S
H700   C822    1.088   .     S
N701   Zn712   2.038   .     S
N701   N606    1.279   1_655 S
N701   Br623   1.873   1_655 S
N702   Zn711   2.038   .     S
O703   Zn711   1.953   .     S
O704   Zn712   1.953   .     S
O705   Zn712   1.971   .     S
O706   Zn711   1.971   .     S
O707   Zn711   1.999   .     S
O708   Zn712   1.999   .     S
O709   Zn712   2.011   .     S
O710   Zn711   2.011   .     S
C715   N860    1.157   .     S
N718   C861    1.157   .     S
Br720  N606    1.873   1_655 S
C721   O751    1.285   .     A
C721   O753    1.293   .     A
C721   C725    1.399   .     S
C722   O754    1.293   .     A
C722   C726    1.399   .     S
C722   O752    1.285   .     A
C723   C740    1.402   .     A
C723   H745    1.082   .     S
C723   C309    1.387   1_556 S
C724   H746    1.082   .     S
C724   C739    1.402   .     A
C725   C438    1.335   1_565 S
C725   H459    1.088   1_565 S
C727   O757    1.295   .     A
C727   C732    1.418   .     S
C727   O755    1.291   .     A
C728   C731    1.418   .     S
C728   O758    1.295   .     A
C728   O756    1.291   .     A
C729   Br761   1.938   .     S
C729   C731    1.396   .     A
C729   C739    1.397   .     A
C730   Br762   1.938   .     S
C730   C732    1.396   .     A
C730   C740    1.397   .     A
C731   C733    1.386   .     A
C732   C734    1.386   .     A
C733   C735    1.388   .     A
C733   H743    1.085   .     S
C734   C736    1.388   .     A
C734   H744    1.085   .     S
C735   C741    1.409   .     A
C735   C737    1.418   .     A
C736   C738    1.418   .     A
C736   C742    1.409   .     A
C737   C739    1.420   .     A
C738   C740    1.420   .     A
C738   C305    1.399   1_556 S
C741   C763    1.447   .     S
C742   C765    1.447   .     S
C742   C292    1.387   1_556 S
H748   C438    1.088   1_565 S
N749   Zn760   2.038   .     S
N749   N798    1.279   .     S
N749   Br815   1.873   .     S
N750   Zn759   2.038   .     S
N750   N845    1.279   1_455 S
N750   Br864   1.873   1_455 S
O751   Zn759   1.953   .     S
O752   Zn760   1.953   .     S
O753   Zn760   1.971   .     S
O754   Zn759   1.971   .     S
O755   Zn759   1.999   .     S
O756   Zn760   1.999   .     S
O757   Zn760   2.011   .     S
O758   Zn759   2.011   .     S
C763   N476    1.157   1_565 S
N766   C477    1.157   1_565 S
Br767  N845    1.873   1_455 S
Br768  N798    1.873   .     S
C769   O799    1.285   .     A
C769   O801    1.293   .     A
C769   C773    1.399   .     S
C770   O802    1.293   .     A
C770   C774    1.399   .     S
C770   O800    1.285   .     A
C771   C788    1.402   .     A
C771   H793    1.082   .     S
C771   C357    1.387   1_556 S
C772   H794    1.082   .     S
C772   C787    1.402   .     A
C773   C486    1.335   1_565 S
C773   H507    1.088   1_565 S
C775   O805    1.295   .     A
C775   C780    1.418   .     S
C775   O803    1.291   .     A
C776   C779    1.418   .     S
C776   O806    1.295   .     A
C776   O804    1.291   .     A
C777   Br809   1.938   .     S
C777   C779    1.396   .     A
C777   C787    1.397   .     A
C778   Br810   1.938   .     S
C778   C780    1.396   .     A
C778   C788    1.397   .     A
C779   C781    1.386   .     A
C780   C782    1.386   .     A
C781   C783    1.388   .     A
C781   H791    1.085   .     S
C782   C784    1.388   .     A
C782   H792    1.085   .     S
C783   C789    1.409   .     A
C783   C785    1.418   .     A
C784   C786    1.418   .     A
C784   C790    1.409   .     A
C785   C787    1.420   .     A
C786   C788    1.420   .     A
C786   C353    1.399   1_556 S
C789   C811    1.447   .     S
C790   C813    1.447   .     S
C790   C340    1.387   1_556 S
H796   C486    1.088   1_565 S
N797   Zn808   2.038   .     S
N797   N846    1.279   .     S
N797   Br863   1.873   .     S
N798   Zn807   2.038   .     S
O799   Zn807   1.953   .     S
O800   Zn808   1.953   .     S
O801   Zn808   1.971   .     S
O802   Zn807   1.971   .     S
O803   Zn807   1.999   .     S
O804   Zn808   1.999   .     S
O805   Zn808   2.011   .     S
O806   Zn807   2.011   .     S
C811   N524    1.157   1_565 S
N814   C525    1.157   1_565 S
Br816  N846    1.873   .     S
C817   O847    1.285   .     A
C817   O849    1.293   .     A
C817   C821    1.399   .     S
C818   O850    1.293   .     A
C818   C822    1.399   .     S
C818   O848    1.285   .     A
C819   C836    1.402   .     A
C819   H841    1.082   .     S
C819   C405    1.387   1_556 S
C820   H842    1.082   .     S
C820   C835    1.402   .     A
C821   C534    1.335   1_565 S
C821   H555    1.088   1_565 S
C823   O853    1.295   .     A
C823   C828    1.418   .     S
C823   O851    1.291   .     A
C824   C827    1.418   .     S
C824   O854    1.295   .     A
C824   O852    1.291   .     A
C825   Br857   1.938   .     S
C825   C827    1.396   .     A
C825   C835    1.397   .     A
C826   Br858   1.938   .     S
C826   C828    1.396   .     A
C826   C836    1.397   .     A
C827   C829    1.386   .     A
C828   C830    1.386   .     A
C829   C831    1.388   .     A
C829   H839    1.085   .     S
C830   C832    1.388   .     A
C830   H840    1.085   .     S
C831   C837    1.409   .     A
C831   C833    1.418   .     A
C832   C834    1.418   .     A
C832   C838    1.409   .     A
C833   C835    1.420   .     A
C834   C836    1.420   .     A
C834   C401    1.399   1_556 S
C837   C859    1.447   .     S
C838   C861    1.447   .     S
C838   C388    1.387   1_556 S
H844   C534    1.088   1_565 S
N845   Zn856   2.038   .     S
N845   N750    1.279   1_655 S
N845   Br767   1.873   1_655 S
N846   Zn855   2.038   .     S
O847   Zn855   1.953   .     S
O848   Zn856   1.953   .     S
O849   Zn856   1.971   .     S
O850   Zn855   1.971   .     S
O851   Zn855   1.999   .     S
O852   Zn856   1.999   .     S
O853   Zn856   2.011   .     S
O854   Zn855   2.011   .     S
C859   N572    1.157   1_565 S
N862   C573    1.157   1_565 S
Br864  N750    1.873   1_655 S
