data_str_m3_o10_o17_pcu_sym.112
_audit_creation_date              2020-01-03
_audit_creation_method            'Materials Studio'
_symmetry_space_group_name_H-M    'P1'
_symmetry_Int_Tables_number       1
_symmetry_cell_setting            triclinic
loop_
_symmetry_equiv_pos_as_xyz
  x,y,z
_cell_length_a                    23.5286
_cell_length_b                    25.7305
_cell_length_c                    29.7197
_cell_angle_alpha                 92.8342
_cell_angle_beta                  86.0466
_cell_angle_gamma                 93.2613
loop_
_atom_site_label
_atom_site_type_symbol
_atom_site_fract_x
_atom_site_fract_y
_atom_site_fract_z
_atom_site_U_iso_or_equiv
_atom_site_adp_type
_atom_site_occupancy
C1     C     0.18170   0.26476   0.24892   0.00000  Uiso   1.00
C2     C     0.18059   0.21529   0.40808   0.00000  Uiso   1.00
C3     C     0.16264   0.16505   0.11584   0.00000  Uiso   1.00
C4     C     0.16801   0.16850   0.38408   0.00000  Uiso   1.00
C5     C     0.18482   0.20907   0.09432   0.00000  Uiso   1.00
C6     C     0.14541   0.12416   0.40490   0.00000  Uiso   1.00
C7     C     0.17466   0.21419   0.04895   0.00000  Uiso   1.00
C8     C     0.13335   0.12651   0.45178   0.00000  Uiso   1.00
C9     C     0.15105   0.17013   0.02442   0.00000  Uiso   1.00
C10    C     0.15245   0.17118   0.47722   0.00000  Uiso   1.00
C11    C     0.12742   0.12496   0.04678   0.00000  Uiso   1.00
C12    C     0.15163   0.06857   0.25110   0.00000  Uiso   1.00
C13    C     0.17233   0.21714   0.45536   0.00000  Uiso   1.00
C14    C     0.18576   0.26229   0.02805   0.00000  Uiso   1.00
C15    C     0.10123   0.08649   0.47374   0.00000  Uiso   1.00
C16    C     0.23700   0.00819   0.04155   0.00000  Uiso   1.00
C17    C     0.25608   0.04074   0.08264   0.00000  Uiso   1.00
C18    C     0.01548   0.06883   0.44410   0.00000  Uiso   1.00
C19    C     0.31563   0.03082   0.41360   0.00000  Uiso   1.00
C20    C     0.17982   0.26405   0.48156   0.00000  Uiso   1.00
C21    C     0.10028   0.08390   0.02041   0.00000  Uiso   1.00
C22    C     0.18964   0.31920   0.24821   0.00000  Uiso   1.00
C23    C     0.14370   0.01414   0.25188   0.00000  Uiso   1.00
C24    C     0.16760   0.16816   0.33624   0.00000  Uiso   1.00
C25    C     0.16557   0.16498   0.16368   0.00000  Uiso   1.00
C26    C     0.13129   0.12461   0.09415   0.00000  Uiso   1.00
H27    H     0.23318   0.00250   0.24461   0.00000  Uiso   1.00
H28    H     0.09592   0.06862   0.37196   0.00000  Uiso   1.00
H29    H     0.22387   0.03599   0.01736   0.00000  Uiso   1.00
H30    H     0.27395   0.32008   0.02613   0.00000  Uiso   1.00
H31    H     0.28090   0.07642   0.07169   0.00000  Uiso   1.00
H32    H     0.21891   0.05332   0.10445   0.00000  Uiso   1.00
H33    H     0.28261   0.01779   0.10295   0.00000  Uiso   1.00
H34    H     0.01988   0.10717   0.42791   0.00000  Uiso   1.00
H35    H     0.32395   0.07330   0.47720   0.00000  Uiso   1.00
H36    H     0.30783   0.32620   0.42981   0.00000  Uiso   1.00
H37    H     0.27436   0.04711   0.40732   0.00000  Uiso   1.00
H38    H     0.10016   0.33084   0.25550   0.00000  Uiso   1.00
H39    H     0.00649   0.02431   0.38061   0.00000  Uiso   1.00
H40    H     0.13610   0.30900   0.44338   0.00000  Uiso   1.00
H41    H     0.20725   0.32595   0.44459   0.00000  Uiso   1.00
H42    H     0.03671   0.04849   0.06033   0.00000  Uiso   1.00
H43    H     0.09856   0.01469   0.05215   0.00000  Uiso   1.00
H44    H     0.33020   0.12867   0.17473   0.00000  Uiso   1.00
H45    H     0.32697   0.08186   0.21225   0.00000  Uiso   1.00
H46    H     0.00189   0.20498   0.32526   0.00000  Uiso   1.00
H47    H     0.00697   0.25170   0.28753   0.00000  Uiso   1.00
H48    H     0.12166   0.04873   0.11449   0.00000  Uiso   1.00
H49    H     0.06052   0.08437   0.12173   0.00000  Uiso   1.00
H50    H     0.17551   0.27005   0.36163   0.00000  Uiso   1.00
H51    H     0.24222   0.24966   0.36645   0.00000  Uiso   1.00
H52    H     0.25627   0.25726   0.10057   0.00000  Uiso   1.00
H53    H     0.19490   0.27961   0.12870   0.00000  Uiso   1.00
H54    H     0.15604   0.04615   0.39281   0.00000  Uiso   1.00
N55    N     0.31678   0.15265   0.23783   0.00000  Uiso   1.00
N56    N     0.32301   0.21421   0.29360   0.00000  Uiso   1.00
N57    N     0.01656   0.18068   0.26217   0.00000  Uiso   1.00
N58    N     0.10478   0.08486   0.12210   0.00000  Uiso   1.00
N59    N     0.20439   0.25972   0.38445   0.00000  Uiso   1.00
N60    N     0.21854   0.24715   0.11952   0.00000  Uiso   1.00
N61    N     0.13881   0.07677   0.37751   0.00000  Uiso   1.00
N62    N     0.17081   0.31330   0.46360   0.00000  Uiso   1.00
N63    N     0.07080   0.03847   0.03831   0.00000  Uiso   1.00
N64    N     0.01023   0.11954   0.20605   0.00000  Uiso   1.00
O65    O     0.12975   0.24619   0.25298   0.00000  Uiso   1.00
O66    O     0.06928   0.04920   0.44984   0.00000  Uiso   1.00
O67    O     0.20358   0.08714   0.24701   0.00000  Uiso   1.00
O68    O     0.22613   0.23721   0.24518   0.00000  Uiso   1.00
O69    O     0.10720   0.09613   0.25481   0.00000  Uiso   1.00
O70    O     0.11847   0.17117   0.31997   0.00000  Uiso   1.00
O71    O     0.21486   0.16216   0.18002   0.00000  Uiso   1.00
O72    O     0.21485   0.16219   0.31217   0.00000  Uiso   1.00
O73    O     0.11848   0.17115   0.18782   0.00000  Uiso   1.00
O74    O     0.18978   0.30798   0.05502   0.00000  Uiso   1.00
Zn75   Zn    0.10231   0.17266   0.25521   0.00000  Uiso   1.00
Zn76   Zn    0.23102   0.16067   0.24479   0.00000  Uiso   1.00
C77    C     0.51504   0.26476   0.24892   0.00000  Uiso   1.00
C78    C     0.51393   0.21529   0.40808   0.00000  Uiso   1.00
C79    C     0.49597   0.16505   0.11584   0.00000  Uiso   1.00
C80    C     0.50134   0.16850   0.38408   0.00000  Uiso   1.00
C81    C     0.51815   0.20907   0.09432   0.00000  Uiso   1.00
C82    C     0.47874   0.12416   0.40490   0.00000  Uiso   1.00
C83    C     0.50799   0.21419   0.04895   0.00000  Uiso   1.00
C84    C     0.46669   0.12651   0.45178   0.00000  Uiso   1.00
C85    C     0.48438   0.17013   0.02442   0.00000  Uiso   1.00
C86    C     0.48578   0.17118   0.47722   0.00000  Uiso   1.00
C87    C     0.46076   0.12496   0.04678   0.00000  Uiso   1.00
C88    C     0.48496   0.06857   0.25110   0.00000  Uiso   1.00
C89    C     0.50566   0.21714   0.45536   0.00000  Uiso   1.00
C90    C     0.51909   0.26229   0.02805   0.00000  Uiso   1.00
C91    C     0.43457   0.08649   0.47374   0.00000  Uiso   1.00
C92    C     0.57034   0.00819   0.04155   0.00000  Uiso   1.00
C93    C     0.58941   0.04074   0.08264   0.00000  Uiso   1.00
C94    C     0.34882   0.06883   0.44410   0.00000  Uiso   1.00
C95    C     0.64896   0.03082   0.41360   0.00000  Uiso   1.00
C96    C     0.51315   0.26405   0.48156   0.00000  Uiso   1.00
C97    C     0.43361   0.08390   0.02041   0.00000  Uiso   1.00
C98    C     0.52298   0.31920   0.24821   0.00000  Uiso   1.00
C99    C     0.47703   0.01414   0.25188   0.00000  Uiso   1.00
C100   C     0.50094   0.16816   0.33624   0.00000  Uiso   1.00
C101   C     0.49890   0.16498   0.16368   0.00000  Uiso   1.00
C102   C     0.46463   0.12461   0.09415   0.00000  Uiso   1.00
H103   H     0.56651   0.00250   0.24461   0.00000  Uiso   1.00
H104   H     0.42925   0.06862   0.37196   0.00000  Uiso   1.00
H105   H     0.55720   0.03599   0.01736   0.00000  Uiso   1.00
H106   H     0.60728   0.32008   0.02613   0.00000  Uiso   1.00
H107   H     0.61423   0.07642   0.07169   0.00000  Uiso   1.00
H108   H     0.55224   0.05332   0.10445   0.00000  Uiso   1.00
H109   H     0.61594   0.01779   0.10295   0.00000  Uiso   1.00
H110   H     0.35321   0.10717   0.42791   0.00000  Uiso   1.00
H111   H     0.65728   0.07330   0.47720   0.00000  Uiso   1.00
H112   H     0.64116   0.32620   0.42981   0.00000  Uiso   1.00
H113   H     0.60769   0.04711   0.40732   0.00000  Uiso   1.00
H114   H     0.43350   0.33084   0.25550   0.00000  Uiso   1.00
H115   H     0.33982   0.02431   0.38061   0.00000  Uiso   1.00
H116   H     0.46943   0.30900   0.44338   0.00000  Uiso   1.00
H117   H     0.54059   0.32595   0.44459   0.00000  Uiso   1.00
H118   H     0.37004   0.04849   0.06033   0.00000  Uiso   1.00
H119   H     0.43189   0.01469   0.05215   0.00000  Uiso   1.00
H120   H     0.66353   0.12867   0.17473   0.00000  Uiso   1.00
H121   H     0.66030   0.08186   0.21225   0.00000  Uiso   1.00
H122   H     0.33522   0.20498   0.32526   0.00000  Uiso   1.00
H123   H     0.34031   0.25170   0.28753   0.00000  Uiso   1.00
H124   H     0.45500   0.04873   0.11449   0.00000  Uiso   1.00
H125   H     0.39386   0.08437   0.12173   0.00000  Uiso   1.00
H126   H     0.50885   0.27005   0.36163   0.00000  Uiso   1.00
H127   H     0.57555   0.24966   0.36645   0.00000  Uiso   1.00
H128   H     0.58960   0.25726   0.10057   0.00000  Uiso   1.00
H129   H     0.52824   0.27961   0.12870   0.00000  Uiso   1.00
H130   H     0.48937   0.04615   0.39281   0.00000  Uiso   1.00
N131   N     0.65011   0.15265   0.23783   0.00000  Uiso   1.00
N132   N     0.65634   0.21421   0.29360   0.00000  Uiso   1.00
N133   N     0.34989   0.18068   0.26217   0.00000  Uiso   1.00
N134   N     0.43811   0.08486   0.12210   0.00000  Uiso   1.00
N135   N     0.53772   0.25972   0.38445   0.00000  Uiso   1.00
N136   N     0.55188   0.24715   0.11952   0.00000  Uiso   1.00
N137   N     0.47214   0.07677   0.37751   0.00000  Uiso   1.00
N138   N     0.50414   0.31330   0.46360   0.00000  Uiso   1.00
N139   N     0.40413   0.03847   0.03831   0.00000  Uiso   1.00
N140   N     0.34357   0.11954   0.20605   0.00000  Uiso   1.00
O141   O     0.46308   0.24619   0.25298   0.00000  Uiso   1.00
O142   O     0.40261   0.04920   0.44984   0.00000  Uiso   1.00
O143   O     0.53692   0.08714   0.24701   0.00000  Uiso   1.00
O144   O     0.55946   0.23721   0.24518   0.00000  Uiso   1.00
O145   O     0.44054   0.09613   0.25481   0.00000  Uiso   1.00
O146   O     0.45181   0.17117   0.31997   0.00000  Uiso   1.00
O147   O     0.54819   0.16216   0.18002   0.00000  Uiso   1.00
O148   O     0.54819   0.16219   0.31217   0.00000  Uiso   1.00
O149   O     0.45181   0.17115   0.18782   0.00000  Uiso   1.00
O150   O     0.52312   0.30798   0.05502   0.00000  Uiso   1.00
Zn151  Zn    0.43565   0.17266   0.25521   0.00000  Uiso   1.00
Zn152  Zn    0.56435   0.16067   0.24479   0.00000  Uiso   1.00
C153   C     0.84837   0.26476   0.24892   0.00000  Uiso   1.00
C154   C     0.84726   0.21529   0.40808   0.00000  Uiso   1.00
C155   C     0.82931   0.16505   0.11584   0.00000  Uiso   1.00
C156   C     0.83467   0.16850   0.38408   0.00000  Uiso   1.00
C157   C     0.85148   0.20907   0.09432   0.00000  Uiso   1.00
C158   C     0.81208   0.12416   0.40490   0.00000  Uiso   1.00
C159   C     0.84133   0.21419   0.04895   0.00000  Uiso   1.00
C160   C     0.80002   0.12651   0.45178   0.00000  Uiso   1.00
C161   C     0.81771   0.17013   0.02442   0.00000  Uiso   1.00
C162   C     0.81912   0.17118   0.47722   0.00000  Uiso   1.00
C163   C     0.79409   0.12496   0.04678   0.00000  Uiso   1.00
C164   C     0.81830   0.06857   0.25110   0.00000  Uiso   1.00
C165   C     0.83900   0.21714   0.45536   0.00000  Uiso   1.00
C166   C     0.85243   0.26229   0.02805   0.00000  Uiso   1.00
C167   C     0.76790   0.08649   0.47374   0.00000  Uiso   1.00
C168   C     0.90367   0.00819   0.04155   0.00000  Uiso   1.00
C169   C     0.92275   0.04074   0.08264   0.00000  Uiso   1.00
C170   C     0.68215   0.06883   0.44410   0.00000  Uiso   1.00
C171   C     0.98229   0.03082   0.41360   0.00000  Uiso   1.00
C172   C     0.84648   0.26405   0.48156   0.00000  Uiso   1.00
C173   C     0.76694   0.08390   0.02041   0.00000  Uiso   1.00
C174   C     0.85631   0.31920   0.24821   0.00000  Uiso   1.00
C175   C     0.81036   0.01414   0.25188   0.00000  Uiso   1.00
C176   C     0.83427   0.16816   0.33624   0.00000  Uiso   1.00
C177   C     0.83224   0.16498   0.16368   0.00000  Uiso   1.00
C178   C     0.79796   0.12461   0.09415   0.00000  Uiso   1.00
H179   H     0.89984   0.00250   0.24461   0.00000  Uiso   1.00
H180   H     0.76258   0.06862   0.37196   0.00000  Uiso   1.00
H181   H     0.89054   0.03599   0.01736   0.00000  Uiso   1.00
H182   H     0.94061   0.32008   0.02613   0.00000  Uiso   1.00
H183   H     0.94756   0.07642   0.07169   0.00000  Uiso   1.00
H184   H     0.88558   0.05332   0.10445   0.00000  Uiso   1.00
H185   H     0.94927   0.01779   0.10295   0.00000  Uiso   1.00
H186   H     0.68655   0.10717   0.42791   0.00000  Uiso   1.00
H187   H     0.99062   0.07330   0.47720   0.00000  Uiso   1.00
H188   H     0.97450   0.32620   0.42981   0.00000  Uiso   1.00
H189   H     0.94103   0.04711   0.40732   0.00000  Uiso   1.00
H190   H     0.76683   0.33084   0.25550   0.00000  Uiso   1.00
H191   H     0.67315   0.02431   0.38061   0.00000  Uiso   1.00
H192   H     0.80277   0.30900   0.44338   0.00000  Uiso   1.00
H193   H     0.87392   0.32595   0.44459   0.00000  Uiso   1.00
H194   H     0.70337   0.04849   0.06033   0.00000  Uiso   1.00
H195   H     0.76523   0.01469   0.05215   0.00000  Uiso   1.00
H196   H     0.99686   0.12867   0.17473   0.00000  Uiso   1.00
H197   H     0.99363   0.08186   0.21225   0.00000  Uiso   1.00
H198   H     0.66856   0.20498   0.32526   0.00000  Uiso   1.00
H199   H     0.67364   0.25170   0.28753   0.00000  Uiso   1.00
H200   H     0.78833   0.04873   0.11449   0.00000  Uiso   1.00
H201   H     0.72719   0.08437   0.12173   0.00000  Uiso   1.00
H202   H     0.84218   0.27005   0.36163   0.00000  Uiso   1.00
H203   H     0.90888   0.24966   0.36645   0.00000  Uiso   1.00
H204   H     0.92293   0.25726   0.10057   0.00000  Uiso   1.00
H205   H     0.86157   0.27961   0.12870   0.00000  Uiso   1.00
H206   H     0.82271   0.04615   0.39281   0.00000  Uiso   1.00
N207   N     0.98344   0.15265   0.23783   0.00000  Uiso   1.00
N208   N     0.98968   0.21421   0.29360   0.00000  Uiso   1.00
N209   N     0.68322   0.18068   0.26217   0.00000  Uiso   1.00
N210   N     0.77144   0.08486   0.12210   0.00000  Uiso   1.00
N211   N     0.87105   0.25972   0.38445   0.00000  Uiso   1.00
N212   N     0.88521   0.24715   0.11952   0.00000  Uiso   1.00
N213   N     0.80547   0.07677   0.37751   0.00000  Uiso   1.00
N214   N     0.83747   0.31330   0.46360   0.00000  Uiso   1.00
N215   N     0.73747   0.03847   0.03831   0.00000  Uiso   1.00
N216   N     0.67690   0.11954   0.20605   0.00000  Uiso   1.00
O217   O     0.79642   0.24619   0.25298   0.00000  Uiso   1.00
O218   O     0.73594   0.04920   0.44984   0.00000  Uiso   1.00
O219   O     0.87025   0.08714   0.24701   0.00000  Uiso   1.00
O220   O     0.89280   0.23721   0.24518   0.00000  Uiso   1.00
O221   O     0.77387   0.09613   0.25481   0.00000  Uiso   1.00
O222   O     0.78514   0.17117   0.31997   0.00000  Uiso   1.00
O223   O     0.88153   0.16216   0.18002   0.00000  Uiso   1.00
O224   O     0.88152   0.16219   0.31217   0.00000  Uiso   1.00
O225   O     0.78515   0.17115   0.18782   0.00000  Uiso   1.00
O226   O     0.85645   0.30798   0.05502   0.00000  Uiso   1.00
Zn227  Zn    0.76898   0.17266   0.25521   0.00000  Uiso   1.00
Zn228  Zn    0.89769   0.16067   0.24479   0.00000  Uiso   1.00
C229   C     0.18170   0.59809   0.24892   0.00000  Uiso   1.00
C230   C     0.18059   0.54863   0.40808   0.00000  Uiso   1.00
C231   C     0.16264   0.49839   0.11584   0.00000  Uiso   1.00
C232   C     0.16801   0.50183   0.38408   0.00000  Uiso   1.00
C233   C     0.18482   0.54240   0.09432   0.00000  Uiso   1.00
C234   C     0.14541   0.45749   0.40490   0.00000  Uiso   1.00
C235   C     0.17466   0.54752   0.04895   0.00000  Uiso   1.00
C236   C     0.13335   0.45984   0.45178   0.00000  Uiso   1.00
C237   C     0.15105   0.50347   0.02442   0.00000  Uiso   1.00
C238   C     0.15245   0.50451   0.47722   0.00000  Uiso   1.00
C239   C     0.12742   0.45829   0.04678   0.00000  Uiso   1.00
C240   C     0.15163   0.40191   0.25110   0.00000  Uiso   1.00
C241   C     0.17233   0.55048   0.45536   0.00000  Uiso   1.00
C242   C     0.18576   0.59562   0.02805   0.00000  Uiso   1.00
C243   C     0.10123   0.41983   0.47374   0.00000  Uiso   1.00
C244   C     0.23700   0.34153   0.04155   0.00000  Uiso   1.00
C245   C     0.25608   0.37408   0.08264   0.00000  Uiso   1.00
C246   C     0.01548   0.40217   0.44410   0.00000  Uiso   1.00
C247   C     0.31563   0.36415   0.41360   0.00000  Uiso   1.00
C248   C     0.17982   0.59738   0.48156   0.00000  Uiso   1.00
C249   C     0.10028   0.41724   0.02041   0.00000  Uiso   1.00
C250   C     0.18964   0.65253   0.24821   0.00000  Uiso   1.00
C251   C     0.14370   0.34747   0.25188   0.00000  Uiso   1.00
C252   C     0.16760   0.50150   0.33624   0.00000  Uiso   1.00
C253   C     0.16557   0.49832   0.16368   0.00000  Uiso   1.00
C254   C     0.13129   0.45795   0.09415   0.00000  Uiso   1.00
H255   H     0.23318   0.33584   0.24461   0.00000  Uiso   1.00
H256   H     0.09592   0.40195   0.37196   0.00000  Uiso   1.00
H257   H     0.22387   0.36932   0.01736   0.00000  Uiso   1.00
H258   H     0.27395   0.65342   0.02613   0.00000  Uiso   1.00
H259   H     0.28090   0.40975   0.07169   0.00000  Uiso   1.00
H260   H     0.21891   0.38665   0.10445   0.00000  Uiso   1.00
H261   H     0.28261   0.35112   0.10295   0.00000  Uiso   1.00
H262   H     0.01988   0.44051   0.42791   0.00000  Uiso   1.00
H263   H     0.32395   0.40664   0.47720   0.00000  Uiso   1.00
H264   H     0.30783   0.65954   0.42981   0.00000  Uiso   1.00
H265   H     0.27436   0.38044   0.40732   0.00000  Uiso   1.00
H266   H     0.10016   0.66417   0.25550   0.00000  Uiso   1.00
H267   H     0.00649   0.35764   0.38061   0.00000  Uiso   1.00
H268   H     0.13610   0.64234   0.44338   0.00000  Uiso   1.00
H269   H     0.20725   0.65928   0.44459   0.00000  Uiso   1.00
H270   H     0.03671   0.38182   0.06033   0.00000  Uiso   1.00
H271   H     0.09856   0.34802   0.05215   0.00000  Uiso   1.00
H272   H     0.33020   0.46200   0.17473   0.00000  Uiso   1.00
H273   H     0.32697   0.41519   0.21225   0.00000  Uiso   1.00
H274   H     0.00189   0.53831   0.32526   0.00000  Uiso   1.00
H275   H     0.00697   0.58503   0.28753   0.00000  Uiso   1.00
H276   H     0.12166   0.38206   0.11449   0.00000  Uiso   1.00
H277   H     0.06052   0.41771   0.12173   0.00000  Uiso   1.00
H278   H     0.17551   0.60338   0.36163   0.00000  Uiso   1.00
H279   H     0.24222   0.58300   0.36645   0.00000  Uiso   1.00
H280   H     0.25627   0.59059   0.10057   0.00000  Uiso   1.00
H281   H     0.19490   0.61294   0.12870   0.00000  Uiso   1.00
H282   H     0.15604   0.37949   0.39281   0.00000  Uiso   1.00
N283   N     0.31678   0.48598   0.23783   0.00000  Uiso   1.00
N284   N     0.32301   0.54754   0.29360   0.00000  Uiso   1.00
N285   N     0.01656   0.51402   0.26217   0.00000  Uiso   1.00
N286   N     0.10478   0.41820   0.12210   0.00000  Uiso   1.00
N287   N     0.20439   0.59306   0.38445   0.00000  Uiso   1.00
N288   N     0.21854   0.58048   0.11952   0.00000  Uiso   1.00
N289   N     0.13881   0.41010   0.37751   0.00000  Uiso   1.00
N290   N     0.17081   0.64663   0.46360   0.00000  Uiso   1.00
N291   N     0.07080   0.37180   0.03831   0.00000  Uiso   1.00
N292   N     0.01023   0.45288   0.20605   0.00000  Uiso   1.00
O293   O     0.12975   0.57952   0.25298   0.00000  Uiso   1.00
O294   O     0.06928   0.38253   0.44984   0.00000  Uiso   1.00
O295   O     0.20358   0.42048   0.24701   0.00000  Uiso   1.00
O296   O     0.22613   0.57054   0.24518   0.00000  Uiso   1.00
O297   O     0.10720   0.42946   0.25481   0.00000  Uiso   1.00
O298   O     0.11847   0.50450   0.31997   0.00000  Uiso   1.00
O299   O     0.21486   0.49550   0.18002   0.00000  Uiso   1.00
O300   O     0.21485   0.49552   0.31217   0.00000  Uiso   1.00
O301   O     0.11848   0.50448   0.18782   0.00000  Uiso   1.00
O302   O     0.18978   0.64132   0.05502   0.00000  Uiso   1.00
Zn303  Zn    0.10231   0.50600   0.25521   0.00000  Uiso   1.00
Zn304  Zn    0.23102   0.49400   0.24479   0.00000  Uiso   1.00
C305   C     0.51504   0.59809   0.24892   0.00000  Uiso   1.00
C306   C     0.51393   0.54863   0.40808   0.00000  Uiso   1.00
C307   C     0.49597   0.49839   0.11584   0.00000  Uiso   1.00
C308   C     0.50134   0.50183   0.38408   0.00000  Uiso   1.00
C309   C     0.51815   0.54240   0.09432   0.00000  Uiso   1.00
C310   C     0.47874   0.45749   0.40490   0.00000  Uiso   1.00
C311   C     0.50799   0.54752   0.04895   0.00000  Uiso   1.00
C312   C     0.46669   0.45984   0.45178   0.00000  Uiso   1.00
C313   C     0.48438   0.50347   0.02442   0.00000  Uiso   1.00
C314   C     0.48578   0.50451   0.47722   0.00000  Uiso   1.00
C315   C     0.46076   0.45829   0.04678   0.00000  Uiso   1.00
C316   C     0.48496   0.40191   0.25110   0.00000  Uiso   1.00
C317   C     0.50566   0.55048   0.45536   0.00000  Uiso   1.00
C318   C     0.51909   0.59562   0.02805   0.00000  Uiso   1.00
C319   C     0.43457   0.41983   0.47374   0.00000  Uiso   1.00
C320   C     0.57034   0.34153   0.04155   0.00000  Uiso   1.00
C321   C     0.58941   0.37408   0.08264   0.00000  Uiso   1.00
C322   C     0.34882   0.40217   0.44410   0.00000  Uiso   1.00
C323   C     0.64896   0.36415   0.41360   0.00000  Uiso   1.00
C324   C     0.51315   0.59738   0.48156   0.00000  Uiso   1.00
C325   C     0.43361   0.41724   0.02041   0.00000  Uiso   1.00
C326   C     0.52298   0.65253   0.24821   0.00000  Uiso   1.00
C327   C     0.47703   0.34747   0.25188   0.00000  Uiso   1.00
C328   C     0.50094   0.50150   0.33624   0.00000  Uiso   1.00
C329   C     0.49890   0.49832   0.16368   0.00000  Uiso   1.00
C330   C     0.46463   0.45795   0.09415   0.00000  Uiso   1.00
H331   H     0.56651   0.33584   0.24461   0.00000  Uiso   1.00
H332   H     0.42925   0.40195   0.37196   0.00000  Uiso   1.00
H333   H     0.55720   0.36932   0.01736   0.00000  Uiso   1.00
H334   H     0.60728   0.65342   0.02613   0.00000  Uiso   1.00
H335   H     0.61423   0.40975   0.07169   0.00000  Uiso   1.00
H336   H     0.55224   0.38665   0.10445   0.00000  Uiso   1.00
H337   H     0.61594   0.35112   0.10295   0.00000  Uiso   1.00
H338   H     0.35321   0.44051   0.42791   0.00000  Uiso   1.00
H339   H     0.65728   0.40664   0.47720   0.00000  Uiso   1.00
H340   H     0.64116   0.65954   0.42981   0.00000  Uiso   1.00
H341   H     0.60769   0.38044   0.40732   0.00000  Uiso   1.00
H342   H     0.43350   0.66417   0.25550   0.00000  Uiso   1.00
H343   H     0.33982   0.35764   0.38061   0.00000  Uiso   1.00
H344   H     0.46943   0.64234   0.44338   0.00000  Uiso   1.00
H345   H     0.54059   0.65928   0.44459   0.00000  Uiso   1.00
H346   H     0.37004   0.38182   0.06033   0.00000  Uiso   1.00
H347   H     0.43189   0.34802   0.05215   0.00000  Uiso   1.00
H348   H     0.66353   0.46200   0.17473   0.00000  Uiso   1.00
H349   H     0.66030   0.41519   0.21225   0.00000  Uiso   1.00
H350   H     0.33522   0.53831   0.32526   0.00000  Uiso   1.00
H351   H     0.34031   0.58503   0.28753   0.00000  Uiso   1.00
H352   H     0.45500   0.38206   0.11449   0.00000  Uiso   1.00
H353   H     0.39386   0.41771   0.12173   0.00000  Uiso   1.00
H354   H     0.50885   0.60338   0.36163   0.00000  Uiso   1.00
H355   H     0.57555   0.58300   0.36645   0.00000  Uiso   1.00
H356   H     0.58960   0.59059   0.10057   0.00000  Uiso   1.00
H357   H     0.52824   0.61294   0.12870   0.00000  Uiso   1.00
H358   H     0.48937   0.37949   0.39281   0.00000  Uiso   1.00
N359   N     0.65011   0.48598   0.23783   0.00000  Uiso   1.00
N360   N     0.65634   0.54754   0.29360   0.00000  Uiso   1.00
N361   N     0.34989   0.51402   0.26217   0.00000  Uiso   1.00
N362   N     0.43811   0.41820   0.12210   0.00000  Uiso   1.00
N363   N     0.53772   0.59306   0.38445   0.00000  Uiso   1.00
N364   N     0.55188   0.58048   0.11952   0.00000  Uiso   1.00
N365   N     0.47214   0.41010   0.37751   0.00000  Uiso   1.00
N366   N     0.50414   0.64663   0.46360   0.00000  Uiso   1.00
N367   N     0.40413   0.37180   0.03831   0.00000  Uiso   1.00
N368   N     0.34357   0.45288   0.20605   0.00000  Uiso   1.00
O369   O     0.46308   0.57952   0.25298   0.00000  Uiso   1.00
O370   O     0.40261   0.38253   0.44984   0.00000  Uiso   1.00
O371   O     0.53692   0.42048   0.24701   0.00000  Uiso   1.00
O372   O     0.55946   0.57054   0.24518   0.00000  Uiso   1.00
O373   O     0.44054   0.42946   0.25481   0.00000  Uiso   1.00
O374   O     0.45181   0.50450   0.31997   0.00000  Uiso   1.00
O375   O     0.54819   0.49550   0.18002   0.00000  Uiso   1.00
O376   O     0.54819   0.49552   0.31217   0.00000  Uiso   1.00
O377   O     0.45181   0.50448   0.18782   0.00000  Uiso   1.00
O378   O     0.52312   0.64132   0.05502   0.00000  Uiso   1.00
Zn379  Zn    0.43565   0.50600   0.25521   0.00000  Uiso   1.00
Zn380  Zn    0.56435   0.49400   0.24479   0.00000  Uiso   1.00
C381   C     0.84837   0.59809   0.24892   0.00000  Uiso   1.00
C382   C     0.84726   0.54863   0.40808   0.00000  Uiso   1.00
C383   C     0.82931   0.49839   0.11584   0.00000  Uiso   1.00
C384   C     0.83467   0.50183   0.38408   0.00000  Uiso   1.00
C385   C     0.85148   0.54240   0.09432   0.00000  Uiso   1.00
C386   C     0.81208   0.45749   0.40490   0.00000  Uiso   1.00
C387   C     0.84133   0.54752   0.04895   0.00000  Uiso   1.00
C388   C     0.80002   0.45984   0.45178   0.00000  Uiso   1.00
C389   C     0.81771   0.50347   0.02442   0.00000  Uiso   1.00
C390   C     0.81912   0.50451   0.47722   0.00000  Uiso   1.00
C391   C     0.79409   0.45829   0.04678   0.00000  Uiso   1.00
C392   C     0.81830   0.40191   0.25110   0.00000  Uiso   1.00
C393   C     0.83900   0.55048   0.45536   0.00000  Uiso   1.00
C394   C     0.85243   0.59562   0.02805   0.00000  Uiso   1.00
C395   C     0.76790   0.41983   0.47374   0.00000  Uiso   1.00
C396   C     0.90367   0.34153   0.04155   0.00000  Uiso   1.00
C397   C     0.92275   0.37408   0.08264   0.00000  Uiso   1.00
C398   C     0.68215   0.40217   0.44410   0.00000  Uiso   1.00
C399   C     0.98229   0.36415   0.41360   0.00000  Uiso   1.00
C400   C     0.84648   0.59738   0.48156   0.00000  Uiso   1.00
C401   C     0.76694   0.41724   0.02041   0.00000  Uiso   1.00
C402   C     0.85631   0.65253   0.24821   0.00000  Uiso   1.00
C403   C     0.81036   0.34747   0.25188   0.00000  Uiso   1.00
C404   C     0.83427   0.50150   0.33624   0.00000  Uiso   1.00
C405   C     0.83224   0.49832   0.16368   0.00000  Uiso   1.00
C406   C     0.79796   0.45795   0.09415   0.00000  Uiso   1.00
H407   H     0.89984   0.33584   0.24461   0.00000  Uiso   1.00
H408   H     0.76258   0.40195   0.37196   0.00000  Uiso   1.00
H409   H     0.89054   0.36932   0.01736   0.00000  Uiso   1.00
H410   H     0.94061   0.65342   0.02613   0.00000  Uiso   1.00
H411   H     0.94756   0.40975   0.07169   0.00000  Uiso   1.00
H412   H     0.88558   0.38665   0.10445   0.00000  Uiso   1.00
H413   H     0.94927   0.35112   0.10295   0.00000  Uiso   1.00
H414   H     0.68655   0.44051   0.42791   0.00000  Uiso   1.00
H415   H     0.99062   0.40664   0.47720   0.00000  Uiso   1.00
H416   H     0.97450   0.65954   0.42981   0.00000  Uiso   1.00
H417   H     0.94103   0.38044   0.40732   0.00000  Uiso   1.00
H418   H     0.76683   0.66417   0.25550   0.00000  Uiso   1.00
H419   H     0.67315   0.35764   0.38061   0.00000  Uiso   1.00
H420   H     0.80277   0.64234   0.44338   0.00000  Uiso   1.00
H421   H     0.87392   0.65928   0.44459   0.00000  Uiso   1.00
H422   H     0.70337   0.38182   0.06033   0.00000  Uiso   1.00
H423   H     0.76523   0.34802   0.05215   0.00000  Uiso   1.00
H424   H     0.99686   0.46200   0.17473   0.00000  Uiso   1.00
H425   H     0.99363   0.41519   0.21225   0.00000  Uiso   1.00
H426   H     0.66856   0.53831   0.32526   0.00000  Uiso   1.00
H427   H     0.67364   0.58503   0.28753   0.00000  Uiso   1.00
H428   H     0.78833   0.38206   0.11449   0.00000  Uiso   1.00
H429   H     0.72719   0.41771   0.12173   0.00000  Uiso   1.00
H430   H     0.84218   0.60338   0.36163   0.00000  Uiso   1.00
H431   H     0.90888   0.58300   0.36645   0.00000  Uiso   1.00
H432   H     0.92293   0.59059   0.10057   0.00000  Uiso   1.00
H433   H     0.86157   0.61294   0.12870   0.00000  Uiso   1.00
H434   H     0.82271   0.37949   0.39281   0.00000  Uiso   1.00
N435   N     0.98344   0.48598   0.23783   0.00000  Uiso   1.00
N436   N     0.98968   0.54754   0.29360   0.00000  Uiso   1.00
N437   N     0.68322   0.51402   0.26217   0.00000  Uiso   1.00
N438   N     0.77144   0.41820   0.12210   0.00000  Uiso   1.00
N439   N     0.87105   0.59306   0.38445   0.00000  Uiso   1.00
N440   N     0.88521   0.58048   0.11952   0.00000  Uiso   1.00
N441   N     0.80547   0.41010   0.37751   0.00000  Uiso   1.00
N442   N     0.83747   0.64663   0.46360   0.00000  Uiso   1.00
N443   N     0.73747   0.37180   0.03831   0.00000  Uiso   1.00
N444   N     0.67690   0.45288   0.20605   0.00000  Uiso   1.00
O445   O     0.79642   0.57952   0.25298   0.00000  Uiso   1.00
O446   O     0.73594   0.38253   0.44984   0.00000  Uiso   1.00
O447   O     0.87025   0.42048   0.24701   0.00000  Uiso   1.00
O448   O     0.89280   0.57054   0.24518   0.00000  Uiso   1.00
O449   O     0.77387   0.42946   0.25481   0.00000  Uiso   1.00
O450   O     0.78514   0.50450   0.31997   0.00000  Uiso   1.00
O451   O     0.88153   0.49550   0.18002   0.00000  Uiso   1.00
O452   O     0.88152   0.49552   0.31217   0.00000  Uiso   1.00
O453   O     0.78515   0.50448   0.18782   0.00000  Uiso   1.00
O454   O     0.85645   0.64132   0.05502   0.00000  Uiso   1.00
Zn455  Zn    0.76898   0.50600   0.25521   0.00000  Uiso   1.00
Zn456  Zn    0.89769   0.49400   0.24479   0.00000  Uiso   1.00
C457   C     0.18170   0.93143   0.24892   0.00000  Uiso   1.00
C458   C     0.18059   0.88196   0.40808   0.00000  Uiso   1.00
C459   C     0.16264   0.83172   0.11584   0.00000  Uiso   1.00
C460   C     0.16801   0.83517   0.38408   0.00000  Uiso   1.00
C461   C     0.18482   0.87573   0.09432   0.00000  Uiso   1.00
C462   C     0.14541   0.79083   0.40490   0.00000  Uiso   1.00
C463   C     0.17466   0.88085   0.04895   0.00000  Uiso   1.00
C464   C     0.13335   0.79318   0.45178   0.00000  Uiso   1.00
C465   C     0.15105   0.83680   0.02442   0.00000  Uiso   1.00
C466   C     0.15245   0.83784   0.47722   0.00000  Uiso   1.00
C467   C     0.12742   0.79162   0.04678   0.00000  Uiso   1.00
C468   C     0.15163   0.73524   0.25110   0.00000  Uiso   1.00
C469   C     0.17233   0.88381   0.45536   0.00000  Uiso   1.00
C470   C     0.18576   0.92896   0.02805   0.00000  Uiso   1.00
C471   C     0.10123   0.75316   0.47374   0.00000  Uiso   1.00
C472   C     0.23700   0.67486   0.04155   0.00000  Uiso   1.00
C473   C     0.25608   0.70741   0.08264   0.00000  Uiso   1.00
C474   C     0.01548   0.73550   0.44410   0.00000  Uiso   1.00
C475   C     0.31563   0.69749   0.41360   0.00000  Uiso   1.00
C476   C     0.17982   0.93072   0.48156   0.00000  Uiso   1.00
C477   C     0.10028   0.75057   0.02041   0.00000  Uiso   1.00
C478   C     0.18964   0.98586   0.24821   0.00000  Uiso   1.00
C479   C     0.14370   0.68081   0.25188   0.00000  Uiso   1.00
C480   C     0.16760   0.83483   0.33624   0.00000  Uiso   1.00
C481   C     0.16557   0.83165   0.16368   0.00000  Uiso   1.00
C482   C     0.13129   0.79128   0.09415   0.00000  Uiso   1.00
H483   H     0.23318   0.66917   0.24461   0.00000  Uiso   1.00
H484   H     0.09592   0.73528   0.37196   0.00000  Uiso   1.00
H485   H     0.22387   0.70266   0.01736   0.00000  Uiso   1.00
H486   H     0.27395   0.98675   0.02613   0.00000  Uiso   1.00
H487   H     0.28090   0.74308   0.07169   0.00000  Uiso   1.00
H488   H     0.21891   0.71999   0.10445   0.00000  Uiso   1.00
H489   H     0.28261   0.68446   0.10295   0.00000  Uiso   1.00
H490   H     0.01988   0.77384   0.42791   0.00000  Uiso   1.00
H491   H     0.32395   0.73997   0.47720   0.00000  Uiso   1.00
H492   H     0.30783   0.99287   0.42981   0.00000  Uiso   1.00
H493   H     0.27436   0.71377   0.40732   0.00000  Uiso   1.00
H494   H     0.10016   0.99750   0.25550   0.00000  Uiso   1.00
H495   H     0.00649   0.69097   0.38061   0.00000  Uiso   1.00
H496   H     0.13610   0.97567   0.44338   0.00000  Uiso   1.00
H497   H     0.20725   0.99261   0.44459   0.00000  Uiso   1.00
H498   H     0.03671   0.71516   0.06033   0.00000  Uiso   1.00
H499   H     0.09856   0.68136   0.05215   0.00000  Uiso   1.00
H500   H     0.33020   0.79534   0.17473   0.00000  Uiso   1.00
H501   H     0.32697   0.74852   0.21225   0.00000  Uiso   1.00
H502   H     0.00189   0.87164   0.32526   0.00000  Uiso   1.00
H503   H     0.00697   0.91837   0.28753   0.00000  Uiso   1.00
H504   H     0.12166   0.71539   0.11449   0.00000  Uiso   1.00
H505   H     0.06052   0.75104   0.12173   0.00000  Uiso   1.00
H506   H     0.17551   0.93672   0.36163   0.00000  Uiso   1.00
H507   H     0.24222   0.91633   0.36645   0.00000  Uiso   1.00
H508   H     0.25627   0.92393   0.10057   0.00000  Uiso   1.00
H509   H     0.19490   0.94628   0.12870   0.00000  Uiso   1.00
H510   H     0.15604   0.71282   0.39281   0.00000  Uiso   1.00
N511   N     0.31678   0.81932   0.23783   0.00000  Uiso   1.00
N512   N     0.32301   0.88087   0.29360   0.00000  Uiso   1.00
N513   N     0.01656   0.84735   0.26217   0.00000  Uiso   1.00
N514   N     0.10478   0.75153   0.12210   0.00000  Uiso   1.00
N515   N     0.20439   0.92639   0.38445   0.00000  Uiso   1.00
N516   N     0.21854   0.91381   0.11952   0.00000  Uiso   1.00
N517   N     0.13881   0.74344   0.37751   0.00000  Uiso   1.00
N518   N     0.17081   0.97996   0.46360   0.00000  Uiso   1.00
N519   N     0.07080   0.70513   0.03831   0.00000  Uiso   1.00
N520   N     0.01023   0.78621   0.20605   0.00000  Uiso   1.00
O521   O     0.12975   0.91286   0.25298   0.00000  Uiso   1.00
O522   O     0.06928   0.71587   0.44984   0.00000  Uiso   1.00
O523   O     0.20358   0.75381   0.24701   0.00000  Uiso   1.00
O524   O     0.22613   0.90387   0.24518   0.00000  Uiso   1.00
O525   O     0.10720   0.76279   0.25481   0.00000  Uiso   1.00
O526   O     0.11847   0.83784   0.31997   0.00000  Uiso   1.00
O527   O     0.21486   0.82883   0.18002   0.00000  Uiso   1.00
O528   O     0.21485   0.82885   0.31217   0.00000  Uiso   1.00
O529   O     0.11848   0.83781   0.18782   0.00000  Uiso   1.00
O530   O     0.18978   0.97465   0.05502   0.00000  Uiso   1.00
Zn531  Zn    0.10231   0.83933   0.25521   0.00000  Uiso   1.00
Zn532  Zn    0.23102   0.82734   0.24479   0.00000  Uiso   1.00
C533   C     0.51504   0.93143   0.24892   0.00000  Uiso   1.00
C534   C     0.51393   0.88196   0.40808   0.00000  Uiso   1.00
C535   C     0.49597   0.83172   0.11584   0.00000  Uiso   1.00
C536   C     0.50134   0.83517   0.38408   0.00000  Uiso   1.00
C537   C     0.51815   0.87573   0.09432   0.00000  Uiso   1.00
C538   C     0.47874   0.79083   0.40490   0.00000  Uiso   1.00
C539   C     0.50799   0.88085   0.04895   0.00000  Uiso   1.00
C540   C     0.46669   0.79318   0.45178   0.00000  Uiso   1.00
C541   C     0.48438   0.83680   0.02442   0.00000  Uiso   1.00
C542   C     0.48578   0.83784   0.47722   0.00000  Uiso   1.00
C543   C     0.46076   0.79162   0.04678   0.00000  Uiso   1.00
C544   C     0.48496   0.73524   0.25110   0.00000  Uiso   1.00
C545   C     0.50566   0.88381   0.45536   0.00000  Uiso   1.00
C546   C     0.51909   0.92896   0.02805   0.00000  Uiso   1.00
C547   C     0.43457   0.75316   0.47374   0.00000  Uiso   1.00
C548   C     0.57034   0.67486   0.04155   0.00000  Uiso   1.00
C549   C     0.58941   0.70741   0.08264   0.00000  Uiso   1.00
C550   C     0.34882   0.73550   0.44410   0.00000  Uiso   1.00
C551   C     0.64896   0.69749   0.41360   0.00000  Uiso   1.00
C552   C     0.51315   0.93072   0.48156   0.00000  Uiso   1.00
C553   C     0.43361   0.75057   0.02041   0.00000  Uiso   1.00
C554   C     0.52298   0.98586   0.24821   0.00000  Uiso   1.00
C555   C     0.47703   0.68081   0.25188   0.00000  Uiso   1.00
C556   C     0.50094   0.83483   0.33624   0.00000  Uiso   1.00
C557   C     0.49890   0.83165   0.16368   0.00000  Uiso   1.00
C558   C     0.46463   0.79128   0.09415   0.00000  Uiso   1.00
H559   H     0.56651   0.66917   0.24461   0.00000  Uiso   1.00
H560   H     0.42925   0.73528   0.37196   0.00000  Uiso   1.00
H561   H     0.55720   0.70266   0.01736   0.00000  Uiso   1.00
H562   H     0.60728   0.98675   0.02613   0.00000  Uiso   1.00
H563   H     0.61423   0.74308   0.07169   0.00000  Uiso   1.00
H564   H     0.55224   0.71999   0.10445   0.00000  Uiso   1.00
H565   H     0.61594   0.68446   0.10295   0.00000  Uiso   1.00
H566   H     0.35321   0.77384   0.42791   0.00000  Uiso   1.00
H567   H     0.65728   0.73997   0.47720   0.00000  Uiso   1.00
H568   H     0.64116   0.99287   0.42981   0.00000  Uiso   1.00
H569   H     0.60769   0.71377   0.40732   0.00000  Uiso   1.00
H570   H     0.43350   0.99750   0.25550   0.00000  Uiso   1.00
H571   H     0.33982   0.69097   0.38061   0.00000  Uiso   1.00
H572   H     0.46943   0.97567   0.44338   0.00000  Uiso   1.00
H573   H     0.54059   0.99261   0.44459   0.00000  Uiso   1.00
H574   H     0.37004   0.71516   0.06033   0.00000  Uiso   1.00
H575   H     0.43189   0.68136   0.05215   0.00000  Uiso   1.00
H576   H     0.66353   0.79534   0.17473   0.00000  Uiso   1.00
H577   H     0.66030   0.74852   0.21225   0.00000  Uiso   1.00
H578   H     0.33522   0.87164   0.32526   0.00000  Uiso   1.00
H579   H     0.34031   0.91837   0.28753   0.00000  Uiso   1.00
H580   H     0.45500   0.71539   0.11449   0.00000  Uiso   1.00
H581   H     0.39386   0.75104   0.12173   0.00000  Uiso   1.00
H582   H     0.50885   0.93672   0.36163   0.00000  Uiso   1.00
H583   H     0.57555   0.91633   0.36645   0.00000  Uiso   1.00
H584   H     0.58960   0.92393   0.10057   0.00000  Uiso   1.00
H585   H     0.52824   0.94628   0.12870   0.00000  Uiso   1.00
H586   H     0.48937   0.71282   0.39281   0.00000  Uiso   1.00
N587   N     0.65011   0.81932   0.23783   0.00000  Uiso   1.00
N588   N     0.65634   0.88087   0.29360   0.00000  Uiso   1.00
N589   N     0.34989   0.84735   0.26217   0.00000  Uiso   1.00
N590   N     0.43811   0.75153   0.12210   0.00000  Uiso   1.00
N591   N     0.53772   0.92639   0.38445   0.00000  Uiso   1.00
N592   N     0.55188   0.91381   0.11952   0.00000  Uiso   1.00
N593   N     0.47214   0.74344   0.37751   0.00000  Uiso   1.00
N594   N     0.50414   0.97996   0.46360   0.00000  Uiso   1.00
N595   N     0.40413   0.70513   0.03831   0.00000  Uiso   1.00
N596   N     0.34357   0.78621   0.20605   0.00000  Uiso   1.00
O597   O     0.46308   0.91286   0.25298   0.00000  Uiso   1.00
O598   O     0.40261   0.71587   0.44984   0.00000  Uiso   1.00
O599   O     0.53692   0.75381   0.24701   0.00000  Uiso   1.00
O600   O     0.55946   0.90387   0.24518   0.00000  Uiso   1.00
O601   O     0.44054   0.76279   0.25481   0.00000  Uiso   1.00
O602   O     0.45181   0.83784   0.31997   0.00000  Uiso   1.00
O603   O     0.54819   0.82883   0.18002   0.00000  Uiso   1.00
O604   O     0.54819   0.82885   0.31217   0.00000  Uiso   1.00
O605   O     0.45181   0.83781   0.18782   0.00000  Uiso   1.00
O606   O     0.52312   0.97465   0.05502   0.00000  Uiso   1.00
Zn607  Zn    0.43565   0.83933   0.25521   0.00000  Uiso   1.00
Zn608  Zn    0.56435   0.82734   0.24479   0.00000  Uiso   1.00
C609   C     0.84837   0.93143   0.24892   0.00000  Uiso   1.00
C610   C     0.84726   0.88196   0.40808   0.00000  Uiso   1.00
C611   C     0.82931   0.83172   0.11584   0.00000  Uiso   1.00
C612   C     0.83467   0.83517   0.38408   0.00000  Uiso   1.00
C613   C     0.85148   0.87573   0.09432   0.00000  Uiso   1.00
C614   C     0.81208   0.79083   0.40490   0.00000  Uiso   1.00
C615   C     0.84133   0.88085   0.04895   0.00000  Uiso   1.00
C616   C     0.80002   0.79318   0.45178   0.00000  Uiso   1.00
C617   C     0.81771   0.83680   0.02442   0.00000  Uiso   1.00
C618   C     0.81912   0.83784   0.47722   0.00000  Uiso   1.00
C619   C     0.79409   0.79162   0.04678   0.00000  Uiso   1.00
C620   C     0.81830   0.73524   0.25110   0.00000  Uiso   1.00
C621   C     0.83900   0.88381   0.45536   0.00000  Uiso   1.00
C622   C     0.85243   0.92896   0.02805   0.00000  Uiso   1.00
C623   C     0.76790   0.75316   0.47374   0.00000  Uiso   1.00
C624   C     0.90367   0.67486   0.04155   0.00000  Uiso   1.00
C625   C     0.92275   0.70741   0.08264   0.00000  Uiso   1.00
C626   C     0.68215   0.73550   0.44410   0.00000  Uiso   1.00
C627   C     0.98229   0.69749   0.41360   0.00000  Uiso   1.00
C628   C     0.84648   0.93072   0.48156   0.00000  Uiso   1.00
C629   C     0.76694   0.75057   0.02041   0.00000  Uiso   1.00
C630   C     0.85631   0.98586   0.24821   0.00000  Uiso   1.00
C631   C     0.81036   0.68081   0.25188   0.00000  Uiso   1.00
C632   C     0.83427   0.83483   0.33624   0.00000  Uiso   1.00
C633   C     0.83224   0.83165   0.16368   0.00000  Uiso   1.00
C634   C     0.79796   0.79128   0.09415   0.00000  Uiso   1.00
H635   H     0.89984   0.66917   0.24461   0.00000  Uiso   1.00
H636   H     0.76258   0.73528   0.37196   0.00000  Uiso   1.00
H637   H     0.89054   0.70266   0.01736   0.00000  Uiso   1.00
H638   H     0.94061   0.98675   0.02613   0.00000  Uiso   1.00
H639   H     0.94756   0.74308   0.07169   0.00000  Uiso   1.00
H640   H     0.88558   0.71999   0.10445   0.00000  Uiso   1.00
H641   H     0.94927   0.68446   0.10295   0.00000  Uiso   1.00
H642   H     0.68655   0.77384   0.42791   0.00000  Uiso   1.00
H643   H     0.99062   0.73997   0.47720   0.00000  Uiso   1.00
H644   H     0.97450   0.99287   0.42981   0.00000  Uiso   1.00
H645   H     0.94103   0.71377   0.40732   0.00000  Uiso   1.00
H646   H     0.76683   0.99750   0.25550   0.00000  Uiso   1.00
H647   H     0.67315   0.69097   0.38061   0.00000  Uiso   1.00
H648   H     0.80277   0.97567   0.44338   0.00000  Uiso   1.00
H649   H     0.87392   0.99261   0.44459   0.00000  Uiso   1.00
H650   H     0.70337   0.71516   0.06033   0.00000  Uiso   1.00
H651   H     0.76523   0.68136   0.05215   0.00000  Uiso   1.00
H652   H     0.99686   0.79534   0.17473   0.00000  Uiso   1.00
H653   H     0.99363   0.74852   0.21225   0.00000  Uiso   1.00
H654   H     0.66856   0.87164   0.32526   0.00000  Uiso   1.00
H655   H     0.67364   0.91837   0.28753   0.00000  Uiso   1.00
H656   H     0.78833   0.71539   0.11449   0.00000  Uiso   1.00
H657   H     0.72719   0.75104   0.12173   0.00000  Uiso   1.00
H658   H     0.84218   0.93672   0.36163   0.00000  Uiso   1.00
H659   H     0.90888   0.91633   0.36645   0.00000  Uiso   1.00
H660   H     0.92293   0.92393   0.10057   0.00000  Uiso   1.00
H661   H     0.86157   0.94628   0.12870   0.00000  Uiso   1.00
H662   H     0.82271   0.71282   0.39281   0.00000  Uiso   1.00
N663   N     0.98344   0.81932   0.23783   0.00000  Uiso   1.00
N664   N     0.98968   0.88087   0.29360   0.00000  Uiso   1.00
N665   N     0.68322   0.84735   0.26217   0.00000  Uiso   1.00
N666   N     0.77144   0.75153   0.12210   0.00000  Uiso   1.00
N667   N     0.87105   0.92639   0.38445   0.00000  Uiso   1.00
N668   N     0.88521   0.91381   0.11952   0.00000  Uiso   1.00
N669   N     0.80547   0.74344   0.37751   0.00000  Uiso   1.00
N670   N     0.83747   0.97996   0.46360   0.00000  Uiso   1.00
N671   N     0.73747   0.70513   0.03831   0.00000  Uiso   1.00
N672   N     0.67690   0.78621   0.20605   0.00000  Uiso   1.00
O673   O     0.79642   0.91286   0.25298   0.00000  Uiso   1.00
O674   O     0.73594   0.71587   0.44984   0.00000  Uiso   1.00
O675   O     0.87025   0.75381   0.24701   0.00000  Uiso   1.00
O676   O     0.89280   0.90387   0.24518   0.00000  Uiso   1.00
O677   O     0.77387   0.76279   0.25481   0.00000  Uiso   1.00
O678   O     0.78514   0.83784   0.31997   0.00000  Uiso   1.00
O679   O     0.88153   0.82883   0.18002   0.00000  Uiso   1.00
O680   O     0.88152   0.82885   0.31217   0.00000  Uiso   1.00
O681   O     0.78515   0.83781   0.18782   0.00000  Uiso   1.00
O682   O     0.85645   0.97465   0.05502   0.00000  Uiso   1.00
Zn683  Zn    0.76898   0.83933   0.25521   0.00000  Uiso   1.00
Zn684  Zn    0.89769   0.82734   0.24479   0.00000  Uiso   1.00
C685   C     0.18170   0.26476   0.74892   0.00000  Uiso   1.00
C686   C     0.18059   0.21529   0.90808   0.00000  Uiso   1.00
C687   C     0.16264   0.16505   0.61584   0.00000  Uiso   1.00
C688   C     0.16801   0.16850   0.88408   0.00000  Uiso   1.00
C689   C     0.18482   0.20907   0.59432   0.00000  Uiso   1.00
C690   C     0.14541   0.12416   0.90490   0.00000  Uiso   1.00
C691   C     0.17466   0.21419   0.54895   0.00000  Uiso   1.00
C692   C     0.13335   0.12651   0.95178   0.00000  Uiso   1.00
C693   C     0.15105   0.17013   0.52442   0.00000  Uiso   1.00
C694   C     0.15245   0.17118   0.97722   0.00000  Uiso   1.00
C695   C     0.12742   0.12496   0.54678   0.00000  Uiso   1.00
C696   C     0.15163   0.06857   0.75110   0.00000  Uiso   1.00
C697   C     0.17233   0.21714   0.95536   0.00000  Uiso   1.00
C698   C     0.18576   0.26229   0.52805   0.00000  Uiso   1.00
C699   C     0.10123   0.08649   0.97374   0.00000  Uiso   1.00
C700   C     0.23700   0.00819   0.54155   0.00000  Uiso   1.00
C701   C     0.25608   0.04074   0.58264   0.00000  Uiso   1.00
C702   C     0.01548   0.06883   0.94410   0.00000  Uiso   1.00
C703   C     0.31563   0.03082   0.91360   0.00000  Uiso   1.00
C704   C     0.17982   0.26405   0.98156   0.00000  Uiso   1.00
C705   C     0.10028   0.08390   0.52041   0.00000  Uiso   1.00
C706   C     0.18964   0.31920   0.74821   0.00000  Uiso   1.00
C707   C     0.14370   0.01414   0.75188   0.00000  Uiso   1.00
C708   C     0.16760   0.16816   0.83624   0.00000  Uiso   1.00
C709   C     0.16557   0.16498   0.66368   0.00000  Uiso   1.00
C710   C     0.13129   0.12461   0.59415   0.00000  Uiso   1.00
H711   H     0.23318   0.00250   0.74461   0.00000  Uiso   1.00
H712   H     0.09592   0.06862   0.87196   0.00000  Uiso   1.00
H713   H     0.22387   0.03599   0.51736   0.00000  Uiso   1.00
H714   H     0.27395   0.32008   0.52613   0.00000  Uiso   1.00
H715   H     0.28090   0.07642   0.57169   0.00000  Uiso   1.00
H716   H     0.21891   0.05332   0.60445   0.00000  Uiso   1.00
H717   H     0.28261   0.01779   0.60295   0.00000  Uiso   1.00
H718   H     0.01988   0.10717   0.92791   0.00000  Uiso   1.00
H719   H     0.32395   0.07330   0.97720   0.00000  Uiso   1.00
H720   H     0.30783   0.32620   0.92981   0.00000  Uiso   1.00
H721   H     0.27436   0.04711   0.90732   0.00000  Uiso   1.00
H722   H     0.10016   0.33084   0.75550   0.00000  Uiso   1.00
H723   H     0.00649   0.02431   0.88061   0.00000  Uiso   1.00
H724   H     0.13610   0.30900   0.94338   0.00000  Uiso   1.00
H725   H     0.20725   0.32595   0.94459   0.00000  Uiso   1.00
H726   H     0.03671   0.04849   0.56033   0.00000  Uiso   1.00
H727   H     0.09856   0.01469   0.55215   0.00000  Uiso   1.00
H728   H     0.33020   0.12867   0.67473   0.00000  Uiso   1.00
H729   H     0.32697   0.08186   0.71225   0.00000  Uiso   1.00
H730   H     0.00189   0.20498   0.82526   0.00000  Uiso   1.00
H731   H     0.00697   0.25170   0.78753   0.00000  Uiso   1.00
H732   H     0.12166   0.04873   0.61449   0.00000  Uiso   1.00
H733   H     0.06052   0.08437   0.62173   0.00000  Uiso   1.00
H734   H     0.17551   0.27005   0.86163   0.00000  Uiso   1.00
H735   H     0.24222   0.24966   0.86645   0.00000  Uiso   1.00
H736   H     0.25627   0.25726   0.60057   0.00000  Uiso   1.00
H737   H     0.19490   0.27961   0.62870   0.00000  Uiso   1.00
H738   H     0.15604   0.04615   0.89281   0.00000  Uiso   1.00
N739   N     0.31678   0.15265   0.73783   0.00000  Uiso   1.00
N740   N     0.32301   0.21421   0.79360   0.00000  Uiso   1.00
N741   N     0.01656   0.18068   0.76217   0.00000  Uiso   1.00
N742   N     0.10478   0.08486   0.62210   0.00000  Uiso   1.00
N743   N     0.20439   0.25972   0.88445   0.00000  Uiso   1.00
N744   N     0.21854   0.24715   0.61952   0.00000  Uiso   1.00
N745   N     0.13881   0.07677   0.87751   0.00000  Uiso   1.00
N746   N     0.17081   0.31330   0.96360   0.00000  Uiso   1.00
N747   N     0.07080   0.03847   0.53831   0.00000  Uiso   1.00
N748   N     0.01023   0.11954   0.70605   0.00000  Uiso   1.00
O749   O     0.12975   0.24619   0.75298   0.00000  Uiso   1.00
O750   O     0.06928   0.04920   0.94984   0.00000  Uiso   1.00
O751   O     0.20358   0.08714   0.74701   0.00000  Uiso   1.00
O752   O     0.22613   0.23721   0.74518   0.00000  Uiso   1.00
O753   O     0.10720   0.09613   0.75481   0.00000  Uiso   1.00
O754   O     0.11847   0.17117   0.81997   0.00000  Uiso   1.00
O755   O     0.21486   0.16216   0.68002   0.00000  Uiso   1.00
O756   O     0.21485   0.16219   0.81217   0.00000  Uiso   1.00
O757   O     0.11848   0.17115   0.68782   0.00000  Uiso   1.00
O758   O     0.18978   0.30798   0.55502   0.00000  Uiso   1.00
Zn759  Zn    0.10231   0.17266   0.75521   0.00000  Uiso   1.00
Zn760  Zn    0.23102   0.16067   0.74479   0.00000  Uiso   1.00
C761   C     0.51504   0.26476   0.74892   0.00000  Uiso   1.00
C762   C     0.51393   0.21529   0.90808   0.00000  Uiso   1.00
C763   C     0.49597   0.16505   0.61584   0.00000  Uiso   1.00
C764   C     0.50134   0.16850   0.88408   0.00000  Uiso   1.00
C765   C     0.51815   0.20907   0.59432   0.00000  Uiso   1.00
C766   C     0.47874   0.12416   0.90490   0.00000  Uiso   1.00
C767   C     0.50799   0.21419   0.54895   0.00000  Uiso   1.00
C768   C     0.46669   0.12651   0.95178   0.00000  Uiso   1.00
C769   C     0.48438   0.17013   0.52442   0.00000  Uiso   1.00
C770   C     0.48578   0.17118   0.97722   0.00000  Uiso   1.00
C771   C     0.46076   0.12496   0.54678   0.00000  Uiso   1.00
C772   C     0.48496   0.06857   0.75110   0.00000  Uiso   1.00
C773   C     0.50566   0.21714   0.95536   0.00000  Uiso   1.00
C774   C     0.51909   0.26229   0.52805   0.00000  Uiso   1.00
C775   C     0.43457   0.08649   0.97374   0.00000  Uiso   1.00
C776   C     0.57034   0.00819   0.54155   0.00000  Uiso   1.00
C777   C     0.58941   0.04074   0.58264   0.00000  Uiso   1.00
C778   C     0.34882   0.06883   0.94410   0.00000  Uiso   1.00
C779   C     0.64896   0.03082   0.91360   0.00000  Uiso   1.00
C780   C     0.51315   0.26405   0.98156   0.00000  Uiso   1.00
C781   C     0.43361   0.08390   0.52041   0.00000  Uiso   1.00
C782   C     0.52298   0.31920   0.74821   0.00000  Uiso   1.00
C783   C     0.47703   0.01414   0.75188   0.00000  Uiso   1.00
C784   C     0.50094   0.16816   0.83624   0.00000  Uiso   1.00
C785   C     0.49890   0.16498   0.66368   0.00000  Uiso   1.00
C786   C     0.46463   0.12461   0.59415   0.00000  Uiso   1.00
H787   H     0.56651   0.00250   0.74461   0.00000  Uiso   1.00
H788   H     0.42925   0.06862   0.87196   0.00000  Uiso   1.00
H789   H     0.55720   0.03599   0.51736   0.00000  Uiso   1.00
H790   H     0.60728   0.32008   0.52613   0.00000  Uiso   1.00
H791   H     0.61423   0.07642   0.57169   0.00000  Uiso   1.00
H792   H     0.55224   0.05332   0.60445   0.00000  Uiso   1.00
H793   H     0.61594   0.01779   0.60295   0.00000  Uiso   1.00
H794   H     0.35321   0.10717   0.92791   0.00000  Uiso   1.00
H795   H     0.65728   0.07330   0.97720   0.00000  Uiso   1.00
H796   H     0.64116   0.32620   0.92981   0.00000  Uiso   1.00
H797   H     0.60769   0.04711   0.90732   0.00000  Uiso   1.00
H798   H     0.43350   0.33084   0.75550   0.00000  Uiso   1.00
H799   H     0.33982   0.02431   0.88061   0.00000  Uiso   1.00
H800   H     0.46943   0.30900   0.94338   0.00000  Uiso   1.00
H801   H     0.54059   0.32595   0.94459   0.00000  Uiso   1.00
H802   H     0.37004   0.04849   0.56033   0.00000  Uiso   1.00
H803   H     0.43189   0.01469   0.55215   0.00000  Uiso   1.00
H804   H     0.66353   0.12867   0.67473   0.00000  Uiso   1.00
H805   H     0.66030   0.08186   0.71225   0.00000  Uiso   1.00
H806   H     0.33522   0.20498   0.82526   0.00000  Uiso   1.00
H807   H     0.34031   0.25170   0.78753   0.00000  Uiso   1.00
H808   H     0.45500   0.04873   0.61449   0.00000  Uiso   1.00
H809   H     0.39386   0.08437   0.62173   0.00000  Uiso   1.00
H810   H     0.50885   0.27005   0.86163   0.00000  Uiso   1.00
H811   H     0.57555   0.24966   0.86645   0.00000  Uiso   1.00
H812   H     0.58960   0.25726   0.60057   0.00000  Uiso   1.00
H813   H     0.52824   0.27961   0.62870   0.00000  Uiso   1.00
H814   H     0.48937   0.04615   0.89281   0.00000  Uiso   1.00
N815   N     0.65011   0.15265   0.73783   0.00000  Uiso   1.00
N816   N     0.65634   0.21421   0.79360   0.00000  Uiso   1.00
N817   N     0.34989   0.18068   0.76217   0.00000  Uiso   1.00
N818   N     0.43811   0.08486   0.62210   0.00000  Uiso   1.00
N819   N     0.53772   0.25972   0.88445   0.00000  Uiso   1.00
N820   N     0.55188   0.24715   0.61952   0.00000  Uiso   1.00
N821   N     0.47214   0.07677   0.87751   0.00000  Uiso   1.00
N822   N     0.50414   0.31330   0.96360   0.00000  Uiso   1.00
N823   N     0.40413   0.03847   0.53831   0.00000  Uiso   1.00
N824   N     0.34357   0.11954   0.70605   0.00000  Uiso   1.00
O825   O     0.46308   0.24619   0.75298   0.00000  Uiso   1.00
O826   O     0.40261   0.04920   0.94984   0.00000  Uiso   1.00
O827   O     0.53692   0.08714   0.74701   0.00000  Uiso   1.00
O828   O     0.55946   0.23721   0.74518   0.00000  Uiso   1.00
O829   O     0.44054   0.09613   0.75481   0.00000  Uiso   1.00
O830   O     0.45181   0.17117   0.81997   0.00000  Uiso   1.00
O831   O     0.54819   0.16216   0.68002   0.00000  Uiso   1.00
O832   O     0.54819   0.16219   0.81217   0.00000  Uiso   1.00
O833   O     0.45181   0.17115   0.68782   0.00000  Uiso   1.00
O834   O     0.52312   0.30798   0.55502   0.00000  Uiso   1.00
Zn835  Zn    0.43565   0.17266   0.75521   0.00000  Uiso   1.00
Zn836  Zn    0.56435   0.16067   0.74479   0.00000  Uiso   1.00
C837   C     0.84837   0.26476   0.74892   0.00000  Uiso   1.00
C838   C     0.84726   0.21529   0.90808   0.00000  Uiso   1.00
C839   C     0.82931   0.16505   0.61584   0.00000  Uiso   1.00
C840   C     0.83467   0.16850   0.88408   0.00000  Uiso   1.00
C841   C     0.85148   0.20907   0.59432   0.00000  Uiso   1.00
C842   C     0.81208   0.12416   0.90490   0.00000  Uiso   1.00
C843   C     0.84133   0.21419   0.54895   0.00000  Uiso   1.00
C844   C     0.80002   0.12651   0.95178   0.00000  Uiso   1.00
C845   C     0.81771   0.17013   0.52442   0.00000  Uiso   1.00
C846   C     0.81912   0.17118   0.97722   0.00000  Uiso   1.00
C847   C     0.79409   0.12496   0.54678   0.00000  Uiso   1.00
C848   C     0.81830   0.06857   0.75110   0.00000  Uiso   1.00
C849   C     0.83900   0.21714   0.95536   0.00000  Uiso   1.00
C850   C     0.85243   0.26229   0.52805   0.00000  Uiso   1.00
C851   C     0.76790   0.08649   0.97374   0.00000  Uiso   1.00
C852   C     0.90367   0.00819   0.54155   0.00000  Uiso   1.00
C853   C     0.92275   0.04074   0.58264   0.00000  Uiso   1.00
C854   C     0.68215   0.06883   0.94410   0.00000  Uiso   1.00
C855   C     0.98229   0.03082   0.91360   0.00000  Uiso   1.00
C856   C     0.84648   0.26405   0.98156   0.00000  Uiso   1.00
C857   C     0.76694   0.08390   0.52041   0.00000  Uiso   1.00
C858   C     0.85631   0.31920   0.74821   0.00000  Uiso   1.00
C859   C     0.81036   0.01414   0.75188   0.00000  Uiso   1.00
C860   C     0.83427   0.16816   0.83624   0.00000  Uiso   1.00
C861   C     0.83224   0.16498   0.66368   0.00000  Uiso   1.00
C862   C     0.79796   0.12461   0.59415   0.00000  Uiso   1.00
H863   H     0.89984   0.00250   0.74461   0.00000  Uiso   1.00
H864   H     0.76258   0.06862   0.87196   0.00000  Uiso   1.00
H865   H     0.89054   0.03599   0.51736   0.00000  Uiso   1.00
H866   H     0.94061   0.32008   0.52613   0.00000  Uiso   1.00
H867   H     0.94756   0.07642   0.57169   0.00000  Uiso   1.00
H868   H     0.88558   0.05332   0.60445   0.00000  Uiso   1.00
H869   H     0.94927   0.01779   0.60295   0.00000  Uiso   1.00
H870   H     0.68655   0.10717   0.92791   0.00000  Uiso   1.00
H871   H     0.99062   0.07330   0.97720   0.00000  Uiso   1.00
H872   H     0.97450   0.32620   0.92981   0.00000  Uiso   1.00
H873   H     0.94103   0.04711   0.90732   0.00000  Uiso   1.00
H874   H     0.76683   0.33084   0.75550   0.00000  Uiso   1.00
H875   H     0.67315   0.02431   0.88061   0.00000  Uiso   1.00
H876   H     0.80277   0.30900   0.94338   0.00000  Uiso   1.00
H877   H     0.87392   0.32595   0.94459   0.00000  Uiso   1.00
H878   H     0.70337   0.04849   0.56033   0.00000  Uiso   1.00
H879   H     0.76523   0.01469   0.55215   0.00000  Uiso   1.00
H880   H     0.99686   0.12867   0.67473   0.00000  Uiso   1.00
H881   H     0.99363   0.08186   0.71225   0.00000  Uiso   1.00
H882   H     0.66856   0.20498   0.82526   0.00000  Uiso   1.00
H883   H     0.67364   0.25170   0.78753   0.00000  Uiso   1.00
H884   H     0.78833   0.04873   0.61449   0.00000  Uiso   1.00
H885   H     0.72719   0.08437   0.62173   0.00000  Uiso   1.00
H886   H     0.84218   0.27005   0.86163   0.00000  Uiso   1.00
H887   H     0.90888   0.24966   0.86645   0.00000  Uiso   1.00
H888   H     0.92293   0.25726   0.60057   0.00000  Uiso   1.00
H889   H     0.86157   0.27961   0.62870   0.00000  Uiso   1.00
H890   H     0.82271   0.04615   0.89281   0.00000  Uiso   1.00
N891   N     0.98344   0.15265   0.73783   0.00000  Uiso   1.00
N892   N     0.98968   0.21421   0.79360   0.00000  Uiso   1.00
N893   N     0.68322   0.18068   0.76217   0.00000  Uiso   1.00
N894   N     0.77144   0.08486   0.62210   0.00000  Uiso   1.00
N895   N     0.87105   0.25972   0.88445   0.00000  Uiso   1.00
N896   N     0.88521   0.24715   0.61952   0.00000  Uiso   1.00
N897   N     0.80547   0.07677   0.87751   0.00000  Uiso   1.00
N898   N     0.83747   0.31330   0.96360   0.00000  Uiso   1.00
N899   N     0.73747   0.03847   0.53831   0.00000  Uiso   1.00
N900   N     0.67690   0.11954   0.70605   0.00000  Uiso   1.00
O901   O     0.79642   0.24619   0.75298   0.00000  Uiso   1.00
O902   O     0.73594   0.04920   0.94984   0.00000  Uiso   1.00
O903   O     0.87025   0.08714   0.74701   0.00000  Uiso   1.00
O904   O     0.89280   0.23721   0.74518   0.00000  Uiso   1.00
O905   O     0.77387   0.09613   0.75481   0.00000  Uiso   1.00
O906   O     0.78514   0.17117   0.81997   0.00000  Uiso   1.00
O907   O     0.88153   0.16216   0.68002   0.00000  Uiso   1.00
O908   O     0.88152   0.16219   0.81217   0.00000  Uiso   1.00
O909   O     0.78515   0.17115   0.68782   0.00000  Uiso   1.00
O910   O     0.85645   0.30798   0.55502   0.00000  Uiso   1.00
Zn911  Zn    0.76898   0.17266   0.75521   0.00000  Uiso   1.00
Zn912  Zn    0.89769   0.16067   0.74479   0.00000  Uiso   1.00
C913   C     0.18170   0.59809   0.74892   0.00000  Uiso   1.00
C914   C     0.18059   0.54863   0.90808   0.00000  Uiso   1.00
C915   C     0.16264   0.49839   0.61584   0.00000  Uiso   1.00
C916   C     0.16801   0.50183   0.88408   0.00000  Uiso   1.00
C917   C     0.18482   0.54240   0.59432   0.00000  Uiso   1.00
C918   C     0.14541   0.45749   0.90490   0.00000  Uiso   1.00
C919   C     0.17466   0.54752   0.54895   0.00000  Uiso   1.00
C920   C     0.13335   0.45984   0.95178   0.00000  Uiso   1.00
C921   C     0.15105   0.50347   0.52442   0.00000  Uiso   1.00
C922   C     0.15245   0.50451   0.97722   0.00000  Uiso   1.00
C923   C     0.12742   0.45829   0.54678   0.00000  Uiso   1.00
C924   C     0.15163   0.40191   0.75110   0.00000  Uiso   1.00
C925   C     0.17233   0.55048   0.95536   0.00000  Uiso   1.00
C926   C     0.18576   0.59562   0.52805   0.00000  Uiso   1.00
C927   C     0.10123   0.41983   0.97374   0.00000  Uiso   1.00
C928   C     0.23700   0.34153   0.54155   0.00000  Uiso   1.00
C929   C     0.25608   0.37408   0.58264   0.00000  Uiso   1.00
C930   C     0.01548   0.40217   0.94410   0.00000  Uiso   1.00
C931   C     0.31563   0.36415   0.91360   0.00000  Uiso   1.00
C932   C     0.17982   0.59738   0.98156   0.00000  Uiso   1.00
C933   C     0.10028   0.41724   0.52041   0.00000  Uiso   1.00
C934   C     0.18964   0.65253   0.74821   0.00000  Uiso   1.00
C935   C     0.14370   0.34747   0.75188   0.00000  Uiso   1.00
C936   C     0.16760   0.50150   0.83624   0.00000  Uiso   1.00
C937   C     0.16557   0.49832   0.66368   0.00000  Uiso   1.00
C938   C     0.13129   0.45795   0.59415   0.00000  Uiso   1.00
H939   H     0.23318   0.33584   0.74461   0.00000  Uiso   1.00
H940   H     0.09592   0.40195   0.87196   0.00000  Uiso   1.00
H941   H     0.22387   0.36932   0.51736   0.00000  Uiso   1.00
H942   H     0.27395   0.65342   0.52613   0.00000  Uiso   1.00
H943   H     0.28090   0.40975   0.57169   0.00000  Uiso   1.00
H944   H     0.21891   0.38665   0.60445   0.00000  Uiso   1.00
H945   H     0.28261   0.35112   0.60295   0.00000  Uiso   1.00
H946   H     0.01988   0.44051   0.92791   0.00000  Uiso   1.00
H947   H     0.32395   0.40664   0.97720   0.00000  Uiso   1.00
H948   H     0.30783   0.65954   0.92981   0.00000  Uiso   1.00
H949   H     0.27436   0.38044   0.90732   0.00000  Uiso   1.00
H950   H     0.10016   0.66417   0.75550   0.00000  Uiso   1.00
H951   H     0.00649   0.35764   0.88061   0.00000  Uiso   1.00
H952   H     0.13610   0.64234   0.94338   0.00000  Uiso   1.00
H953   H     0.20725   0.65928   0.94459   0.00000  Uiso   1.00
H954   H     0.03671   0.38182   0.56033   0.00000  Uiso   1.00
H955   H     0.09856   0.34802   0.55215   0.00000  Uiso   1.00
H956   H     0.33020   0.46200   0.67473   0.00000  Uiso   1.00
H957   H     0.32697   0.41519   0.71225   0.00000  Uiso   1.00
H958   H     0.00189   0.53831   0.82526   0.00000  Uiso   1.00
H959   H     0.00697   0.58503   0.78753   0.00000  Uiso   1.00
H960   H     0.12166   0.38206   0.61449   0.00000  Uiso   1.00
H961   H     0.06052   0.41771   0.62173   0.00000  Uiso   1.00
H962   H     0.17551   0.60338   0.86163   0.00000  Uiso   1.00
H963   H     0.24222   0.58300   0.86645   0.00000  Uiso   1.00
H964   H     0.25627   0.59059   0.60057   0.00000  Uiso   1.00
H965   H     0.19490   0.61294   0.62870   0.00000  Uiso   1.00
H966   H     0.15604   0.37949   0.89281   0.00000  Uiso   1.00
N967   N     0.31678   0.48598   0.73783   0.00000  Uiso   1.00
N968   N     0.32301   0.54754   0.79360   0.00000  Uiso   1.00
N969   N     0.01656   0.51402   0.76217   0.00000  Uiso   1.00
N970   N     0.10478   0.41820   0.62210   0.00000  Uiso   1.00
N971   N     0.20439   0.59306   0.88445   0.00000  Uiso   1.00
N972   N     0.21854   0.58048   0.61952   0.00000  Uiso   1.00
N973   N     0.13881   0.41010   0.87751   0.00000  Uiso   1.00
N974   N     0.17081   0.64663   0.96360   0.00000  Uiso   1.00
N975   N     0.07080   0.37180   0.53831   0.00000  Uiso   1.00
N976   N     0.01023   0.45288   0.70605   0.00000  Uiso   1.00
O977   O     0.12975   0.57952   0.75298   0.00000  Uiso   1.00
O978   O     0.06928   0.38253   0.94984   0.00000  Uiso   1.00
O979   O     0.20358   0.42048   0.74701   0.00000  Uiso   1.00
O980   O     0.22613   0.57054   0.74518   0.00000  Uiso   1.00
O981   O     0.10720   0.42946   0.75481   0.00000  Uiso   1.00
O982   O     0.11847   0.50450   0.81997   0.00000  Uiso   1.00
O983   O     0.21486   0.49550   0.68002   0.00000  Uiso   1.00
O984   O     0.21485   0.49552   0.81217   0.00000  Uiso   1.00
O985   O     0.11848   0.50448   0.68782   0.00000  Uiso   1.00
O986   O     0.18978   0.64132   0.55502   0.00000  Uiso   1.00
Zn987  Zn    0.10231   0.50600   0.75521   0.00000  Uiso   1.00
Zn988  Zn    0.23102   0.49400   0.74479   0.00000  Uiso   1.00
C989   C     0.51504   0.59809   0.74892   0.00000  Uiso   1.00
C990   C     0.51393   0.54863   0.90808   0.00000  Uiso   1.00
C991   C     0.49597   0.49839   0.61584   0.00000  Uiso   1.00
C992   C     0.50134   0.50183   0.88408   0.00000  Uiso   1.00
C993   C     0.51815   0.54240   0.59432   0.00000  Uiso   1.00
C994   C     0.47874   0.45749   0.90490   0.00000  Uiso   1.00
C995   C     0.50799   0.54752   0.54895   0.00000  Uiso   1.00
C996   C     0.46669   0.45984   0.95178   0.00000  Uiso   1.00
C997   C     0.48438   0.50347   0.52442   0.00000  Uiso   1.00
C998   C     0.48578   0.50451   0.97722   0.00000  Uiso   1.00
C999   C     0.46076   0.45829   0.54678   0.00000  Uiso   1.00
C1000  C     0.48496   0.40191   0.75110   0.00000  Uiso   1.00
C1001  C     0.50566   0.55048   0.95536   0.00000  Uiso   1.00
C1002  C     0.51909   0.59562   0.52805   0.00000  Uiso   1.00
C1003  C     0.43457   0.41983   0.97374   0.00000  Uiso   1.00
C1004  C     0.57034   0.34153   0.54155   0.00000  Uiso   1.00
C1005  C     0.58941   0.37408   0.58264   0.00000  Uiso   1.00
C1006  C     0.34882   0.40217   0.94410   0.00000  Uiso   1.00
C1007  C     0.64896   0.36415   0.91360   0.00000  Uiso   1.00
C1008  C     0.51315   0.59738   0.98156   0.00000  Uiso   1.00
C1009  C     0.43361   0.41724   0.52041   0.00000  Uiso   1.00
C1010  C     0.52298   0.65253   0.74821   0.00000  Uiso   1.00
C1011  C     0.47703   0.34747   0.75188   0.00000  Uiso   1.00
C1012  C     0.50094   0.50150   0.83624   0.00000  Uiso   1.00
C1013  C     0.49890   0.49832   0.66368   0.00000  Uiso   1.00
C1014  C     0.46463   0.45795   0.59415   0.00000  Uiso   1.00
H1015  H     0.56651   0.33584   0.74461   0.00000  Uiso   1.00
H1016  H     0.42925   0.40195   0.87196   0.00000  Uiso   1.00
H1017  H     0.55720   0.36932   0.51736   0.00000  Uiso   1.00
H1018  H     0.60728   0.65342   0.52613   0.00000  Uiso   1.00
H1019  H     0.61423   0.40975   0.57169   0.00000  Uiso   1.00
H1020  H     0.55224   0.38665   0.60445   0.00000  Uiso   1.00
H1021  H     0.61594   0.35112   0.60295   0.00000  Uiso   1.00
H1022  H     0.35321   0.44051   0.92791   0.00000  Uiso   1.00
H1023  H     0.65728   0.40664   0.97720   0.00000  Uiso   1.00
H1024  H     0.64116   0.65954   0.92981   0.00000  Uiso   1.00
H1025  H     0.60769   0.38044   0.90732   0.00000  Uiso   1.00
H1026  H     0.43350   0.66417   0.75550   0.00000  Uiso   1.00
H1027  H     0.33982   0.35764   0.88061   0.00000  Uiso   1.00
H1028  H     0.46943   0.64234   0.94338   0.00000  Uiso   1.00
H1029  H     0.54059   0.65928   0.94459   0.00000  Uiso   1.00
H1030  H     0.37004   0.38182   0.56033   0.00000  Uiso   1.00
H1031  H     0.43189   0.34802   0.55215   0.00000  Uiso   1.00
H1032  H     0.66353   0.46200   0.67473   0.00000  Uiso   1.00
H1033  H     0.66030   0.41519   0.71225   0.00000  Uiso   1.00
H1034  H     0.33522   0.53831   0.82526   0.00000  Uiso   1.00
H1035  H     0.34031   0.58503   0.78753   0.00000  Uiso   1.00
H1036  H     0.45500   0.38206   0.61449   0.00000  Uiso   1.00
H1037  H     0.39386   0.41771   0.62173   0.00000  Uiso   1.00
H1038  H     0.50885   0.60338   0.86163   0.00000  Uiso   1.00
H1039  H     0.57555   0.58300   0.86645   0.00000  Uiso   1.00
H1040  H     0.58960   0.59059   0.60057   0.00000  Uiso   1.00
H1041  H     0.52824   0.61294   0.62870   0.00000  Uiso   1.00
H1042  H     0.48937   0.37949   0.89281   0.00000  Uiso   1.00
N1043  N     0.65011   0.48598   0.73783   0.00000  Uiso   1.00
N1044  N     0.65634   0.54754   0.79360   0.00000  Uiso   1.00
N1045  N     0.34989   0.51402   0.76217   0.00000  Uiso   1.00
N1046  N     0.43811   0.41820   0.62210   0.00000  Uiso   1.00
N1047  N     0.53772   0.59306   0.88445   0.00000  Uiso   1.00
N1048  N     0.55188   0.58048   0.61952   0.00000  Uiso   1.00
N1049  N     0.47214   0.41010   0.87751   0.00000  Uiso   1.00
N1050  N     0.50414   0.64663   0.96360   0.00000  Uiso   1.00
N1051  N     0.40413   0.37180   0.53831   0.00000  Uiso   1.00
N1052  N     0.34357   0.45288   0.70605   0.00000  Uiso   1.00
O1053  O     0.46308   0.57952   0.75298   0.00000  Uiso   1.00
O1054  O     0.40261   0.38253   0.94984   0.00000  Uiso   1.00
O1055  O     0.53692   0.42048   0.74701   0.00000  Uiso   1.00
O1056  O     0.55946   0.57054   0.74518   0.00000  Uiso   1.00
O1057  O     0.44054   0.42946   0.75481   0.00000  Uiso   1.00
O1058  O     0.45181   0.50450   0.81997   0.00000  Uiso   1.00
O1059  O     0.54819   0.49550   0.68002   0.00000  Uiso   1.00
O1060  O     0.54819   0.49552   0.81217   0.00000  Uiso   1.00
O1061  O     0.45181   0.50448   0.68782   0.00000  Uiso   1.00
O1062  O     0.52312   0.64132   0.55502   0.00000  Uiso   1.00
Zn1063 Zn    0.43565   0.50600   0.75521   0.00000  Uiso   1.00
Zn1064 Zn    0.56435   0.49400   0.74479   0.00000  Uiso   1.00
C1065  C     0.84837   0.59809   0.74892   0.00000  Uiso   1.00
C1066  C     0.84726   0.54863   0.90808   0.00000  Uiso   1.00
C1067  C     0.82931   0.49839   0.61584   0.00000  Uiso   1.00
C1068  C     0.83467   0.50183   0.88408   0.00000  Uiso   1.00
C1069  C     0.85148   0.54240   0.59432   0.00000  Uiso   1.00
C1070  C     0.81208   0.45749   0.90490   0.00000  Uiso   1.00
C1071  C     0.84133   0.54752   0.54895   0.00000  Uiso   1.00
C1072  C     0.80002   0.45984   0.95178   0.00000  Uiso   1.00
C1073  C     0.81771   0.50347   0.52442   0.00000  Uiso   1.00
C1074  C     0.81912   0.50451   0.97722   0.00000  Uiso   1.00
C1075  C     0.79409   0.45829   0.54678   0.00000  Uiso   1.00
C1076  C     0.81830   0.40191   0.75110   0.00000  Uiso   1.00
C1077  C     0.83900   0.55048   0.95536   0.00000  Uiso   1.00
C1078  C     0.85243   0.59562   0.52805   0.00000  Uiso   1.00
C1079  C     0.76790   0.41983   0.97374   0.00000  Uiso   1.00
C1080  C     0.90367   0.34153   0.54155   0.00000  Uiso   1.00
C1081  C     0.92275   0.37408   0.58264   0.00000  Uiso   1.00
C1082  C     0.68215   0.40217   0.94410   0.00000  Uiso   1.00
C1083  C     0.98229   0.36415   0.91360   0.00000  Uiso   1.00
C1084  C     0.84648   0.59738   0.98156   0.00000  Uiso   1.00
C1085  C     0.76694   0.41724   0.52041   0.00000  Uiso   1.00
C1086  C     0.85631   0.65253   0.74821   0.00000  Uiso   1.00
C1087  C     0.81036   0.34747   0.75188   0.00000  Uiso   1.00
C1088  C     0.83427   0.50150   0.83624   0.00000  Uiso   1.00
C1089  C     0.83224   0.49832   0.66368   0.00000  Uiso   1.00
C1090  C     0.79796   0.45795   0.59415   0.00000  Uiso   1.00
H1091  H     0.89984   0.33584   0.74461   0.00000  Uiso   1.00
H1092  H     0.76258   0.40195   0.87196   0.00000  Uiso   1.00
H1093  H     0.89054   0.36932   0.51736   0.00000  Uiso   1.00
H1094  H     0.94061   0.65342   0.52613   0.00000  Uiso   1.00
H1095  H     0.94756   0.40975   0.57169   0.00000  Uiso   1.00
H1096  H     0.88558   0.38665   0.60445   0.00000  Uiso   1.00
H1097  H     0.94927   0.35112   0.60295   0.00000  Uiso   1.00
H1098  H     0.68655   0.44051   0.92791   0.00000  Uiso   1.00
H1099  H     0.99062   0.40664   0.97720   0.00000  Uiso   1.00
H1100  H     0.97450   0.65954   0.92981   0.00000  Uiso   1.00
H1101  H     0.94103   0.38044   0.90732   0.00000  Uiso   1.00
H1102  H     0.76683   0.66417   0.75550   0.00000  Uiso   1.00
H1103  H     0.67315   0.35764   0.88061   0.00000  Uiso   1.00
H1104  H     0.80277   0.64234   0.94338   0.00000  Uiso   1.00
H1105  H     0.87392   0.65928   0.94459   0.00000  Uiso   1.00
H1106  H     0.70337   0.38182   0.56033   0.00000  Uiso   1.00
H1107  H     0.76523   0.34802   0.55215   0.00000  Uiso   1.00
H1108  H     0.99686   0.46200   0.67473   0.00000  Uiso   1.00
H1109  H     0.99363   0.41519   0.71225   0.00000  Uiso   1.00
H1110  H     0.66856   0.53831   0.82526   0.00000  Uiso   1.00
H1111  H     0.67364   0.58503   0.78753   0.00000  Uiso   1.00
H1112  H     0.78833   0.38206   0.61449   0.00000  Uiso   1.00
H1113  H     0.72719   0.41771   0.62173   0.00000  Uiso   1.00
H1114  H     0.84218   0.60338   0.86163   0.00000  Uiso   1.00
H1115  H     0.90888   0.58300   0.86645   0.00000  Uiso   1.00
H1116  H     0.92293   0.59059   0.60057   0.00000  Uiso   1.00
H1117  H     0.86157   0.61294   0.62870   0.00000  Uiso   1.00
H1118  H     0.82271   0.37949   0.89281   0.00000  Uiso   1.00
N1119  N     0.98344   0.48598   0.73783   0.00000  Uiso   1.00
N1120  N     0.98968   0.54754   0.79360   0.00000  Uiso   1.00
N1121  N     0.68322   0.51402   0.76217   0.00000  Uiso   1.00
N1122  N     0.77144   0.41820   0.62210   0.00000  Uiso   1.00
N1123  N     0.87105   0.59306   0.88445   0.00000  Uiso   1.00
N1124  N     0.88521   0.58048   0.61952   0.00000  Uiso   1.00
N1125  N     0.80547   0.41010   0.87751   0.00000  Uiso   1.00
N1126  N     0.83747   0.64663   0.96360   0.00000  Uiso   1.00
N1127  N     0.73747   0.37180   0.53831   0.00000  Uiso   1.00
N1128  N     0.67690   0.45288   0.70605   0.00000  Uiso   1.00
O1129  O     0.79642   0.57952   0.75298   0.00000  Uiso   1.00
O1130  O     0.73594   0.38253   0.94984   0.00000  Uiso   1.00
O1131  O     0.87025   0.42048   0.74701   0.00000  Uiso   1.00
O1132  O     0.89280   0.57054   0.74518   0.00000  Uiso   1.00
O1133  O     0.77387   0.42946   0.75481   0.00000  Uiso   1.00
O1134  O     0.78514   0.50450   0.81997   0.00000  Uiso   1.00
O1135  O     0.88153   0.49550   0.68002   0.00000  Uiso   1.00
O1136  O     0.88152   0.49552   0.81217   0.00000  Uiso   1.00
O1137  O     0.78515   0.50448   0.68782   0.00000  Uiso   1.00
O1138  O     0.85645   0.64132   0.55502   0.00000  Uiso   1.00
Zn1139 Zn    0.76898   0.50600   0.75521   0.00000  Uiso   1.00
Zn1140 Zn    0.89769   0.49400   0.74479   0.00000  Uiso   1.00
C1141  C     0.18170   0.93143   0.74892   0.00000  Uiso   1.00
C1142  C     0.18059   0.88196   0.90808   0.00000  Uiso   1.00
C1143  C     0.16264   0.83172   0.61584   0.00000  Uiso   1.00
C1144  C     0.16801   0.83517   0.88408   0.00000  Uiso   1.00
C1145  C     0.18482   0.87573   0.59432   0.00000  Uiso   1.00
C1146  C     0.14541   0.79083   0.90490   0.00000  Uiso   1.00
C1147  C     0.17466   0.88085   0.54895   0.00000  Uiso   1.00
C1148  C     0.13335   0.79318   0.95178   0.00000  Uiso   1.00
C1149  C     0.15105   0.83680   0.52442   0.00000  Uiso   1.00
C1150  C     0.15245   0.83784   0.97722   0.00000  Uiso   1.00
C1151  C     0.12742   0.79162   0.54678   0.00000  Uiso   1.00
C1152  C     0.15163   0.73524   0.75110   0.00000  Uiso   1.00
C1153  C     0.17233   0.88381   0.95536   0.00000  Uiso   1.00
C1154  C     0.18576   0.92896   0.52805   0.00000  Uiso   1.00
C1155  C     0.10123   0.75316   0.97374   0.00000  Uiso   1.00
C1156  C     0.23700   0.67486   0.54155   0.00000  Uiso   1.00
C1157  C     0.25608   0.70741   0.58264   0.00000  Uiso   1.00
C1158  C     0.01548   0.73550   0.94410   0.00000  Uiso   1.00
C1159  C     0.31563   0.69749   0.91360   0.00000  Uiso   1.00
C1160  C     0.17982   0.93072   0.98156   0.00000  Uiso   1.00
C1161  C     0.10028   0.75057   0.52041   0.00000  Uiso   1.00
C1162  C     0.18964   0.98586   0.74821   0.00000  Uiso   1.00
C1163  C     0.14370   0.68081   0.75188   0.00000  Uiso   1.00
C1164  C     0.16760   0.83483   0.83624   0.00000  Uiso   1.00
C1165  C     0.16557   0.83165   0.66368   0.00000  Uiso   1.00
C1166  C     0.13129   0.79128   0.59415   0.00000  Uiso   1.00
H1167  H     0.23318   0.66917   0.74461   0.00000  Uiso   1.00
H1168  H     0.09592   0.73528   0.87196   0.00000  Uiso   1.00
H1169  H     0.22387   0.70266   0.51736   0.00000  Uiso   1.00
H1170  H     0.27395   0.98675   0.52613   0.00000  Uiso   1.00
H1171  H     0.28090   0.74308   0.57169   0.00000  Uiso   1.00
H1172  H     0.21891   0.71999   0.60445   0.00000  Uiso   1.00
H1173  H     0.28261   0.68446   0.60295   0.00000  Uiso   1.00
H1174  H     0.01988   0.77384   0.92791   0.00000  Uiso   1.00
H1175  H     0.32395   0.73997   0.97720   0.00000  Uiso   1.00
H1176  H     0.30783   0.99287   0.92981   0.00000  Uiso   1.00
H1177  H     0.27436   0.71377   0.90732   0.00000  Uiso   1.00
H1178  H     0.10016   0.99750   0.75550   0.00000  Uiso   1.00
H1179  H     0.00649   0.69097   0.88061   0.00000  Uiso   1.00
H1180  H     0.13610   0.97567   0.94338   0.00000  Uiso   1.00
H1181  H     0.20725   0.99261   0.94459   0.00000  Uiso   1.00
H1182  H     0.03671   0.71516   0.56033   0.00000  Uiso   1.00
H1183  H     0.09856   0.68136   0.55215   0.00000  Uiso   1.00
H1184  H     0.33020   0.79534   0.67473   0.00000  Uiso   1.00
H1185  H     0.32697   0.74852   0.71225   0.00000  Uiso   1.00
H1186  H     0.00189   0.87164   0.82526   0.00000  Uiso   1.00
H1187  H     0.00697   0.91837   0.78753   0.00000  Uiso   1.00
H1188  H     0.12166   0.71539   0.61449   0.00000  Uiso   1.00
H1189  H     0.06052   0.75104   0.62173   0.00000  Uiso   1.00
H1190  H     0.17551   0.93672   0.86163   0.00000  Uiso   1.00
H1191  H     0.24222   0.91633   0.86645   0.00000  Uiso   1.00
H1192  H     0.25627   0.92393   0.60057   0.00000  Uiso   1.00
H1193  H     0.19490   0.94628   0.62870   0.00000  Uiso   1.00
H1194  H     0.15604   0.71282   0.89281   0.00000  Uiso   1.00
N1195  N     0.31678   0.81932   0.73783   0.00000  Uiso   1.00
N1196  N     0.32301   0.88087   0.79360   0.00000  Uiso   1.00
N1197  N     0.01656   0.84735   0.76217   0.00000  Uiso   1.00
N1198  N     0.10478   0.75153   0.62210   0.00000  Uiso   1.00
N1199  N     0.20439   0.92639   0.88445   0.00000  Uiso   1.00
N1200  N     0.21854   0.91381   0.61952   0.00000  Uiso   1.00
N1201  N     0.13881   0.74344   0.87751   0.00000  Uiso   1.00
N1202  N     0.17081   0.97996   0.96360   0.00000  Uiso   1.00
N1203  N     0.07080   0.70513   0.53831   0.00000  Uiso   1.00
N1204  N     0.01023   0.78621   0.70605   0.00000  Uiso   1.00
O1205  O     0.12975   0.91286   0.75298   0.00000  Uiso   1.00
O1206  O     0.06928   0.71587   0.94984   0.00000  Uiso   1.00
O1207  O     0.20358   0.75381   0.74701   0.00000  Uiso   1.00
O1208  O     0.22613   0.90387   0.74518   0.00000  Uiso   1.00
O1209  O     0.10720   0.76279   0.75481   0.00000  Uiso   1.00
O1210  O     0.11847   0.83784   0.81997   0.00000  Uiso   1.00
O1211  O     0.21486   0.82883   0.68002   0.00000  Uiso   1.00
O1212  O     0.21485   0.82885   0.81217   0.00000  Uiso   1.00
O1213  O     0.11848   0.83781   0.68782   0.00000  Uiso   1.00
O1214  O     0.18978   0.97465   0.55502   0.00000  Uiso   1.00
Zn1215 Zn    0.10231   0.83933   0.75521   0.00000  Uiso   1.00
Zn1216 Zn    0.23102   0.82734   0.74479   0.00000  Uiso   1.00
C1217  C     0.51504   0.93143   0.74892   0.00000  Uiso   1.00
C1218  C     0.51393   0.88196   0.90808   0.00000  Uiso   1.00
C1219  C     0.49597   0.83172   0.61584   0.00000  Uiso   1.00
C1220  C     0.50134   0.83517   0.88408   0.00000  Uiso   1.00
C1221  C     0.51815   0.87573   0.59432   0.00000  Uiso   1.00
C1222  C     0.47874   0.79083   0.90490   0.00000  Uiso   1.00
C1223  C     0.50799   0.88085   0.54895   0.00000  Uiso   1.00
C1224  C     0.46669   0.79318   0.95178   0.00000  Uiso   1.00
C1225  C     0.48438   0.83680   0.52442   0.00000  Uiso   1.00
C1226  C     0.48578   0.83784   0.97722   0.00000  Uiso   1.00
C1227  C     0.46076   0.79162   0.54678   0.00000  Uiso   1.00
C1228  C     0.48496   0.73524   0.75110   0.00000  Uiso   1.00
C1229  C     0.50566   0.88381   0.95536   0.00000  Uiso   1.00
C1230  C     0.51909   0.92896   0.52805   0.00000  Uiso   1.00
C1231  C     0.43457   0.75316   0.97374   0.00000  Uiso   1.00
C1232  C     0.57034   0.67486   0.54155   0.00000  Uiso   1.00
C1233  C     0.58941   0.70741   0.58264   0.00000  Uiso   1.00
C1234  C     0.34882   0.73550   0.94410   0.00000  Uiso   1.00
C1235  C     0.64896   0.69749   0.91360   0.00000  Uiso   1.00
C1236  C     0.51315   0.93072   0.98156   0.00000  Uiso   1.00
C1237  C     0.43361   0.75057   0.52041   0.00000  Uiso   1.00
C1238  C     0.52298   0.98586   0.74821   0.00000  Uiso   1.00
C1239  C     0.47703   0.68081   0.75188   0.00000  Uiso   1.00
C1240  C     0.50094   0.83483   0.83624   0.00000  Uiso   1.00
C1241  C     0.49890   0.83165   0.66368   0.00000  Uiso   1.00
C1242  C     0.46463   0.79128   0.59415   0.00000  Uiso   1.00
H1243  H     0.56651   0.66917   0.74461   0.00000  Uiso   1.00
H1244  H     0.42925   0.73528   0.87196   0.00000  Uiso   1.00
H1245  H     0.55720   0.70266   0.51736   0.00000  Uiso   1.00
H1246  H     0.60728   0.98675   0.52613   0.00000  Uiso   1.00
H1247  H     0.61423   0.74308   0.57169   0.00000  Uiso   1.00
H1248  H     0.55224   0.71999   0.60445   0.00000  Uiso   1.00
H1249  H     0.61594   0.68446   0.60295   0.00000  Uiso   1.00
H1250  H     0.35321   0.77384   0.92791   0.00000  Uiso   1.00
H1251  H     0.65728   0.73997   0.97720   0.00000  Uiso   1.00
H1252  H     0.64116   0.99287   0.92981   0.00000  Uiso   1.00
H1253  H     0.60769   0.71377   0.90732   0.00000  Uiso   1.00
H1254  H     0.43350   0.99750   0.75550   0.00000  Uiso   1.00
H1255  H     0.33982   0.69097   0.88061   0.00000  Uiso   1.00
H1256  H     0.46943   0.97567   0.94338   0.00000  Uiso   1.00
H1257  H     0.54059   0.99261   0.94459   0.00000  Uiso   1.00
H1258  H     0.37004   0.71516   0.56033   0.00000  Uiso   1.00
H1259  H     0.43189   0.68136   0.55215   0.00000  Uiso   1.00
H1260  H     0.66353   0.79534   0.67473   0.00000  Uiso   1.00
H1261  H     0.66030   0.74852   0.71225   0.00000  Uiso   1.00
H1262  H     0.33522   0.87164   0.82526   0.00000  Uiso   1.00
H1263  H     0.34031   0.91837   0.78753   0.00000  Uiso   1.00
H1264  H     0.45500   0.71539   0.61449   0.00000  Uiso   1.00
H1265  H     0.39386   0.75104   0.62173   0.00000  Uiso   1.00
H1266  H     0.50885   0.93672   0.86163   0.00000  Uiso   1.00
H1267  H     0.57555   0.91633   0.86645   0.00000  Uiso   1.00
H1268  H     0.58960   0.92393   0.60057   0.00000  Uiso   1.00
H1269  H     0.52824   0.94628   0.62870   0.00000  Uiso   1.00
H1270  H     0.48937   0.71282   0.89281   0.00000  Uiso   1.00
N1271  N     0.65011   0.81932   0.73783   0.00000  Uiso   1.00
N1272  N     0.65634   0.88087   0.79360   0.00000  Uiso   1.00
N1273  N     0.34989   0.84735   0.76217   0.00000  Uiso   1.00
N1274  N     0.43811   0.75153   0.62210   0.00000  Uiso   1.00
N1275  N     0.53772   0.92639   0.88445   0.00000  Uiso   1.00
N1276  N     0.55188   0.91381   0.61952   0.00000  Uiso   1.00
N1277  N     0.47214   0.74344   0.87751   0.00000  Uiso   1.00
N1278  N     0.50414   0.97996   0.96360   0.00000  Uiso   1.00
N1279  N     0.40413   0.70513   0.53831   0.00000  Uiso   1.00
N1280  N     0.34357   0.78621   0.70605   0.00000  Uiso   1.00
O1281  O     0.46308   0.91286   0.75298   0.00000  Uiso   1.00
O1282  O     0.40261   0.71587   0.94984   0.00000  Uiso   1.00
O1283  O     0.53692   0.75381   0.74701   0.00000  Uiso   1.00
O1284  O     0.55946   0.90387   0.74518   0.00000  Uiso   1.00
O1285  O     0.44054   0.76279   0.75481   0.00000  Uiso   1.00
O1286  O     0.45181   0.83784   0.81997   0.00000  Uiso   1.00
O1287  O     0.54819   0.82883   0.68002   0.00000  Uiso   1.00
O1288  O     0.54819   0.82885   0.81217   0.00000  Uiso   1.00
O1289  O     0.45181   0.83781   0.68782   0.00000  Uiso   1.00
O1290  O     0.52312   0.97465   0.55502   0.00000  Uiso   1.00
Zn1291 Zn    0.43565   0.83933   0.75521   0.00000  Uiso   1.00
Zn1292 Zn    0.56435   0.82734   0.74479   0.00000  Uiso   1.00
C1293  C     0.84837   0.93143   0.74892   0.00000  Uiso   1.00
C1294  C     0.84726   0.88196   0.90808   0.00000  Uiso   1.00
C1295  C     0.82931   0.83172   0.61584   0.00000  Uiso   1.00
C1296  C     0.83467   0.83517   0.88408   0.00000  Uiso   1.00
C1297  C     0.85148   0.87573   0.59432   0.00000  Uiso   1.00
C1298  C     0.81208   0.79083   0.90490   0.00000  Uiso   1.00
C1299  C     0.84133   0.88085   0.54895   0.00000  Uiso   1.00
C1300  C     0.80002   0.79318   0.95178   0.00000  Uiso   1.00
C1301  C     0.81771   0.83680   0.52442   0.00000  Uiso   1.00
C1302  C     0.81912   0.83784   0.97722   0.00000  Uiso   1.00
C1303  C     0.79409   0.79162   0.54678   0.00000  Uiso   1.00
C1304  C     0.81830   0.73524   0.75110   0.00000  Uiso   1.00
C1305  C     0.83900   0.88381   0.95536   0.00000  Uiso   1.00
C1306  C     0.85243   0.92896   0.52805   0.00000  Uiso   1.00
C1307  C     0.76790   0.75316   0.97374   0.00000  Uiso   1.00
C1308  C     0.90367   0.67486   0.54155   0.00000  Uiso   1.00
C1309  C     0.92275   0.70741   0.58264   0.00000  Uiso   1.00
C1310  C     0.68215   0.73550   0.94410   0.00000  Uiso   1.00
C1311  C     0.98229   0.69749   0.91360   0.00000  Uiso   1.00
C1312  C     0.84648   0.93072   0.98156   0.00000  Uiso   1.00
C1313  C     0.76694   0.75057   0.52041   0.00000  Uiso   1.00
C1314  C     0.85631   0.98586   0.74821   0.00000  Uiso   1.00
C1315  C     0.81036   0.68081   0.75188   0.00000  Uiso   1.00
C1316  C     0.83427   0.83483   0.83624   0.00000  Uiso   1.00
C1317  C     0.83224   0.83165   0.66368   0.00000  Uiso   1.00
C1318  C     0.79796   0.79128   0.59415   0.00000  Uiso   1.00
H1319  H     0.89984   0.66917   0.74461   0.00000  Uiso   1.00
H1320  H     0.76258   0.73528   0.87196   0.00000  Uiso   1.00
H1321  H     0.89054   0.70266   0.51736   0.00000  Uiso   1.00
H1322  H     0.94061   0.98675   0.52613   0.00000  Uiso   1.00
H1323  H     0.94756   0.74308   0.57169   0.00000  Uiso   1.00
H1324  H     0.88558   0.71999   0.60445   0.00000  Uiso   1.00
H1325  H     0.94927   0.68446   0.60295   0.00000  Uiso   1.00
H1326  H     0.68655   0.77384   0.92791   0.00000  Uiso   1.00
H1327  H     0.99062   0.73997   0.97720   0.00000  Uiso   1.00
H1328  H     0.97450   0.99287   0.92981   0.00000  Uiso   1.00
H1329  H     0.94103   0.71377   0.90732   0.00000  Uiso   1.00
H1330  H     0.76683   0.99750   0.75550   0.00000  Uiso   1.00
H1331  H     0.67315   0.69097   0.88061   0.00000  Uiso   1.00
H1332  H     0.80277   0.97567   0.94338   0.00000  Uiso   1.00
H1333  H     0.87392   0.99261   0.94459   0.00000  Uiso   1.00
H1334  H     0.70337   0.71516   0.56033   0.00000  Uiso   1.00
H1335  H     0.76523   0.68136   0.55215   0.00000  Uiso   1.00
H1336  H     0.99686   0.79534   0.67473   0.00000  Uiso   1.00
H1337  H     0.99363   0.74852   0.71225   0.00000  Uiso   1.00
H1338  H     0.66856   0.87164   0.82526   0.00000  Uiso   1.00
H1339  H     0.67364   0.91837   0.78753   0.00000  Uiso   1.00
H1340  H     0.78833   0.71539   0.61449   0.00000  Uiso   1.00
H1341  H     0.72719   0.75104   0.62173   0.00000  Uiso   1.00
H1342  H     0.84218   0.93672   0.86163   0.00000  Uiso   1.00
H1343  H     0.90888   0.91633   0.86645   0.00000  Uiso   1.00
H1344  H     0.92293   0.92393   0.60057   0.00000  Uiso   1.00
H1345  H     0.86157   0.94628   0.62870   0.00000  Uiso   1.00
H1346  H     0.82271   0.71282   0.89281   0.00000  Uiso   1.00
N1347  N     0.98344   0.81932   0.73783   0.00000  Uiso   1.00
N1348  N     0.98968   0.88087   0.79360   0.00000  Uiso   1.00
N1349  N     0.68322   0.84735   0.76217   0.00000  Uiso   1.00
N1350  N     0.77144   0.75153   0.62210   0.00000  Uiso   1.00
N1351  N     0.87105   0.92639   0.88445   0.00000  Uiso   1.00
N1352  N     0.88521   0.91381   0.61952   0.00000  Uiso   1.00
N1353  N     0.80547   0.74344   0.87751   0.00000  Uiso   1.00
N1354  N     0.83747   0.97996   0.96360   0.00000  Uiso   1.00
N1355  N     0.73747   0.70513   0.53831   0.00000  Uiso   1.00
N1356  N     0.67690   0.78621   0.70605   0.00000  Uiso   1.00
O1357  O     0.79642   0.91286   0.75298   0.00000  Uiso   1.00
O1358  O     0.73594   0.71587   0.94984   0.00000  Uiso   1.00
O1359  O     0.87025   0.75381   0.74701   0.00000  Uiso   1.00
O1360  O     0.89280   0.90387   0.74518   0.00000  Uiso   1.00
O1361  O     0.77387   0.76279   0.75481   0.00000  Uiso   1.00
O1362  O     0.78514   0.83784   0.81997   0.00000  Uiso   1.00
O1363  O     0.88153   0.82883   0.68002   0.00000  Uiso   1.00
O1364  O     0.88152   0.82885   0.81217   0.00000  Uiso   1.00
O1365  O     0.78515   0.83781   0.68782   0.00000  Uiso   1.00
O1366  O     0.85645   0.97465   0.55502   0.00000  Uiso   1.00
Zn1367 Zn    0.76898   0.83933   0.75521   0.00000  Uiso   1.00
Zn1368 Zn    0.89769   0.82734   0.74479   0.00000  Uiso   1.00
loop_
_geom_bond_atom_site_label_1
_geom_bond_atom_site_label_2
_geom_bond_distance
_geom_bond_site_symmetry_2
_ccdc_geom_bond_type
C1     O65     1.287   .     A
C1     C22     1.404   .     S
C1     O68     1.292   .     A
C2     C4      1.396   .     A
C2     C13     1.404   .     A
C2     N59     1.437   .     S
C3     C25     1.428   .     S
C3     C26     1.398   .     A
C3     C5      1.386   .     A
C4     C24     1.422   .     S
C4     C6      1.387   .     A
C5     N60     1.439   .     S
C5     C7      1.399   .     A
C6     N61     1.439   .     S
C6     C8      1.402   .     A
C7     C9      1.424   .     A
C7     C14     1.415   .     A
C8     C10     1.413   .     A
C8     C15     1.402   .     A
C9     C11     1.433   .     A
C9     C694    1.402   1_554 S
C10    C13     1.418   .     A
C10    C693    1.402   .     S
C11    C21     1.431   .     A
C11    C26     1.417   .     A
C12    O69     1.292   .     A
C12    C23     1.404   .     S
C12    O67     1.287   .     A
C13    C20     1.413   .     A
C14    O74     1.392   .     S
C14    C704    1.401   1_554 S
C15    O66     1.384   .     S
C15    C705    1.390   .     S
C16    C17     1.525   .     S
C16    H29     1.109   .     S
C16    H486    1.116   1_545 S
C16    O530    1.415   1_545 S
C17    H33     1.110   .     S
C17    H32     1.106   .     S
C17    H31     1.110   .     S
C18    O66     1.413   .     S
C18    H34     1.115   .     S
C18    C171    1.520   1_455 S
C18    H187    1.114   1_455 S
C19    H37     1.110   .     S
C19    C94     1.520   .     S
C19    H492    1.111   1_545 S
C19    H115    1.109   .     S
C20    N62     1.431   .     S
C20    C698    1.401   .     S
C21    N63     1.432   .     S
C21    C699    1.390   1_554 S
C22    C251    1.332   .     S
C22    H255    1.088   .     S
C23    C478    1.332   1_545 S
C23    H494    1.088   1_545 S
C24    O70     1.291   .     A
C24    O72     1.292   .     A
C25    O71     1.295   .     A
C25    O73     1.291   .     A
C26    N58     1.437   .     S
H27    C478    1.088   1_545 S
H28    N61     1.042   .     S
H30    C244    1.116   .     S
H35    C94     1.114   .     S
H36    C247    1.111   .     S
H38    C251    1.088   .     S
H39    C171    1.109   1_455 S
H40    N62     1.045   .     S
H41    N62     1.039   .     S
H42    N63     1.036   .     S
H43    N63     1.038   .     S
H44    N140    1.044   .     S
H45    N140    1.045   .     S
H46    N208    1.045   1_455 S
H47    N208    1.045   1_455 S
H48    N58     1.040   .     S
H49    N58     1.041   .     S
H50    N59     1.046   .     S
H51    N59     1.045   .     S
H52    N60     1.045   .     S
H53    N60     1.044   .     S
H54    N61     1.044   .     S
N55    Zn76    2.035   .     S
N55    N133    1.270   .     S
N55    N140    1.384   .     S
N56    H122    1.045   .     S
N56    H123    1.045   .     S
N56    N133    1.385   .     S
N57    Zn75    2.035   .     S
N57    N207    1.270   1_455 S
N57    N208    1.385   1_455 S
N64    N207    1.384   1_455 S
N64    H197    1.045   1_455 S
N64    H196    1.044   1_455 S
O65    Zn75    1.967   .     S
O67    Zn76    1.967   .     S
O68    Zn76    1.979   .     S
O69    Zn75    1.979   .     S
O70    Zn75    1.990   .     S
O71    Zn76    1.990   .     S
O72    Zn76    2.011   .     S
O73    Zn75    2.011   .     S
O74    C244    1.415   .     S
C77    O141    1.287   .     A
C77    C98     1.404   .     S
C77    O144    1.292   .     A
C78    C80     1.396   .     A
C78    C89     1.404   .     A
C78    N135    1.437   .     S
C79    C101    1.428   .     S
C79    C102    1.398   .     A
C79    C81     1.386   .     A
C80    C100    1.422   .     S
C80    C82     1.387   .     A
C81    N136    1.439   .     S
C81    C83     1.399   .     A
C82    N137    1.439   .     S
C82    C84     1.402   .     A
C83    C85     1.424   .     A
C83    C90     1.415   .     A
C84    C86     1.413   .     A
C84    C91     1.402   .     A
C85    C87     1.433   .     A
C85    C770    1.402   1_554 S
C86    C89     1.418   .     A
C86    C769    1.402   .     S
C87    C97     1.431   .     A
C87    C102    1.417   .     A
C88    O145    1.292   .     A
C88    C99     1.404   .     S
C88    O143    1.287   .     A
C89    C96     1.413   .     A
C90    O150    1.392   .     S
C90    C780    1.401   1_554 S
C91    O142    1.384   .     S
C91    C781    1.390   .     S
C92    C93     1.525   .     S
C92    H105    1.109   .     S
C92    H562    1.116   1_545 S
C92    O606    1.415   1_545 S
C93    H109    1.110   .     S
C93    H108    1.106   .     S
C93    H107    1.110   .     S
C94    O142    1.413   .     S
C94    H110    1.115   .     S
C95    H113    1.110   .     S
C95    C170    1.520   .     S
C95    H568    1.111   1_545 S
C95    H191    1.109   .     S
C96    N138    1.431   .     S
C96    C774    1.401   .     S
C97    N139    1.432   .     S
C97    C775    1.390   1_554 S
C98    C327    1.332   .     S
C98    H331    1.088   .     S
C99    C554    1.332   1_545 S
C99    H570    1.088   1_545 S
C100   O146    1.291   .     A
C100   O148    1.292   .     A
C101   O147    1.295   .     A
C101   O149    1.291   .     A
C102   N134    1.437   .     S
H103   C554    1.088   1_545 S
H104   N137    1.042   .     S
H106   C320    1.116   .     S
H111   C170    1.114   .     S
H112   C323    1.111   .     S
H114   C327    1.088   .     S
H116   N138    1.045   .     S
H117   N138    1.039   .     S
H118   N139    1.036   .     S
H119   N139    1.038   .     S
H120   N216    1.044   .     S
H121   N216    1.045   .     S
H124   N134    1.040   .     S
H125   N134    1.041   .     S
H126   N135    1.046   .     S
H127   N135    1.045   .     S
H128   N136    1.045   .     S
H129   N136    1.044   .     S
H130   N137    1.044   .     S
N131   Zn152   2.035   .     S
N131   N209    1.270   .     S
N131   N216    1.384   .     S
N132   H198    1.045   .     S
N132   H199    1.045   .     S
N132   N209    1.385   .     S
N133   Zn151   2.035   .     S
O141   Zn151   1.967   .     S
O143   Zn152   1.967   .     S
O144   Zn152   1.979   .     S
O145   Zn151   1.979   .     S
O146   Zn151   1.990   .     S
O147   Zn152   1.990   .     S
O148   Zn152   2.011   .     S
O149   Zn151   2.011   .     S
O150   C320    1.415   .     S
C153   O217    1.287   .     A
C153   C174    1.404   .     S
C153   O220    1.292   .     A
C154   C156    1.396   .     A
C154   C165    1.404   .     A
C154   N211    1.437   .     S
C155   C177    1.428   .     S
C155   C178    1.398   .     A
C155   C157    1.386   .     A
C156   C176    1.422   .     S
C156   C158    1.387   .     A
C157   N212    1.439   .     S
C157   C159    1.399   .     A
C158   N213    1.439   .     S
C158   C160    1.402   .     A
C159   C161    1.424   .     A
C159   C166    1.415   .     A
C160   C162    1.413   .     A
C160   C167    1.402   .     A
C161   C163    1.433   .     A
C161   C846    1.402   1_554 S
C162   C165    1.418   .     A
C162   C845    1.402   .     S
C163   C173    1.431   .     A
C163   C178    1.417   .     A
C164   O221    1.292   .     A
C164   C175    1.404   .     S
C164   O219    1.287   .     A
C165   C172    1.413   .     A
C166   O226    1.392   .     S
C166   C856    1.401   1_554 S
C167   O218    1.384   .     S
C167   C857    1.390   .     S
C168   C169    1.525   .     S
C168   H181    1.109   .     S
C168   H638    1.116   1_545 S
C168   O682    1.415   1_545 S
C169   H185    1.110   .     S
C169   H184    1.106   .     S
C169   H183    1.110   .     S
C170   O218    1.413   .     S
C170   H186    1.115   .     S
C171   H189    1.110   .     S
C171   C18     1.520   1_655 S
C171   H644    1.111   1_545 S
C171   H39     1.109   1_655 S
C172   N214    1.431   .     S
C172   C850    1.401   .     S
C173   N215    1.432   .     S
C173   C851    1.390   1_554 S
C174   C403    1.332   .     S
C174   H407    1.088   .     S
C175   C630    1.332   1_545 S
C175   H646    1.088   1_545 S
C176   O222    1.291   .     A
C176   O224    1.292   .     A
C177   O223    1.295   .     A
C177   O225    1.291   .     A
C178   N210    1.437   .     S
H179   C630    1.088   1_545 S
H180   N213    1.042   .     S
H182   C396    1.116   .     S
H187   C18     1.114   1_655 S
H188   C399    1.111   .     S
H190   C403    1.088   .     S
H192   N214    1.045   .     S
H193   N214    1.039   .     S
H194   N215    1.036   .     S
H195   N215    1.038   .     S
H196   N64     1.044   1_655 S
H197   N64     1.045   1_655 S
H200   N210    1.040   .     S
H201   N210    1.041   .     S
H202   N211    1.046   .     S
H203   N211    1.045   .     S
H204   N212    1.045   .     S
H205   N212    1.044   .     S
H206   N213    1.044   .     S
N207   Zn228   2.035   .     S
N207   N57     1.270   1_655 S
N207   N64     1.384   1_655 S
N208   H46     1.045   1_655 S
N208   H47     1.045   1_655 S
N208   N57     1.385   1_655 S
N209   Zn227   2.035   .     S
O217   Zn227   1.967   .     S
O219   Zn228   1.967   .     S
O220   Zn228   1.979   .     S
O221   Zn227   1.979   .     S
O222   Zn227   1.990   .     S
O223   Zn228   1.990   .     S
O224   Zn228   2.011   .     S
O225   Zn227   2.011   .     S
O226   C396    1.415   .     S
C229   O293    1.287   .     A
C229   C250    1.404   .     S
C229   O296    1.292   .     A
C230   C232    1.396   .     A
C230   C241    1.404   .     A
C230   N287    1.437   .     S
C231   C253    1.428   .     S
C231   C254    1.398   .     A
C231   C233    1.386   .     A
C232   C252    1.422   .     S
C232   C234    1.387   .     A
C233   N288    1.439   .     S
C233   C235    1.399   .     A
C234   N289    1.439   .     S
C234   C236    1.402   .     A
C235   C237    1.424   .     A
C235   C242    1.415   .     A
C236   C238    1.413   .     A
C236   C243    1.402   .     A
C237   C239    1.433   .     A
C237   C922    1.402   1_554 S
C238   C241    1.418   .     A
C238   C921    1.402   .     S
C239   C249    1.431   .     A
C239   C254    1.417   .     A
C240   O297    1.292   .     A
C240   C251    1.404   .     S
C240   O295    1.287   .     A
C241   C248    1.413   .     A
C242   O302    1.392   .     S
C242   C932    1.401   1_554 S
C243   O294    1.384   .     S
C243   C933    1.390   .     S
C244   C245    1.525   .     S
C244   H257    1.109   .     S
C245   H261    1.110   .     S
C245   H260    1.106   .     S
C245   H259    1.110   .     S
C246   O294    1.413   .     S
C246   H262    1.115   .     S
C246   C399    1.520   1_455 S
C246   H415    1.114   1_455 S
C247   H265    1.110   .     S
C247   C322    1.520   .     S
C247   H343    1.109   .     S
C248   N290    1.431   .     S
C248   C926    1.401   .     S
C249   N291    1.432   .     S
C249   C927    1.390   1_554 S
C250   C479    1.332   .     S
C250   H483    1.088   .     S
C252   O298    1.291   .     A
C252   O300    1.292   .     A
C253   O299    1.295   .     A
C253   O301    1.291   .     A
C254   N286    1.437   .     S
H256   N289    1.042   .     S
H258   C472    1.116   .     S
H263   C322    1.114   .     S
H264   C475    1.111   .     S
H266   C479    1.088   .     S
H267   C399    1.109   1_455 S
H268   N290    1.045   .     S
H269   N290    1.039   .     S
H270   N291    1.036   .     S
H271   N291    1.038   .     S
H272   N368    1.044   .     S
H273   N368    1.045   .     S
H274   N436    1.045   1_455 S
H275   N436    1.045   1_455 S
H276   N286    1.040   .     S
H277   N286    1.041   .     S
H278   N287    1.046   .     S
H279   N287    1.045   .     S
H280   N288    1.045   .     S
H281   N288    1.044   .     S
H282   N289    1.044   .     S
N283   Zn304   2.035   .     S
N283   N361    1.270   .     S
N283   N368    1.384   .     S
N284   H350    1.045   .     S
N284   H351    1.045   .     S
N284   N361    1.385   .     S
N285   Zn303   2.035   .     S
N285   N435    1.270   1_455 S
N285   N436    1.385   1_455 S
N292   N435    1.384   1_455 S
N292   H425    1.045   1_455 S
N292   H424    1.044   1_455 S
O293   Zn303   1.967   .     S
O295   Zn304   1.967   .     S
O296   Zn304   1.979   .     S
O297   Zn303   1.979   .     S
O298   Zn303   1.990   .     S
O299   Zn304   1.990   .     S
O300   Zn304   2.011   .     S
O301   Zn303   2.011   .     S
O302   C472    1.415   .     S
C305   O369    1.287   .     A
C305   C326    1.404   .     S
C305   O372    1.292   .     A
C306   C308    1.396   .     A
C306   C317    1.404   .     A
C306   N363    1.437   .     S
C307   C329    1.428   .     S
C307   C330    1.398   .     A
C307   C309    1.386   .     A
C308   C328    1.422   .     S
C308   C310    1.387   .     A
C309   N364    1.439   .     S
C309   C311    1.399   .     A
C310   N365    1.439   .     S
C310   C312    1.402   .     A
C311   C313    1.424   .     A
C311   C318    1.415   .     A
C312   C314    1.413   .     A
C312   C319    1.402   .     A
C313   C315    1.433   .     A
C313   C998    1.402   1_554 S
C314   C317    1.418   .     A
C314   C997    1.402   .     S
C315   C325    1.431   .     A
C315   C330    1.417   .     A
C316   O373    1.292   .     A
C316   C327    1.404   .     S
C316   O371    1.287   .     A
C317   C324    1.413   .     A
C318   O378    1.392   .     S
C318   C1008   1.401   1_554 S
C319   O370    1.384   .     S
C319   C1009   1.390   .     S
C320   C321    1.525   .     S
C320   H333    1.109   .     S
C321   H337    1.110   .     S
C321   H336    1.106   .     S
C321   H335    1.110   .     S
C322   O370    1.413   .     S
C322   H338    1.115   .     S
C323   H341    1.110   .     S
C323   C398    1.520   .     S
C323   H419    1.109   .     S
C324   N366    1.431   .     S
C324   C1002   1.401   .     S
C325   N367    1.432   .     S
C325   C1003   1.390   1_554 S
C326   C555    1.332   .     S
C326   H559    1.088   .     S
C328   O374    1.291   .     A
C328   O376    1.292   .     A
C329   O375    1.295   .     A
C329   O377    1.291   .     A
C330   N362    1.437   .     S
H332   N365    1.042   .     S
H334   C548    1.116   .     S
H339   C398    1.114   .     S
H340   C551    1.111   .     S
H342   C555    1.088   .     S
H344   N366    1.045   .     S
H345   N366    1.039   .     S
H346   N367    1.036   .     S
H347   N367    1.038   .     S
H348   N444    1.044   .     S
H349   N444    1.045   .     S
H352   N362    1.040   .     S
H353   N362    1.041   .     S
H354   N363    1.046   .     S
H355   N363    1.045   .     S
H356   N364    1.045   .     S
H357   N364    1.044   .     S
H358   N365    1.044   .     S
N359   Zn380   2.035   .     S
N359   N437    1.270   .     S
N359   N444    1.384   .     S
N360   H426    1.045   .     S
N360   H427    1.045   .     S
N360   N437    1.385   .     S
N361   Zn379   2.035   .     S
O369   Zn379   1.967   .     S
O371   Zn380   1.967   .     S
O372   Zn380   1.979   .     S
O373   Zn379   1.979   .     S
O374   Zn379   1.990   .     S
O375   Zn380   1.990   .     S
O376   Zn380   2.011   .     S
O377   Zn379   2.011   .     S
O378   C548    1.415   .     S
C381   O445    1.287   .     A
C381   C402    1.404   .     S
C381   O448    1.292   .     A
C382   C384    1.396   .     A
C382   C393    1.404   .     A
C382   N439    1.437   .     S
C383   C405    1.428   .     S
C383   C406    1.398   .     A
C383   C385    1.386   .     A
C384   C404    1.422   .     S
C384   C386    1.387   .     A
C385   N440    1.439   .     S
C385   C387    1.399   .     A
C386   N441    1.439   .     S
C386   C388    1.402   .     A
C387   C389    1.424   .     A
C387   C394    1.415   .     A
C388   C390    1.413   .     A
C388   C395    1.402   .     A
C389   C391    1.433   .     A
C389   C1074   1.402   1_554 S
C390   C393    1.418   .     A
C390   C1073   1.402   .     S
C391   C401    1.431   .     A
C391   C406    1.417   .     A
C392   O449    1.292   .     A
C392   C403    1.404   .     S
C392   O447    1.287   .     A
C393   C400    1.413   .     A
C394   O454    1.392   .     S
C394   C1084   1.401   1_554 S
C395   O446    1.384   .     S
C395   C1085   1.390   .     S
C396   C397    1.525   .     S
C396   H409    1.109   .     S
C397   H413    1.110   .     S
C397   H412    1.106   .     S
C397   H411    1.110   .     S
C398   O446    1.413   .     S
C398   H414    1.115   .     S
C399   H417    1.110   .     S
C399   C246    1.520   1_655 S
C399   H267    1.109   1_655 S
C400   N442    1.431   .     S
C400   C1078   1.401   .     S
C401   N443    1.432   .     S
C401   C1079   1.390   1_554 S
C402   C631    1.332   .     S
C402   H635    1.088   .     S
C404   O450    1.291   .     A
C404   O452    1.292   .     A
C405   O451    1.295   .     A
C405   O453    1.291   .     A
C406   N438    1.437   .     S
H408   N441    1.042   .     S
H410   C624    1.116   .     S
H415   C246    1.114   1_655 S
H416   C627    1.111   .     S
H418   C631    1.088   .     S
H420   N442    1.045   .     S
H421   N442    1.039   .     S
H422   N443    1.036   .     S
H423   N443    1.038   .     S
H424   N292    1.044   1_655 S
H425   N292    1.045   1_655 S
H428   N438    1.040   .     S
H429   N438    1.041   .     S
H430   N439    1.046   .     S
H431   N439    1.045   .     S
H432   N440    1.045   .     S
H433   N440    1.044   .     S
H434   N441    1.044   .     S
N435   Zn456   2.035   .     S
N435   N285    1.270   1_655 S
N435   N292    1.384   1_655 S
N436   H274    1.045   1_655 S
N436   H275    1.045   1_655 S
N436   N285    1.385   1_655 S
N437   Zn455   2.035   .     S
O445   Zn455   1.967   .     S
O447   Zn456   1.967   .     S
O448   Zn456   1.979   .     S
O449   Zn455   1.979   .     S
O450   Zn455   1.990   .     S
O451   Zn456   1.990   .     S
O452   Zn456   2.011   .     S
O453   Zn455   2.011   .     S
O454   C624    1.415   .     S
C457   O521    1.287   .     A
C457   C478    1.404   .     S
C457   O524    1.292   .     A
C458   C460    1.396   .     A
C458   C469    1.404   .     A
C458   N515    1.437   .     S
C459   C481    1.428   .     S
C459   C482    1.398   .     A
C459   C461    1.386   .     A
C460   C480    1.422   .     S
C460   C462    1.387   .     A
C461   N516    1.439   .     S
C461   C463    1.399   .     A
C462   N517    1.439   .     S
C462   C464    1.402   .     A
C463   C465    1.424   .     A
C463   C470    1.415   .     A
C464   C466    1.413   .     A
C464   C471    1.402   .     A
C465   C467    1.433   .     A
C465   C1150   1.402   1_554 S
C466   C469    1.418   .     A
C466   C1149   1.402   .     S
C467   C477    1.431   .     A
C467   C482    1.417   .     A
C468   O525    1.292   .     A
C468   C479    1.404   .     S
C468   O523    1.287   .     A
C469   C476    1.413   .     A
C470   O530    1.392   .     S
C470   C1160   1.401   1_554 S
C471   O522    1.384   .     S
C471   C1161   1.390   .     S
C472   C473    1.525   .     S
C472   H485    1.109   .     S
C473   H489    1.110   .     S
C473   H488    1.106   .     S
C473   H487    1.110   .     S
C474   O522    1.413   .     S
C474   H490    1.115   .     S
C474   C627    1.520   1_455 S
C474   H643    1.114   1_455 S
C475   H493    1.110   .     S
C475   C550    1.520   .     S
C475   H571    1.109   .     S
C476   N518    1.431   .     S
C476   C1154   1.401   .     S
C477   N519    1.432   .     S
C477   C1155   1.390   1_554 S
C478   C23     1.332   1_565 S
C478   H27     1.088   1_565 S
C480   O526    1.291   .     A
C480   O528    1.292   .     A
C481   O527    1.295   .     A
C481   O529    1.291   .     A
C482   N514    1.437   .     S
H484   N517    1.042   .     S
H486   C16     1.116   1_565 S
H491   C550    1.114   .     S
H492   C19     1.111   1_565 S
H494   C23     1.088   1_565 S
H495   C627    1.109   1_455 S
H496   N518    1.045   .     S
H497   N518    1.039   .     S
H498   N519    1.036   .     S
H499   N519    1.038   .     S
H500   N596    1.044   .     S
H501   N596    1.045   .     S
H502   N664    1.045   1_455 S
H503   N664    1.045   1_455 S
H504   N514    1.040   .     S
H505   N514    1.041   .     S
H506   N515    1.046   .     S
H507   N515    1.045   .     S
H508   N516    1.045   .     S
H509   N516    1.044   .     S
H510   N517    1.044   .     S
N511   Zn532   2.035   .     S
N511   N589    1.270   .     S
N511   N596    1.384   .     S
N512   H578    1.045   .     S
N512   H579    1.045   .     S
N512   N589    1.385   .     S
N513   Zn531   2.035   .     S
N513   N663    1.270   1_455 S
N513   N664    1.385   1_455 S
N520   N663    1.384   1_455 S
N520   H653    1.045   1_455 S
N520   H652    1.044   1_455 S
O521   Zn531   1.967   .     S
O523   Zn532   1.967   .     S
O524   Zn532   1.979   .     S
O525   Zn531   1.979   .     S
O526   Zn531   1.990   .     S
O527   Zn532   1.990   .     S
O528   Zn532   2.011   .     S
O529   Zn531   2.011   .     S
O530   C16     1.415   1_565 S
C533   O597    1.287   .     A
C533   C554    1.404   .     S
C533   O600    1.292   .     A
C534   C536    1.396   .     A
C534   C545    1.404   .     A
C534   N591    1.437   .     S
C535   C557    1.428   .     S
C535   C558    1.398   .     A
C535   C537    1.386   .     A
C536   C556    1.422   .     S
C536   C538    1.387   .     A
C537   N592    1.439   .     S
C537   C539    1.399   .     A
C538   N593    1.439   .     S
C538   C540    1.402   .     A
C539   C541    1.424   .     A
C539   C546    1.415   .     A
C540   C542    1.413   .     A
C540   C547    1.402   .     A
C541   C543    1.433   .     A
C541   C1226   1.402   1_554 S
C542   C545    1.418   .     A
C542   C1225   1.402   .     S
C543   C553    1.431   .     A
C543   C558    1.417   .     A
C544   O601    1.292   .     A
C544   C555    1.404   .     S
C544   O599    1.287   .     A
C545   C552    1.413   .     A
C546   O606    1.392   .     S
C546   C1236   1.401   1_554 S
C547   O598    1.384   .     S
C547   C1237   1.390   .     S
C548   C549    1.525   .     S
C548   H561    1.109   .     S
C549   H565    1.110   .     S
C549   H564    1.106   .     S
C549   H563    1.110   .     S
C550   O598    1.413   .     S
C550   H566    1.115   .     S
C551   H569    1.110   .     S
C551   C626    1.520   .     S
C551   H647    1.109   .     S
C552   N594    1.431   .     S
C552   C1230   1.401   .     S
C553   N595    1.432   .     S
C553   C1231   1.390   1_554 S
C554   C99     1.332   1_565 S
C554   H103    1.088   1_565 S
C556   O602    1.291   .     A
C556   O604    1.292   .     A
C557   O603    1.295   .     A
C557   O605    1.291   .     A
C558   N590    1.437   .     S
H560   N593    1.042   .     S
H562   C92     1.116   1_565 S
H567   C626    1.114   .     S
H568   C95     1.111   1_565 S
H570   C99     1.088   1_565 S
H572   N594    1.045   .     S
H573   N594    1.039   .     S
H574   N595    1.036   .     S
H575   N595    1.038   .     S
H576   N672    1.044   .     S
H577   N672    1.045   .     S
H580   N590    1.040   .     S
H581   N590    1.041   .     S
H582   N591    1.046   .     S
H583   N591    1.045   .     S
H584   N592    1.045   .     S
H585   N592    1.044   .     S
H586   N593    1.044   .     S
N587   Zn608   2.035   .     S
N587   N665    1.270   .     S
N587   N672    1.384   .     S
N588   H654    1.045   .     S
N588   H655    1.045   .     S
N588   N665    1.385   .     S
N589   Zn607   2.035   .     S
O597   Zn607   1.967   .     S
O599   Zn608   1.967   .     S
O600   Zn608   1.979   .     S
O601   Zn607   1.979   .     S
O602   Zn607   1.990   .     S
O603   Zn608   1.990   .     S
O604   Zn608   2.011   .     S
O605   Zn607   2.011   .     S
O606   C92     1.415   1_565 S
C609   O673    1.287   .     A
C609   C630    1.404   .     S
C609   O676    1.292   .     A
C610   C612    1.396   .     A
C610   C621    1.404   .     A
C610   N667    1.437   .     S
C611   C633    1.428   .     S
C611   C634    1.398   .     A
C611   C613    1.386   .     A
C612   C632    1.422   .     S
C612   C614    1.387   .     A
C613   N668    1.439   .     S
C613   C615    1.399   .     A
C614   N669    1.439   .     S
C614   C616    1.402   .     A
C615   C617    1.424   .     A
C615   C622    1.415   .     A
C616   C618    1.413   .     A
C616   C623    1.402   .     A
C617   C619    1.433   .     A
C617   C1302   1.402   1_554 S
C618   C621    1.418   .     A
C618   C1301   1.402   .     S
C619   C629    1.431   .     A
C619   C634    1.417   .     A
C620   O677    1.292   .     A
C620   C631    1.404   .     S
C620   O675    1.287   .     A
C621   C628    1.413   .     A
C622   O682    1.392   .     S
C622   C1312   1.401   1_554 S
C623   O674    1.384   .     S
C623   C1313   1.390   .     S
C624   C625    1.525   .     S
C624   H637    1.109   .     S
C625   H641    1.110   .     S
C625   H640    1.106   .     S
C625   H639    1.110   .     S
C626   O674    1.413   .     S
C626   H642    1.115   .     S
C627   H645    1.110   .     S
C627   C474    1.520   1_655 S
C627   H495    1.109   1_655 S
C628   N670    1.431   .     S
C628   C1306   1.401   .     S
C629   N671    1.432   .     S
C629   C1307   1.390   1_554 S
C630   C175    1.332   1_565 S
C630   H179    1.088   1_565 S
C632   O678    1.291   .     A
C632   O680    1.292   .     A
C633   O679    1.295   .     A
C633   O681    1.291   .     A
C634   N666    1.437   .     S
H636   N669    1.042   .     S
H638   C168    1.116   1_565 S
H643   C474    1.114   1_655 S
H644   C171    1.111   1_565 S
H646   C175    1.088   1_565 S
H648   N670    1.045   .     S
H649   N670    1.039   .     S
H650   N671    1.036   .     S
H651   N671    1.038   .     S
H652   N520    1.044   1_655 S
H653   N520    1.045   1_655 S
H656   N666    1.040   .     S
H657   N666    1.041   .     S
H658   N667    1.046   .     S
H659   N667    1.045   .     S
H660   N668    1.045   .     S
H661   N668    1.044   .     S
H662   N669    1.044   .     S
N663   Zn684   2.035   .     S
N663   N513    1.270   1_655 S
N663   N520    1.384   1_655 S
N664   H502    1.045   1_655 S
N664   H503    1.045   1_655 S
N664   N513    1.385   1_655 S
N665   Zn683   2.035   .     S
O673   Zn683   1.967   .     S
O675   Zn684   1.967   .     S
O676   Zn684   1.979   .     S
O677   Zn683   1.979   .     S
O678   Zn683   1.990   .     S
O679   Zn684   1.990   .     S
O680   Zn684   2.011   .     S
O681   Zn683   2.011   .     S
O682   C168    1.415   1_565 S
C685   O749    1.287   .     A
C685   C706    1.404   .     S
C685   O752    1.292   .     A
C686   C688    1.396   .     A
C686   C697    1.404   .     A
C686   N743    1.437   .     S
C687   C709    1.428   .     S
C687   C710    1.398   .     A
C687   C689    1.386   .     A
C688   C708    1.422   .     S
C688   C690    1.387   .     A
C689   N744    1.439   .     S
C689   C691    1.399   .     A
C690   N745    1.439   .     S
C690   C692    1.402   .     A
C691   C693    1.424   .     A
C691   C698    1.415   .     A
C692   C694    1.413   .     A
C692   C699    1.402   .     A
C693   C695    1.433   .     A
C694   C697    1.418   .     A
C694   C9      1.402   1_556 S
C695   C705    1.431   .     A
C695   C710    1.417   .     A
C696   O753    1.292   .     A
C696   C707    1.404   .     S
C696   O751    1.287   .     A
C697   C704    1.413   .     A
C698   O758    1.392   .     S
C699   O750    1.384   .     S
C699   C21     1.390   1_556 S
C700   C701    1.525   .     S
C700   H713    1.109   .     S
C700   H1170   1.116   1_545 S
C700   O1214   1.415   1_545 S
C701   H717    1.110   .     S
C701   H716    1.106   .     S
C701   H715    1.110   .     S
C702   O750    1.413   .     S
C702   H718    1.115   .     S
C702   C855    1.520   1_455 S
C702   H871    1.114   1_455 S
C703   H721    1.110   .     S
C703   C778    1.520   .     S
C703   H1176   1.111   1_545 S
C703   H799    1.109   .     S
C704   N746    1.431   .     S
C704   C14     1.401   1_556 S
C705   N747    1.432   .     S
C706   C935    1.332   .     S
C706   H939    1.088   .     S
C707   C1162   1.332   1_545 S
C707   H1178   1.088   1_545 S
C708   O754    1.291   .     A
C708   O756    1.292   .     A
C709   O755    1.295   .     A
C709   O757    1.291   .     A
C710   N742    1.437   .     S
H711   C1162   1.088   1_545 S
H712   N745    1.042   .     S
H714   C928    1.116   .     S
H719   C778    1.114   .     S
H720   C931    1.111   .     S
H722   C935    1.088   .     S
H723   C855    1.109   1_455 S
H724   N746    1.045   .     S
H725   N746    1.039   .     S
H726   N747    1.036   .     S
H727   N747    1.038   .     S
H728   N824    1.044   .     S
H729   N824    1.045   .     S
H730   N892    1.045   1_455 S
H731   N892    1.045   1_455 S
H732   N742    1.040   .     S
H733   N742    1.041   .     S
H734   N743    1.046   .     S
H735   N743    1.045   .     S
H736   N744    1.045   .     S
H737   N744    1.044   .     S
H738   N745    1.044   .     S
N739   Zn760   2.035   .     S
N739   N817    1.270   .     S
N739   N824    1.384   .     S
N740   H806    1.045   .     S
N740   H807    1.045   .     S
N740   N817    1.385   .     S
N741   Zn759   2.035   .     S
N741   N891    1.270   1_455 S
N741   N892    1.385   1_455 S
N748   N891    1.384   1_455 S
N748   H881    1.045   1_455 S
N748   H880    1.044   1_455 S
O749   Zn759   1.967   .     S
O751   Zn760   1.967   .     S
O752   Zn760   1.979   .     S
O753   Zn759   1.979   .     S
O754   Zn759   1.990   .     S
O755   Zn760   1.990   .     S
O756   Zn760   2.011   .     S
O757   Zn759   2.011   .     S
O758   C928    1.415   .     S
C761   O825    1.287   .     A
C761   C782    1.404   .     S
C761   O828    1.292   .     A
C762   C764    1.396   .     A
C762   C773    1.404   .     A
C762   N819    1.437   .     S
C763   C785    1.428   .     S
C763   C786    1.398   .     A
C763   C765    1.386   .     A
C764   C784    1.422   .     S
C764   C766    1.387   .     A
C765   N820    1.439   .     S
C765   C767    1.399   .     A
C766   N821    1.439   .     S
C766   C768    1.402   .     A
C767   C769    1.424   .     A
C767   C774    1.415   .     A
C768   C770    1.413   .     A
C768   C775    1.402   .     A
C769   C771    1.433   .     A
C770   C773    1.418   .     A
C770   C85     1.402   1_556 S
C771   C781    1.431   .     A
C771   C786    1.417   .     A
C772   O829    1.292   .     A
C772   C783    1.404   .     S
C772   O827    1.287   .     A
C773   C780    1.413   .     A
C774   O834    1.392   .     S
C775   O826    1.384   .     S
C775   C97     1.390   1_556 S
C776   C777    1.525   .     S
C776   H789    1.109   .     S
C776   H1246   1.116   1_545 S
C776   O1290   1.415   1_545 S
C777   H793    1.110   .     S
C777   H792    1.106   .     S
C777   H791    1.110   .     S
C778   O826    1.413   .     S
C778   H794    1.115   .     S
C779   H797    1.110   .     S
C779   C854    1.520   .     S
C779   H1252   1.111   1_545 S
C779   H875    1.109   .     S
C780   N822    1.431   .     S
C780   C90     1.401   1_556 S
C781   N823    1.432   .     S
C782   C1011   1.332   .     S
C782   H1015   1.088   .     S
C783   C1238   1.332   1_545 S
C783   H1254   1.088   1_545 S
C784   O830    1.291   .     A
C784   O832    1.292   .     A
C785   O831    1.295   .     A
C785   O833    1.291   .     A
C786   N818    1.437   .     S
H787   C1238   1.088   1_545 S
H788   N821    1.042   .     S
H790   C1004   1.116   .     S
H795   C854    1.114   .     S
H796   C1007   1.111   .     S
H798   C1011   1.088   .     S
H800   N822    1.045   .     S
H801   N822    1.039   .     S
H802   N823    1.036   .     S
H803   N823    1.038   .     S
H804   N900    1.044   .     S
H805   N900    1.045   .     S
H808   N818    1.040   .     S
H809   N818    1.041   .     S
H810   N819    1.046   .     S
H811   N819    1.045   .     S
H812   N820    1.045   .     S
H813   N820    1.044   .     S
H814   N821    1.044   .     S
N815   Zn836   2.035   .     S
N815   N893    1.270   .     S
N815   N900    1.384   .     S
N816   H882    1.045   .     S
N816   H883    1.045   .     S
N816   N893    1.385   .     S
N817   Zn835   2.035   .     S
O825   Zn835   1.967   .     S
O827   Zn836   1.967   .     S
O828   Zn836   1.979   .     S
O829   Zn835   1.979   .     S
O830   Zn835   1.990   .     S
O831   Zn836   1.990   .     S
O832   Zn836   2.011   .     S
O833   Zn835   2.011   .     S
O834   C1004   1.415   .     S
C837   O901    1.287   .     A
C837   C858    1.404   .     S
C837   O904    1.292   .     A
C838   C840    1.396   .     A
C838   C849    1.404   .     A
C838   N895    1.437   .     S
C839   C861    1.428   .     S
C839   C862    1.398   .     A
C839   C841    1.386   .     A
C840   C860    1.422   .     S
C840   C842    1.387   .     A
C841   N896    1.439   .     S
C841   C843    1.399   .     A
C842   N897    1.439   .     S
C842   C844    1.402   .     A
C843   C845    1.424   .     A
C843   C850    1.415   .     A
C844   C846    1.413   .     A
C844   C851    1.402   .     A
C845   C847    1.433   .     A
C846   C849    1.418   .     A
C846   C161    1.402   1_556 S
C847   C857    1.431   .     A
C847   C862    1.417   .     A
C848   O905    1.292   .     A
C848   C859    1.404   .     S
C848   O903    1.287   .     A
C849   C856    1.413   .     A
C850   O910    1.392   .     S
C851   O902    1.384   .     S
C851   C173    1.390   1_556 S
C852   C853    1.525   .     S
C852   H865    1.109   .     S
C852   H1322   1.116   1_545 S
C852   O1366   1.415   1_545 S
C853   H869    1.110   .     S
C853   H868    1.106   .     S
C853   H867    1.110   .     S
C854   O902    1.413   .     S
C854   H870    1.115   .     S
C855   H873    1.110   .     S
C855   C702    1.520   1_655 S
C855   H1328   1.111   1_545 S
C855   H723    1.109   1_655 S
C856   N898    1.431   .     S
C856   C166    1.401   1_556 S
C857   N899    1.432   .     S
C858   C1087   1.332   .     S
C858   H1091   1.088   .     S
C859   C1314   1.332   1_545 S
C859   H1330   1.088   1_545 S
C860   O906    1.291   .     A
C860   O908    1.292   .     A
C861   O907    1.295   .     A
C861   O909    1.291   .     A
C862   N894    1.437   .     S
H863   C1314   1.088   1_545 S
H864   N897    1.042   .     S
H866   C1080   1.116   .     S
H871   C702    1.114   1_655 S
H872   C1083   1.111   .     S
H874   C1087   1.088   .     S
H876   N898    1.045   .     S
H877   N898    1.039   .     S
H878   N899    1.036   .     S
H879   N899    1.038   .     S
H880   N748    1.044   1_655 S
H881   N748    1.045   1_655 S
H884   N894    1.040   .     S
H885   N894    1.041   .     S
H886   N895    1.046   .     S
H887   N895    1.045   .     S
H888   N896    1.045   .     S
H889   N896    1.044   .     S
H890   N897    1.044   .     S
N891   Zn912   2.035   .     S
N891   N741    1.270   1_655 S
N891   N748    1.384   1_655 S
N892   H730    1.045   1_655 S
N892   H731    1.045   1_655 S
N892   N741    1.385   1_655 S
N893   Zn911   2.035   .     S
O901   Zn911   1.967   .     S
O903   Zn912   1.967   .     S
O904   Zn912   1.979   .     S
O905   Zn911   1.979   .     S
O906   Zn911   1.990   .     S
O907   Zn912   1.990   .     S
O908   Zn912   2.011   .     S
O909   Zn911   2.011   .     S
O910   C1080   1.415   .     S
C913   O977    1.287   .     A
C913   C934    1.404   .     S
C913   O980    1.292   .     A
C914   C916    1.396   .     A
C914   C925    1.404   .     A
C914   N971    1.437   .     S
C915   C937    1.428   .     S
C915   C938    1.398   .     A
C915   C917    1.386   .     A
C916   C936    1.422   .     S
C916   C918    1.387   .     A
C917   N972    1.439   .     S
C917   C919    1.399   .     A
C918   N973    1.439   .     S
C918   C920    1.402   .     A
C919   C921    1.424   .     A
C919   C926    1.415   .     A
C920   C922    1.413   .     A
C920   C927    1.402   .     A
C921   C923    1.433   .     A
C922   C925    1.418   .     A
C922   C237    1.402   1_556 S
C923   C933    1.431   .     A
C923   C938    1.417   .     A
C924   O981    1.292   .     A
C924   C935    1.404   .     S
C924   O979    1.287   .     A
C925   C932    1.413   .     A
C926   O986    1.392   .     S
C927   O978    1.384   .     S
C927   C249    1.390   1_556 S
C928   C929    1.525   .     S
C928   H941    1.109   .     S
C929   H945    1.110   .     S
C929   H944    1.106   .     S
C929   H943    1.110   .     S
C930   O978    1.413   .     S
C930   H946    1.115   .     S
C930   C1083   1.520   1_455 S
C930   H1099   1.114   1_455 S
C931   H949    1.110   .     S
C931   C1006   1.520   .     S
C931   H1027   1.109   .     S
C932   N974    1.431   .     S
C932   C242    1.401   1_556 S
C933   N975    1.432   .     S
C934   C1163   1.332   .     S
C934   H1167   1.088   .     S
C936   O982    1.291   .     A
C936   O984    1.292   .     A
C937   O983    1.295   .     A
C937   O985    1.291   .     A
C938   N970    1.437   .     S
H940   N973    1.042   .     S
H942   C1156   1.116   .     S
H947   C1006   1.114   .     S
H948   C1159   1.111   .     S
H950   C1163   1.088   .     S
H951   C1083   1.109   1_455 S
H952   N974    1.045   .     S
H953   N974    1.039   .     S
H954   N975    1.036   .     S
H955   N975    1.038   .     S
H956   N1052   1.044   .     S
H957   N1052   1.045   .     S
H958   N1120   1.045   1_455 S
H959   N1120   1.045   1_455 S
H960   N970    1.040   .     S
H961   N970    1.041   .     S
H962   N971    1.046   .     S
H963   N971    1.045   .     S
H964   N972    1.045   .     S
H965   N972    1.044   .     S
H966   N973    1.044   .     S
N967   Zn988   2.035   .     S
N967   N1045   1.270   .     S
N967   N1052   1.384   .     S
N968   H1034   1.045   .     S
N968   H1035   1.045   .     S
N968   N1045   1.385   .     S
N969   Zn987   2.035   .     S
N969   N1119   1.270   1_455 S
N969   N1120   1.385   1_455 S
N976   N1119   1.384   1_455 S
N976   H1109   1.045   1_455 S
N976   H1108   1.044   1_455 S
O977   Zn987   1.967   .     S
O979   Zn988   1.967   .     S
O980   Zn988   1.979   .     S
O981   Zn987   1.979   .     S
O982   Zn987   1.990   .     S
O983   Zn988   1.990   .     S
O984   Zn988   2.011   .     S
O985   Zn987   2.011   .     S
O986   C1156   1.415   .     S
C989   O1053   1.287   .     A
C989   C1010   1.404   .     S
C989   O1056   1.292   .     A
C990   C992    1.396   .     A
C990   C1001   1.404   .     A
C990   N1047   1.437   .     S
C991   C1013   1.428   .     S
C991   C1014   1.398   .     A
C991   C993    1.386   .     A
C992   C1012   1.422   .     S
C992   C994    1.387   .     A
C993   N1048   1.439   .     S
C993   C995    1.399   .     A
C994   N1049   1.439   .     S
C994   C996    1.402   .     A
C995   C997    1.424   .     A
C995   C1002   1.415   .     A
C996   C998    1.413   .     A
C996   C1003   1.402   .     A
C997   C999    1.433   .     A
C998   C1001   1.418   .     A
C998   C313    1.402   1_556 S
C999   C1009   1.431   .     A
C999   C1014   1.417   .     A
C1000  O1057   1.292   .     A
C1000  C1011   1.404   .     S
C1000  O1055   1.287   .     A
C1001  C1008   1.413   .     A
C1002  O1062   1.392   .     S
C1003  O1054   1.384   .     S
C1003  C325    1.390   1_556 S
C1004  C1005   1.525   .     S
C1004  H1017   1.109   .     S
C1005  H1021   1.110   .     S
C1005  H1020   1.106   .     S
C1005  H1019   1.110   .     S
C1006  O1054   1.413   .     S
C1006  H1022   1.115   .     S
C1007  H1025   1.110   .     S
C1007  C1082   1.520   .     S
C1007  H1103   1.109   .     S
C1008  N1050   1.431   .     S
C1008  C318    1.401   1_556 S
C1009  N1051   1.432   .     S
C1010  C1239   1.332   .     S
C1010  H1243   1.088   .     S
C1012  O1058   1.291   .     A
C1012  O1060   1.292   .     A
C1013  O1059   1.295   .     A
C1013  O1061   1.291   .     A
C1014  N1046   1.437   .     S
H1016  N1049   1.042   .     S
H1018  C1232   1.116   .     S
H1023  C1082   1.114   .     S
H1024  C1235   1.111   .     S
H1026  C1239   1.088   .     S
H1028  N1050   1.045   .     S
H1029  N1050   1.039   .     S
H1030  N1051   1.036   .     S
H1031  N1051   1.038   .     S
H1032  N1128   1.044   .     S
H1033  N1128   1.045   .     S
H1036  N1046   1.040   .     S
H1037  N1046   1.041   .     S
H1038  N1047   1.046   .     S
H1039  N1047   1.045   .     S
H1040  N1048   1.045   .     S
H1041  N1048   1.044   .     S
H1042  N1049   1.044   .     S
N1043  Zn1064  2.035   .     S
N1043  N1121   1.270   .     S
N1043  N1128   1.384   .     S
N1044  H1110   1.045   .     S
N1044  H1111   1.045   .     S
N1044  N1121   1.385   .     S
N1045  Zn1063  2.035   .     S
O1053  Zn1063  1.967   .     S
O1055  Zn1064  1.967   .     S
O1056  Zn1064  1.979   .     S
O1057  Zn1063  1.979   .     S
O1058  Zn1063  1.990   .     S
O1059  Zn1064  1.990   .     S
O1060  Zn1064  2.011   .     S
O1061  Zn1063  2.011   .     S
O1062  C1232   1.415   .     S
C1065  O1129   1.287   .     A
C1065  C1086   1.404   .     S
C1065  O1132   1.292   .     A
C1066  C1068   1.396   .     A
C1066  C1077   1.404   .     A
C1066  N1123   1.437   .     S
C1067  C1089   1.428   .     S
C1067  C1090   1.398   .     A
C1067  C1069   1.386   .     A
C1068  C1088   1.422   .     S
C1068  C1070   1.387   .     A
C1069  N1124   1.439   .     S
C1069  C1071   1.399   .     A
C1070  N1125   1.439   .     S
C1070  C1072   1.402   .     A
C1071  C1073   1.424   .     A
C1071  C1078   1.415   .     A
C1072  C1074   1.413   .     A
C1072  C1079   1.402   .     A
C1073  C1075   1.433   .     A
C1074  C1077   1.418   .     A
C1074  C389    1.402   1_556 S
C1075  C1085   1.431   .     A
C1075  C1090   1.417   .     A
C1076  O1133   1.292   .     A
C1076  C1087   1.404   .     S
C1076  O1131   1.287   .     A
C1077  C1084   1.413   .     A
C1078  O1138   1.392   .     S
C1079  O1130   1.384   .     S
C1079  C401    1.390   1_556 S
C1080  C1081   1.525   .     S
C1080  H1093   1.109   .     S
C1081  H1097   1.110   .     S
C1081  H1096   1.106   .     S
C1081  H1095   1.110   .     S
C1082  O1130   1.413   .     S
C1082  H1098   1.115   .     S
C1083  H1101   1.110   .     S
C1083  C930    1.520   1_655 S
C1083  H951    1.109   1_655 S
C1084  N1126   1.431   .     S
C1084  C394    1.401   1_556 S
C1085  N1127   1.432   .     S
C1086  C1315   1.332   .     S
C1086  H1319   1.088   .     S
C1088  O1134   1.291   .     A
C1088  O1136   1.292   .     A
C1089  O1135   1.295   .     A
C1089  O1137   1.291   .     A
C1090  N1122   1.437   .     S
H1092  N1125   1.042   .     S
H1094  C1308   1.116   .     S
H1099  C930    1.114   1_655 S
H1100  C1311   1.111   .     S
H1102  C1315   1.088   .     S
H1104  N1126   1.045   .     S
H1105  N1126   1.039   .     S
H1106  N1127   1.036   .     S
H1107  N1127   1.038   .     S
H1108  N976    1.044   1_655 S
H1109  N976    1.045   1_655 S
H1112  N1122   1.040   .     S
H1113  N1122   1.041   .     S
H1114  N1123   1.046   .     S
H1115  N1123   1.045   .     S
H1116  N1124   1.045   .     S
H1117  N1124   1.044   .     S
H1118  N1125   1.044   .     S
N1119  Zn1140  2.035   .     S
N1119  N969    1.270   1_655 S
N1119  N976    1.384   1_655 S
N1120  H958    1.045   1_655 S
N1120  H959    1.045   1_655 S
N1120  N969    1.385   1_655 S
N1121  Zn1139  2.035   .     S
O1129  Zn1139  1.967   .     S
O1131  Zn1140  1.967   .     S
O1132  Zn1140  1.979   .     S
O1133  Zn1139  1.979   .     S
O1134  Zn1139  1.990   .     S
O1135  Zn1140  1.990   .     S
O1136  Zn1140  2.011   .     S
O1137  Zn1139  2.011   .     S
O1138  C1308   1.415   .     S
C1141  O1205   1.287   .     A
C1141  C1162   1.404   .     S
C1141  O1208   1.292   .     A
C1142  C1144   1.396   .     A
C1142  C1153   1.404   .     A
C1142  N1199   1.437   .     S
C1143  C1165   1.428   .     S
C1143  C1166   1.398   .     A
C1143  C1145   1.386   .     A
C1144  C1164   1.422   .     S
C1144  C1146   1.387   .     A
C1145  N1200   1.439   .     S
C1145  C1147   1.399   .     A
C1146  N1201   1.439   .     S
C1146  C1148   1.402   .     A
C1147  C1149   1.424   .     A
C1147  C1154   1.415   .     A
C1148  C1150   1.413   .     A
C1148  C1155   1.402   .     A
C1149  C1151   1.433   .     A
C1150  C1153   1.418   .     A
C1150  C465    1.402   1_556 S
C1151  C1161   1.431   .     A
C1151  C1166   1.417   .     A
C1152  O1209   1.292   .     A
C1152  C1163   1.404   .     S
C1152  O1207   1.287   .     A
C1153  C1160   1.413   .     A
C1154  O1214   1.392   .     S
C1155  O1206   1.384   .     S
C1155  C477    1.390   1_556 S
C1156  C1157   1.525   .     S
C1156  H1169   1.109   .     S
C1157  H1173   1.110   .     S
C1157  H1172   1.106   .     S
C1157  H1171   1.110   .     S
C1158  O1206   1.413   .     S
C1158  H1174   1.115   .     S
C1158  C1311   1.520   1_455 S
C1158  H1327   1.114   1_455 S
C1159  H1177   1.110   .     S
C1159  C1234   1.520   .     S
C1159  H1255   1.109   .     S
C1160  N1202   1.431   .     S
C1160  C470    1.401   1_556 S
C1161  N1203   1.432   .     S
C1162  C707    1.332   1_565 S
C1162  H711    1.088   1_565 S
C1164  O1210   1.291   .     A
C1164  O1212   1.292   .     A
C1165  O1211   1.295   .     A
C1165  O1213   1.291   .     A
C1166  N1198   1.437   .     S
H1168  N1201   1.042   .     S
H1170  C700    1.116   1_565 S
H1175  C1234   1.114   .     S
H1176  C703    1.111   1_565 S
H1178  C707    1.088   1_565 S
H1179  C1311   1.109   1_455 S
H1180  N1202   1.045   .     S
H1181  N1202   1.039   .     S
H1182  N1203   1.036   .     S
H1183  N1203   1.038   .     S
H1184  N1280   1.044   .     S
H1185  N1280   1.045   .     S
H1186  N1348   1.045   1_455 S
H1187  N1348   1.045   1_455 S
H1188  N1198   1.040   .     S
H1189  N1198   1.041   .     S
H1190  N1199   1.046   .     S
H1191  N1199   1.045   .     S
H1192  N1200   1.045   .     S
H1193  N1200   1.044   .     S
H1194  N1201   1.044   .     S
N1195  Zn1216  2.035   .     S
N1195  N1273   1.270   .     S
N1195  N1280   1.384   .     S
N1196  H1262   1.045   .     S
N1196  H1263   1.045   .     S
N1196  N1273   1.385   .     S
N1197  Zn1215  2.035   .     S
N1197  N1347   1.270   1_455 S
N1197  N1348   1.385   1_455 S
N1204  N1347   1.384   1_455 S
N1204  H1337   1.045   1_455 S
N1204  H1336   1.044   1_455 S
O1205  Zn1215  1.967   .     S
O1207  Zn1216  1.967   .     S
O1208  Zn1216  1.979   .     S
O1209  Zn1215  1.979   .     S
O1210  Zn1215  1.990   .     S
O1211  Zn1216  1.990   .     S
O1212  Zn1216  2.011   .     S
O1213  Zn1215  2.011   .     S
O1214  C700    1.415   1_565 S
C1217  O1281   1.287   .     A
C1217  C1238   1.404   .     S
C1217  O1284   1.292   .     A
C1218  C1220   1.396   .     A
C1218  C1229   1.404   .     A
C1218  N1275   1.437   .     S
C1219  C1241   1.428   .     S
C1219  C1242   1.398   .     A
C1219  C1221   1.386   .     A
C1220  C1240   1.422   .     S
C1220  C1222   1.387   .     A
C1221  N1276   1.439   .     S
C1221  C1223   1.399   .     A
C1222  N1277   1.439   .     S
C1222  C1224   1.402   .     A
C1223  C1225   1.424   .     A
C1223  C1230   1.415   .     A
C1224  C1226   1.413   .     A
C1224  C1231   1.402   .     A
C1225  C1227   1.433   .     A
C1226  C1229   1.418   .     A
C1226  C541    1.402   1_556 S
C1227  C1237   1.431   .     A
C1227  C1242   1.417   .     A
C1228  O1285   1.292   .     A
C1228  C1239   1.404   .     S
C1228  O1283   1.287   .     A
C1229  C1236   1.413   .     A
C1230  O1290   1.392   .     S
C1231  O1282   1.384   .     S
C1231  C553    1.390   1_556 S
C1232  C1233   1.525   .     S
C1232  H1245   1.109   .     S
C1233  H1249   1.110   .     S
C1233  H1248   1.106   .     S
C1233  H1247   1.110   .     S
C1234  O1282   1.413   .     S
C1234  H1250   1.115   .     S
C1235  H1253   1.110   .     S
C1235  C1310   1.520   .     S
C1235  H1331   1.109   .     S
C1236  N1278   1.431   .     S
C1236  C546    1.401   1_556 S
C1237  N1279   1.432   .     S
C1238  C783    1.332   1_565 S
C1238  H787    1.088   1_565 S
C1240  O1286   1.291   .     A
C1240  O1288   1.292   .     A
C1241  O1287   1.295   .     A
C1241  O1289   1.291   .     A
C1242  N1274   1.437   .     S
H1244  N1277   1.042   .     S
H1246  C776    1.116   1_565 S
H1251  C1310   1.114   .     S
H1252  C779    1.111   1_565 S
H1254  C783    1.088   1_565 S
H1256  N1278   1.045   .     S
H1257  N1278   1.039   .     S
H1258  N1279   1.036   .     S
H1259  N1279   1.038   .     S
H1260  N1356   1.044   .     S
H1261  N1356   1.045   .     S
H1264  N1274   1.040   .     S
H1265  N1274   1.041   .     S
H1266  N1275   1.046   .     S
H1267  N1275   1.045   .     S
H1268  N1276   1.045   .     S
H1269  N1276   1.044   .     S
H1270  N1277   1.044   .     S
N1271  Zn1292  2.035   .     S
N1271  N1349   1.270   .     S
N1271  N1356   1.384   .     S
N1272  H1338   1.045   .     S
N1272  H1339   1.045   .     S
N1272  N1349   1.385   .     S
N1273  Zn1291  2.035   .     S
O1281  Zn1291  1.967   .     S
O1283  Zn1292  1.967   .     S
O1284  Zn1292  1.979   .     S
O1285  Zn1291  1.979   .     S
O1286  Zn1291  1.990   .     S
O1287  Zn1292  1.990   .     S
O1288  Zn1292  2.011   .     S
O1289  Zn1291  2.011   .     S
O1290  C776    1.415   1_565 S
C1293  O1357   1.287   .     A
C1293  C1314   1.404   .     S
C1293  O1360   1.292   .     A
C1294  C1296   1.396   .     A
C1294  C1305   1.404   .     A
C1294  N1351   1.437   .     S
C1295  C1317   1.428   .     S
C1295  C1318   1.398   .     A
C1295  C1297   1.386   .     A
C1296  C1316   1.422   .     S
C1296  C1298   1.387   .     A
C1297  N1352   1.439   .     S
C1297  C1299   1.399   .     A
C1298  N1353   1.439   .     S
C1298  C1300   1.402   .     A
C1299  C1301   1.424   .     A
C1299  C1306   1.415   .     A
C1300  C1302   1.413   .     A
C1300  C1307   1.402   .     A
C1301  C1303   1.433   .     A
C1302  C1305   1.418   .     A
C1302  C617    1.402   1_556 S
C1303  C1313   1.431   .     A
C1303  C1318   1.417   .     A
C1304  O1361   1.292   .     A
C1304  C1315   1.404   .     S
C1304  O1359   1.287   .     A
C1305  C1312   1.413   .     A
C1306  O1366   1.392   .     S
C1307  O1358   1.384   .     S
C1307  C629    1.390   1_556 S
C1308  C1309   1.525   .     S
C1308  H1321   1.109   .     S
C1309  H1325   1.110   .     S
C1309  H1324   1.106   .     S
C1309  H1323   1.110   .     S
C1310  O1358   1.413   .     S
C1310  H1326   1.115   .     S
C1311  H1329   1.110   .     S
C1311  C1158   1.520   1_655 S
C1311  H1179   1.109   1_655 S
C1312  N1354   1.431   .     S
C1312  C622    1.401   1_556 S
C1313  N1355   1.432   .     S
C1314  C859    1.332   1_565 S
C1314  H863    1.088   1_565 S
C1316  O1362   1.291   .     A
C1316  O1364   1.292   .     A
C1317  O1363   1.295   .     A
C1317  O1365   1.291   .     A
C1318  N1350   1.437   .     S
H1320  N1353   1.042   .     S
H1322  C852    1.116   1_565 S
H1327  C1158   1.114   1_655 S
H1328  C855    1.111   1_565 S
H1330  C859    1.088   1_565 S
H1332  N1354   1.045   .     S
H1333  N1354   1.039   .     S
H1334  N1355   1.036   .     S
H1335  N1355   1.038   .     S
H1336  N1204   1.044   1_655 S
H1337  N1204   1.045   1_655 S
H1340  N1350   1.040   .     S
H1341  N1350   1.041   .     S
H1342  N1351   1.046   .     S
H1343  N1351   1.045   .     S
H1344  N1352   1.045   .     S
H1345  N1352   1.044   .     S
H1346  N1353   1.044   .     S
N1347  Zn1368  2.035   .     S
N1347  N1197   1.270   1_655 S
N1347  N1204   1.384   1_655 S
N1348  H1186   1.045   1_655 S
N1348  H1187   1.045   1_655 S
N1348  N1197   1.385   1_655 S
N1349  Zn1367  2.035   .     S
O1357  Zn1367  1.967   .     S
O1359  Zn1368  1.967   .     S
O1360  Zn1368  1.979   .     S
O1361  Zn1367  1.979   .     S
O1362  Zn1367  1.990   .     S
O1363  Zn1368  1.990   .     S
O1364  Zn1368  2.011   .     S
O1365  Zn1367  2.011   .     S
O1366  C852    1.415   1_565 S
