data_str_m3_o10_o16_pcu_sym.49
_audit_creation_date              2020-01-03
_audit_creation_method            'Materials Studio'
_symmetry_space_group_name_H-M    'P1'
_symmetry_Int_Tables_number       1
_symmetry_cell_setting            triclinic
loop_
_symmetry_equiv_pos_as_xyz
  x,y,z
_cell_length_a                    24.0480
_cell_length_b                    25.9109
_cell_length_c                    24.2348
_cell_angle_alpha                 98.8735
_cell_angle_beta                  101.1261
_cell_angle_gamma                 92.5170
loop_
_atom_site_label
_atom_site_type_symbol
_atom_site_fract_x
_atom_site_fract_y
_atom_site_fract_z
_atom_site_U_iso_or_equiv
_atom_site_adp_type
_atom_site_occupancy
C1     C     0.01411   0.26453   0.24859   0.00000  Uiso   1.00
C2     C     0.05534   0.17072   0.41655   0.00000  Uiso   1.00
C3     C     0.02172   0.31874   0.24802   0.00000  Uiso   1.00
C4     C     0.03521   0.16785   0.35503   0.00000  Uiso   1.00
C5     C     0.31161   0.01461   0.25210   0.00000  Uiso   1.00
C6     C     0.31908   0.06876   0.25104   0.00000  Uiso   1.00
C7     C     0.29813   0.16214   0.14426   0.00000  Uiso   1.00
C8     C     0.27436   0.10806   0.48639   0.00000  Uiso   1.00
C9     C     0.28055   0.15608   0.08175   0.00000  Uiso   1.00
C10    C     0.02826   0.20130   0.45439   0.00000  Uiso   1.00
C11    C     0.05783   0.22126   0.00907   0.00000  Uiso   1.00
C12    C     0.14162   0.17698   0.49034   0.00000  Uiso   1.00
C13    C     0.11528   0.21307   0.02531   0.00000  Uiso   1.00
C14    C     0.02625   0.09638   0.05698   0.00000  Uiso   1.00
C15    C     0.07672   0.12618   0.08527   0.00000  Uiso   1.00
C16    C     0.12883   0.10385   0.09128   0.00000  Uiso   1.00
C17    C     0.13240   0.05260   0.06578   0.00000  Uiso   1.00
C18    C     0.08318   0.02291   0.03609   0.00000  Uiso   1.00
C19    C     0.03024   0.04363   0.03368   0.00000  Uiso   1.00
C20    C     0.19001   0.22350   0.31625   0.00000  Uiso   1.00
C21    C     0.24294   0.24973   0.34790   0.00000  Uiso   1.00
C22    C     0.25085   0.28449   0.39959   0.00000  Uiso   1.00
C23    C     0.10913   0.15306   0.43668   0.00000  Uiso   1.00
C24    C     0.20537   0.29761   0.42395   0.00000  Uiso   1.00
C25    C     0.15213   0.27902   0.39385   0.00000  Uiso   1.00
C26    C     0.14521   0.24547   0.34123   0.00000  Uiso   1.00
C27    C     0.19793   0.16203   0.00731   0.00000  Uiso   1.00
C28    C     0.22010   0.12444   0.47012   0.00000  Uiso   1.00
C29    C     0.18667   0.10044   0.41838   0.00000  Uiso   1.00
C30    C     0.13115   0.11264   0.40326   0.00000  Uiso   1.00
C31    C     0.23126   0.17999   0.06164   0.00000  Uiso   1.00
C32    C     0.30478   0.12140   0.04269   0.00000  Uiso   1.00
H33    H     0.27018   0.33220   0.25618   0.00000  Uiso   1.00
H34    H     0.06319   0.00116   0.24407   0.00000  Uiso   1.00
H35    H     0.07657   0.16739   0.10124   0.00000  Uiso   1.00
H36    H     0.16681   0.12706   0.11398   0.00000  Uiso   1.00
H37    H     0.17331   0.03628   0.06818   0.00000  Uiso   1.00
H38    H     0.08647   0.31777   0.01368   0.00000  Uiso   1.00
H39    H     0.32594   0.01915   0.01136   0.00000  Uiso   1.00
H40    H     0.28168   0.24800   0.33591   0.00000  Uiso   1.00
H41    H     0.29299   0.30164   0.42036   0.00000  Uiso   1.00
H42    H     0.21105   0.32417   0.46409   0.00000  Uiso   1.00
H43    H     0.11539   0.29193   0.41052   0.00000  Uiso   1.00
H44    H     0.15505   0.12265   0.20652   0.00000  Uiso   1.00
H45    H     0.10291   0.24213   0.32553   0.00000  Uiso   1.00
H46    H     0.20264   0.07030   0.39058   0.00000  Uiso   1.00
H47    H     0.29156   0.08193   0.45551   0.00000  Uiso   1.00
H48    H     0.21675   0.20869   0.09170   0.00000  Uiso   1.00
H49    H     0.31896   0.21228   0.44080   0.00000  Uiso   1.00
H50    H     0.13656   0.23332   0.06669   0.00000  Uiso   1.00
H51    H     0.03703   0.24577   0.03805   0.00000  Uiso   1.00
H52    H     0.10538   0.08998   0.36484   0.00000  Uiso   1.00
N53    N     0.14493   0.15223   0.23542   0.00000  Uiso   1.00
N54    N     0.18840   0.18110   0.26457   0.00000  Uiso   1.00
O55    O     0.29769   0.24629   0.25358   0.00000  Uiso   1.00
O56    O     0.05742   0.23704   0.24423   0.00000  Uiso   1.00
O57    O     0.31490   0.17358   0.33380   0.00000  Uiso   1.00
O58    O     0.07463   0.16433   0.32446   0.00000  Uiso   1.00
O59    O     0.27592   0.09629   0.25577   0.00000  Uiso   1.00
O60    O     0.03565   0.08704   0.24642   0.00000  Uiso   1.00
O61    O     0.25870   0.16901   0.17554   0.00000  Uiso   1.00
O62    O     0.01843   0.15976   0.16620   0.00000  Uiso   1.00
Zn63   Zn    0.27119   0.17284   0.25624   0.00000  Uiso   1.00
Zn64   Zn    0.06214   0.16049   0.24376   0.00000  Uiso   1.00
C65    C     0.34745   0.26453   0.24859   0.00000  Uiso   1.00
C66    C     0.38868   0.17072   0.41655   0.00000  Uiso   1.00
C67    C     0.35505   0.31874   0.24802   0.00000  Uiso   1.00
C68    C     0.36855   0.16785   0.35503   0.00000  Uiso   1.00
C69    C     0.64494   0.01461   0.25210   0.00000  Uiso   1.00
C70    C     0.65241   0.06876   0.25104   0.00000  Uiso   1.00
C71    C     0.63146   0.16214   0.14426   0.00000  Uiso   1.00
C72    C     0.60769   0.10806   0.48639   0.00000  Uiso   1.00
C73    C     0.61388   0.15608   0.08175   0.00000  Uiso   1.00
C74    C     0.36160   0.20130   0.45439   0.00000  Uiso   1.00
C75    C     0.39116   0.22126   0.00907   0.00000  Uiso   1.00
C76    C     0.47496   0.17698   0.49034   0.00000  Uiso   1.00
C77    C     0.44861   0.21307   0.02531   0.00000  Uiso   1.00
C78    C     0.35958   0.09638   0.05698   0.00000  Uiso   1.00
C79    C     0.41005   0.12618   0.08527   0.00000  Uiso   1.00
C80    C     0.46216   0.10385   0.09128   0.00000  Uiso   1.00
C81    C     0.46574   0.05260   0.06578   0.00000  Uiso   1.00
C82    C     0.41652   0.02291   0.03609   0.00000  Uiso   1.00
C83    C     0.36358   0.04363   0.03368   0.00000  Uiso   1.00
C84    C     0.52334   0.22350   0.31625   0.00000  Uiso   1.00
C85    C     0.57627   0.24973   0.34790   0.00000  Uiso   1.00
C86    C     0.58418   0.28449   0.39959   0.00000  Uiso   1.00
C87    C     0.44246   0.15306   0.43668   0.00000  Uiso   1.00
C88    C     0.53871   0.29761   0.42395   0.00000  Uiso   1.00
C89    C     0.48546   0.27902   0.39385   0.00000  Uiso   1.00
C90    C     0.47854   0.24547   0.34123   0.00000  Uiso   1.00
C91    C     0.53126   0.16203   0.00731   0.00000  Uiso   1.00
C92    C     0.55344   0.12444   0.47012   0.00000  Uiso   1.00
C93    C     0.52000   0.10044   0.41838   0.00000  Uiso   1.00
C94    C     0.46448   0.11264   0.40326   0.00000  Uiso   1.00
C95    C     0.56459   0.17999   0.06164   0.00000  Uiso   1.00
C96    C     0.63811   0.12140   0.04269   0.00000  Uiso   1.00
H97    H     0.60351   0.33220   0.25618   0.00000  Uiso   1.00
H98    H     0.39653   0.00116   0.24407   0.00000  Uiso   1.00
H99    H     0.40991   0.16739   0.10124   0.00000  Uiso   1.00
H100   H     0.50014   0.12706   0.11398   0.00000  Uiso   1.00
H101   H     0.50664   0.03628   0.06818   0.00000  Uiso   1.00
H102   H     0.41980   0.31777   0.01368   0.00000  Uiso   1.00
H103   H     0.65928   0.01915   0.01136   0.00000  Uiso   1.00
H104   H     0.61502   0.24800   0.33591   0.00000  Uiso   1.00
H105   H     0.62632   0.30164   0.42036   0.00000  Uiso   1.00
H106   H     0.54438   0.32417   0.46409   0.00000  Uiso   1.00
H107   H     0.44872   0.29193   0.41052   0.00000  Uiso   1.00
H108   H     0.48839   0.12265   0.20652   0.00000  Uiso   1.00
H109   H     0.43624   0.24213   0.32553   0.00000  Uiso   1.00
H110   H     0.53598   0.07030   0.39058   0.00000  Uiso   1.00
H111   H     0.62489   0.08193   0.45551   0.00000  Uiso   1.00
H112   H     0.55008   0.20869   0.09170   0.00000  Uiso   1.00
H113   H     0.65230   0.21228   0.44080   0.00000  Uiso   1.00
H114   H     0.46989   0.23332   0.06669   0.00000  Uiso   1.00
H115   H     0.37036   0.24577   0.03805   0.00000  Uiso   1.00
H116   H     0.43872   0.08998   0.36484   0.00000  Uiso   1.00
N117   N     0.47827   0.15223   0.23542   0.00000  Uiso   1.00
N118   N     0.52173   0.18110   0.26457   0.00000  Uiso   1.00
O119   O     0.63102   0.24629   0.25358   0.00000  Uiso   1.00
O120   O     0.39075   0.23704   0.24423   0.00000  Uiso   1.00
O121   O     0.64823   0.17358   0.33380   0.00000  Uiso   1.00
O122   O     0.40796   0.16433   0.32446   0.00000  Uiso   1.00
O123   O     0.60925   0.09629   0.25577   0.00000  Uiso   1.00
O124   O     0.36898   0.08704   0.24642   0.00000  Uiso   1.00
O125   O     0.59204   0.16901   0.17554   0.00000  Uiso   1.00
O126   O     0.35177   0.15976   0.16620   0.00000  Uiso   1.00
Zn127  Zn    0.60453   0.17284   0.25624   0.00000  Uiso   1.00
Zn128  Zn    0.39547   0.16049   0.24376   0.00000  Uiso   1.00
C129   C     0.68078   0.26453   0.24859   0.00000  Uiso   1.00
C130   C     0.72201   0.17072   0.41655   0.00000  Uiso   1.00
C131   C     0.68839   0.31874   0.24802   0.00000  Uiso   1.00
C132   C     0.70188   0.16785   0.35503   0.00000  Uiso   1.00
C133   C     0.97828   0.01461   0.25210   0.00000  Uiso   1.00
C134   C     0.98575   0.06876   0.25104   0.00000  Uiso   1.00
C135   C     0.96480   0.16214   0.14426   0.00000  Uiso   1.00
C136   C     0.94103   0.10806   0.48639   0.00000  Uiso   1.00
C137   C     0.94722   0.15608   0.08175   0.00000  Uiso   1.00
C138   C     0.69493   0.20130   0.45439   0.00000  Uiso   1.00
C139   C     0.72450   0.22126   0.00907   0.00000  Uiso   1.00
C140   C     0.80829   0.17698   0.49034   0.00000  Uiso   1.00
C141   C     0.78195   0.21307   0.02531   0.00000  Uiso   1.00
C142   C     0.69291   0.09638   0.05698   0.00000  Uiso   1.00
C143   C     0.74339   0.12618   0.08527   0.00000  Uiso   1.00
C144   C     0.79550   0.10385   0.09128   0.00000  Uiso   1.00
C145   C     0.79907   0.05260   0.06578   0.00000  Uiso   1.00
C146   C     0.74985   0.02291   0.03609   0.00000  Uiso   1.00
C147   C     0.69691   0.04363   0.03368   0.00000  Uiso   1.00
C148   C     0.85667   0.22350   0.31625   0.00000  Uiso   1.00
C149   C     0.90961   0.24973   0.34790   0.00000  Uiso   1.00
C150   C     0.91751   0.28449   0.39959   0.00000  Uiso   1.00
C151   C     0.77579   0.15306   0.43668   0.00000  Uiso   1.00
C152   C     0.87204   0.29761   0.42395   0.00000  Uiso   1.00
C153   C     0.81880   0.27902   0.39385   0.00000  Uiso   1.00
C154   C     0.81187   0.24547   0.34123   0.00000  Uiso   1.00
C155   C     0.86459   0.16203   0.00731   0.00000  Uiso   1.00
C156   C     0.88677   0.12444   0.47012   0.00000  Uiso   1.00
C157   C     0.85333   0.10044   0.41838   0.00000  Uiso   1.00
C158   C     0.79782   0.11264   0.40326   0.00000  Uiso   1.00
C159   C     0.89793   0.17999   0.06164   0.00000  Uiso   1.00
C160   C     0.97145   0.12140   0.04269   0.00000  Uiso   1.00
H161   H     0.93684   0.33220   0.25618   0.00000  Uiso   1.00
H162   H     0.72986   0.00116   0.24407   0.00000  Uiso   1.00
H163   H     0.74324   0.16739   0.10124   0.00000  Uiso   1.00
H164   H     0.83347   0.12706   0.11398   0.00000  Uiso   1.00
H165   H     0.83998   0.03628   0.06818   0.00000  Uiso   1.00
H166   H     0.75314   0.31777   0.01368   0.00000  Uiso   1.00
H167   H     0.99261   0.01915   0.01136   0.00000  Uiso   1.00
H168   H     0.94835   0.24800   0.33591   0.00000  Uiso   1.00
H169   H     0.95966   0.30164   0.42036   0.00000  Uiso   1.00
H170   H     0.87772   0.32417   0.46409   0.00000  Uiso   1.00
H171   H     0.78205   0.29193   0.41052   0.00000  Uiso   1.00
H172   H     0.82172   0.12265   0.20652   0.00000  Uiso   1.00
H173   H     0.76957   0.24213   0.32553   0.00000  Uiso   1.00
H174   H     0.86931   0.07030   0.39058   0.00000  Uiso   1.00
H175   H     0.95823   0.08193   0.45551   0.00000  Uiso   1.00
H176   H     0.88342   0.20869   0.09170   0.00000  Uiso   1.00
H177   H     0.98563   0.21228   0.44080   0.00000  Uiso   1.00
H178   H     0.80323   0.23332   0.06669   0.00000  Uiso   1.00
H179   H     0.70370   0.24577   0.03805   0.00000  Uiso   1.00
H180   H     0.77205   0.08998   0.36484   0.00000  Uiso   1.00
N181   N     0.81160   0.15223   0.23542   0.00000  Uiso   1.00
N182   N     0.85507   0.18110   0.26457   0.00000  Uiso   1.00
O183   O     0.96435   0.24629   0.25358   0.00000  Uiso   1.00
O184   O     0.72408   0.23704   0.24423   0.00000  Uiso   1.00
O185   O     0.98157   0.17358   0.33380   0.00000  Uiso   1.00
O186   O     0.74130   0.16433   0.32446   0.00000  Uiso   1.00
O187   O     0.94258   0.09629   0.25577   0.00000  Uiso   1.00
O188   O     0.70231   0.08704   0.24642   0.00000  Uiso   1.00
O189   O     0.92537   0.16901   0.17554   0.00000  Uiso   1.00
O190   O     0.68510   0.15976   0.16620   0.00000  Uiso   1.00
Zn191  Zn    0.93786   0.17284   0.25624   0.00000  Uiso   1.00
Zn192  Zn    0.72881   0.16049   0.24376   0.00000  Uiso   1.00
C193   C     0.01411   0.59787   0.24859   0.00000  Uiso   1.00
C194   C     0.05534   0.50405   0.41655   0.00000  Uiso   1.00
C195   C     0.02172   0.65207   0.24802   0.00000  Uiso   1.00
C196   C     0.03521   0.50119   0.35503   0.00000  Uiso   1.00
C197   C     0.31161   0.34795   0.25210   0.00000  Uiso   1.00
C198   C     0.31908   0.40209   0.25104   0.00000  Uiso   1.00
C199   C     0.29813   0.49547   0.14426   0.00000  Uiso   1.00
C200   C     0.27436   0.44139   0.48639   0.00000  Uiso   1.00
C201   C     0.28055   0.48941   0.08175   0.00000  Uiso   1.00
C202   C     0.02826   0.53463   0.45439   0.00000  Uiso   1.00
C203   C     0.05783   0.55460   0.00907   0.00000  Uiso   1.00
C204   C     0.14162   0.51031   0.49034   0.00000  Uiso   1.00
C205   C     0.11528   0.54640   0.02531   0.00000  Uiso   1.00
C206   C     0.02625   0.42972   0.05698   0.00000  Uiso   1.00
C207   C     0.07672   0.45951   0.08527   0.00000  Uiso   1.00
C208   C     0.12883   0.43718   0.09128   0.00000  Uiso   1.00
C209   C     0.13240   0.38594   0.06578   0.00000  Uiso   1.00
C210   C     0.08318   0.35625   0.03609   0.00000  Uiso   1.00
C211   C     0.03024   0.37696   0.03368   0.00000  Uiso   1.00
C212   C     0.19001   0.55683   0.31625   0.00000  Uiso   1.00
C213   C     0.24294   0.58307   0.34790   0.00000  Uiso   1.00
C214   C     0.25085   0.61782   0.39959   0.00000  Uiso   1.00
C215   C     0.10913   0.48639   0.43668   0.00000  Uiso   1.00
C216   C     0.20537   0.63094   0.42395   0.00000  Uiso   1.00
C217   C     0.15213   0.61235   0.39385   0.00000  Uiso   1.00
C218   C     0.14521   0.57880   0.34123   0.00000  Uiso   1.00
C219   C     0.19793   0.49537   0.00731   0.00000  Uiso   1.00
C220   C     0.22010   0.45777   0.47012   0.00000  Uiso   1.00
C221   C     0.18667   0.43378   0.41838   0.00000  Uiso   1.00
C222   C     0.13115   0.44597   0.40326   0.00000  Uiso   1.00
C223   C     0.23126   0.51332   0.06164   0.00000  Uiso   1.00
C224   C     0.30478   0.45473   0.04269   0.00000  Uiso   1.00
H225   H     0.27018   0.66553   0.25618   0.00000  Uiso   1.00
H226   H     0.06319   0.33449   0.24407   0.00000  Uiso   1.00
H227   H     0.07657   0.50073   0.10124   0.00000  Uiso   1.00
H228   H     0.16681   0.46039   0.11398   0.00000  Uiso   1.00
H229   H     0.17331   0.36961   0.06818   0.00000  Uiso   1.00
H230   H     0.08647   0.65110   0.01368   0.00000  Uiso   1.00
H231   H     0.32594   0.35249   0.01136   0.00000  Uiso   1.00
H232   H     0.28168   0.58133   0.33591   0.00000  Uiso   1.00
H233   H     0.29299   0.63497   0.42036   0.00000  Uiso   1.00
H234   H     0.21105   0.65751   0.46409   0.00000  Uiso   1.00
H235   H     0.11539   0.62526   0.41052   0.00000  Uiso   1.00
H236   H     0.15505   0.45599   0.20652   0.00000  Uiso   1.00
H237   H     0.10291   0.57547   0.32553   0.00000  Uiso   1.00
H238   H     0.20264   0.40363   0.39058   0.00000  Uiso   1.00
H239   H     0.29156   0.41526   0.45551   0.00000  Uiso   1.00
H240   H     0.21675   0.54202   0.09170   0.00000  Uiso   1.00
H241   H     0.31896   0.54561   0.44080   0.00000  Uiso   1.00
H242   H     0.13656   0.56666   0.06669   0.00000  Uiso   1.00
H243   H     0.03703   0.57910   0.03805   0.00000  Uiso   1.00
H244   H     0.10538   0.42331   0.36484   0.00000  Uiso   1.00
N245   N     0.14493   0.48556   0.23542   0.00000  Uiso   1.00
N246   N     0.18840   0.51444   0.26457   0.00000  Uiso   1.00
O247   O     0.29769   0.57963   0.25358   0.00000  Uiso   1.00
O248   O     0.05742   0.57038   0.24423   0.00000  Uiso   1.00
O249   O     0.31490   0.50691   0.33380   0.00000  Uiso   1.00
O250   O     0.07463   0.49766   0.32446   0.00000  Uiso   1.00
O251   O     0.27592   0.42962   0.25577   0.00000  Uiso   1.00
O252   O     0.03565   0.42037   0.24642   0.00000  Uiso   1.00
O253   O     0.25870   0.50234   0.17554   0.00000  Uiso   1.00
O254   O     0.01843   0.49309   0.16620   0.00000  Uiso   1.00
Zn255  Zn    0.27119   0.50618   0.25624   0.00000  Uiso   1.00
Zn256  Zn    0.06214   0.49382   0.24376   0.00000  Uiso   1.00
C257   C     0.34745   0.59787   0.24859   0.00000  Uiso   1.00
C258   C     0.38868   0.50405   0.41655   0.00000  Uiso   1.00
C259   C     0.35505   0.65207   0.24802   0.00000  Uiso   1.00
C260   C     0.36855   0.50119   0.35503   0.00000  Uiso   1.00
C261   C     0.64494   0.34795   0.25210   0.00000  Uiso   1.00
C262   C     0.65241   0.40209   0.25104   0.00000  Uiso   1.00
C263   C     0.63146   0.49547   0.14426   0.00000  Uiso   1.00
C264   C     0.60769   0.44139   0.48639   0.00000  Uiso   1.00
C265   C     0.61388   0.48941   0.08175   0.00000  Uiso   1.00
C266   C     0.36160   0.53463   0.45439   0.00000  Uiso   1.00
C267   C     0.39116   0.55460   0.00907   0.00000  Uiso   1.00
C268   C     0.47496   0.51031   0.49034   0.00000  Uiso   1.00
C269   C     0.44861   0.54640   0.02531   0.00000  Uiso   1.00
C270   C     0.35958   0.42972   0.05698   0.00000  Uiso   1.00
C271   C     0.41005   0.45951   0.08527   0.00000  Uiso   1.00
C272   C     0.46216   0.43718   0.09128   0.00000  Uiso   1.00
C273   C     0.46574   0.38594   0.06578   0.00000  Uiso   1.00
C274   C     0.41652   0.35625   0.03609   0.00000  Uiso   1.00
C275   C     0.36358   0.37696   0.03368   0.00000  Uiso   1.00
C276   C     0.52334   0.55683   0.31625   0.00000  Uiso   1.00
C277   C     0.57627   0.58307   0.34790   0.00000  Uiso   1.00
C278   C     0.58418   0.61782   0.39959   0.00000  Uiso   1.00
C279   C     0.44246   0.48639   0.43668   0.00000  Uiso   1.00
C280   C     0.53871   0.63094   0.42395   0.00000  Uiso   1.00
C281   C     0.48546   0.61235   0.39385   0.00000  Uiso   1.00
C282   C     0.47854   0.57880   0.34123   0.00000  Uiso   1.00
C283   C     0.53126   0.49537   0.00731   0.00000  Uiso   1.00
C284   C     0.55344   0.45777   0.47012   0.00000  Uiso   1.00
C285   C     0.52000   0.43378   0.41838   0.00000  Uiso   1.00
C286   C     0.46448   0.44597   0.40326   0.00000  Uiso   1.00
C287   C     0.56459   0.51332   0.06164   0.00000  Uiso   1.00
C288   C     0.63811   0.45473   0.04269   0.00000  Uiso   1.00
H289   H     0.60351   0.66553   0.25618   0.00000  Uiso   1.00
H290   H     0.39653   0.33449   0.24407   0.00000  Uiso   1.00
H291   H     0.40991   0.50073   0.10124   0.00000  Uiso   1.00
H292   H     0.50014   0.46039   0.11398   0.00000  Uiso   1.00
H293   H     0.50664   0.36961   0.06818   0.00000  Uiso   1.00
H294   H     0.41980   0.65110   0.01368   0.00000  Uiso   1.00
H295   H     0.65928   0.35249   0.01136   0.00000  Uiso   1.00
H296   H     0.61502   0.58133   0.33591   0.00000  Uiso   1.00
H297   H     0.62632   0.63497   0.42036   0.00000  Uiso   1.00
H298   H     0.54438   0.65751   0.46409   0.00000  Uiso   1.00
H299   H     0.44872   0.62526   0.41052   0.00000  Uiso   1.00
H300   H     0.48839   0.45599   0.20652   0.00000  Uiso   1.00
H301   H     0.43624   0.57547   0.32553   0.00000  Uiso   1.00
H302   H     0.53598   0.40363   0.39058   0.00000  Uiso   1.00
H303   H     0.62489   0.41526   0.45551   0.00000  Uiso   1.00
H304   H     0.55008   0.54202   0.09170   0.00000  Uiso   1.00
H305   H     0.65230   0.54561   0.44080   0.00000  Uiso   1.00
H306   H     0.46989   0.56666   0.06669   0.00000  Uiso   1.00
H307   H     0.37036   0.57910   0.03805   0.00000  Uiso   1.00
H308   H     0.43872   0.42331   0.36484   0.00000  Uiso   1.00
N309   N     0.47827   0.48556   0.23542   0.00000  Uiso   1.00
N310   N     0.52173   0.51444   0.26457   0.00000  Uiso   1.00
O311   O     0.63102   0.57963   0.25358   0.00000  Uiso   1.00
O312   O     0.39075   0.57038   0.24423   0.00000  Uiso   1.00
O313   O     0.64823   0.50691   0.33380   0.00000  Uiso   1.00
O314   O     0.40796   0.49766   0.32446   0.00000  Uiso   1.00
O315   O     0.60925   0.42962   0.25577   0.00000  Uiso   1.00
O316   O     0.36898   0.42037   0.24642   0.00000  Uiso   1.00
O317   O     0.59204   0.50234   0.17554   0.00000  Uiso   1.00
O318   O     0.35177   0.49309   0.16620   0.00000  Uiso   1.00
Zn319  Zn    0.60453   0.50618   0.25624   0.00000  Uiso   1.00
Zn320  Zn    0.39547   0.49382   0.24376   0.00000  Uiso   1.00
C321   C     0.68078   0.59787   0.24859   0.00000  Uiso   1.00
C322   C     0.72201   0.50405   0.41655   0.00000  Uiso   1.00
C323   C     0.68839   0.65207   0.24802   0.00000  Uiso   1.00
C324   C     0.70188   0.50119   0.35503   0.00000  Uiso   1.00
C325   C     0.97828   0.34795   0.25210   0.00000  Uiso   1.00
C326   C     0.98575   0.40209   0.25104   0.00000  Uiso   1.00
C327   C     0.96480   0.49547   0.14426   0.00000  Uiso   1.00
C328   C     0.94103   0.44139   0.48639   0.00000  Uiso   1.00
C329   C     0.94722   0.48941   0.08175   0.00000  Uiso   1.00
C330   C     0.69493   0.53463   0.45439   0.00000  Uiso   1.00
C331   C     0.72450   0.55460   0.00907   0.00000  Uiso   1.00
C332   C     0.80829   0.51031   0.49034   0.00000  Uiso   1.00
C333   C     0.78195   0.54640   0.02531   0.00000  Uiso   1.00
C334   C     0.69291   0.42972   0.05698   0.00000  Uiso   1.00
C335   C     0.74339   0.45951   0.08527   0.00000  Uiso   1.00
C336   C     0.79550   0.43718   0.09128   0.00000  Uiso   1.00
C337   C     0.79907   0.38594   0.06578   0.00000  Uiso   1.00
C338   C     0.74985   0.35625   0.03609   0.00000  Uiso   1.00
C339   C     0.69691   0.37696   0.03368   0.00000  Uiso   1.00
C340   C     0.85667   0.55683   0.31625   0.00000  Uiso   1.00
C341   C     0.90961   0.58307   0.34790   0.00000  Uiso   1.00
C342   C     0.91751   0.61782   0.39959   0.00000  Uiso   1.00
C343   C     0.77579   0.48639   0.43668   0.00000  Uiso   1.00
C344   C     0.87204   0.63094   0.42395   0.00000  Uiso   1.00
C345   C     0.81880   0.61235   0.39385   0.00000  Uiso   1.00
C346   C     0.81187   0.57880   0.34123   0.00000  Uiso   1.00
C347   C     0.86459   0.49537   0.00731   0.00000  Uiso   1.00
C348   C     0.88677   0.45777   0.47012   0.00000  Uiso   1.00
C349   C     0.85333   0.43378   0.41838   0.00000  Uiso   1.00
C350   C     0.79782   0.44597   0.40326   0.00000  Uiso   1.00
C351   C     0.89793   0.51332   0.06164   0.00000  Uiso   1.00
C352   C     0.97145   0.45473   0.04269   0.00000  Uiso   1.00
H353   H     0.93684   0.66553   0.25618   0.00000  Uiso   1.00
H354   H     0.72986   0.33449   0.24407   0.00000  Uiso   1.00
H355   H     0.74324   0.50073   0.10124   0.00000  Uiso   1.00
H356   H     0.83347   0.46039   0.11398   0.00000  Uiso   1.00
H357   H     0.83998   0.36961   0.06818   0.00000  Uiso   1.00
H358   H     0.75314   0.65110   0.01368   0.00000  Uiso   1.00
H359   H     0.99261   0.35249   0.01136   0.00000  Uiso   1.00
H360   H     0.94835   0.58133   0.33591   0.00000  Uiso   1.00
H361   H     0.95966   0.63497   0.42036   0.00000  Uiso   1.00
H362   H     0.87772   0.65751   0.46409   0.00000  Uiso   1.00
H363   H     0.78205   0.62526   0.41052   0.00000  Uiso   1.00
H364   H     0.82172   0.45599   0.20652   0.00000  Uiso   1.00
H365   H     0.76957   0.57547   0.32553   0.00000  Uiso   1.00
H366   H     0.86931   0.40363   0.39058   0.00000  Uiso   1.00
H367   H     0.95823   0.41526   0.45551   0.00000  Uiso   1.00
H368   H     0.88342   0.54202   0.09170   0.00000  Uiso   1.00
H369   H     0.98563   0.54561   0.44080   0.00000  Uiso   1.00
H370   H     0.80323   0.56666   0.06669   0.00000  Uiso   1.00
H371   H     0.70370   0.57910   0.03805   0.00000  Uiso   1.00
H372   H     0.77205   0.42331   0.36484   0.00000  Uiso   1.00
N373   N     0.81160   0.48556   0.23542   0.00000  Uiso   1.00
N374   N     0.85507   0.51444   0.26457   0.00000  Uiso   1.00
O375   O     0.96435   0.57963   0.25358   0.00000  Uiso   1.00
O376   O     0.72408   0.57038   0.24423   0.00000  Uiso   1.00
O377   O     0.98157   0.50691   0.33380   0.00000  Uiso   1.00
O378   O     0.74130   0.49766   0.32446   0.00000  Uiso   1.00
O379   O     0.94258   0.42962   0.25577   0.00000  Uiso   1.00
O380   O     0.70231   0.42037   0.24642   0.00000  Uiso   1.00
O381   O     0.92537   0.50234   0.17554   0.00000  Uiso   1.00
O382   O     0.68510   0.49309   0.16620   0.00000  Uiso   1.00
Zn383  Zn    0.93786   0.50618   0.25624   0.00000  Uiso   1.00
Zn384  Zn    0.72881   0.49382   0.24376   0.00000  Uiso   1.00
C385   C     0.01411   0.93120   0.24859   0.00000  Uiso   1.00
C386   C     0.05534   0.83739   0.41655   0.00000  Uiso   1.00
C387   C     0.02172   0.98540   0.24802   0.00000  Uiso   1.00
C388   C     0.03521   0.83452   0.35503   0.00000  Uiso   1.00
C389   C     0.31161   0.68128   0.25210   0.00000  Uiso   1.00
C390   C     0.31908   0.73542   0.25104   0.00000  Uiso   1.00
C391   C     0.29813   0.82880   0.14426   0.00000  Uiso   1.00
C392   C     0.27436   0.77472   0.48639   0.00000  Uiso   1.00
C393   C     0.28055   0.82275   0.08175   0.00000  Uiso   1.00
C394   C     0.02826   0.86797   0.45439   0.00000  Uiso   1.00
C395   C     0.05783   0.88793   0.00907   0.00000  Uiso   1.00
C396   C     0.14162   0.84365   0.49034   0.00000  Uiso   1.00
C397   C     0.11528   0.87973   0.02531   0.00000  Uiso   1.00
C398   C     0.02625   0.76305   0.05698   0.00000  Uiso   1.00
C399   C     0.07672   0.79285   0.08527   0.00000  Uiso   1.00
C400   C     0.12883   0.77051   0.09128   0.00000  Uiso   1.00
C401   C     0.13240   0.71927   0.06578   0.00000  Uiso   1.00
C402   C     0.08318   0.68958   0.03609   0.00000  Uiso   1.00
C403   C     0.03024   0.71030   0.03368   0.00000  Uiso   1.00
C404   C     0.19001   0.89017   0.31625   0.00000  Uiso   1.00
C405   C     0.24294   0.91640   0.34790   0.00000  Uiso   1.00
C406   C     0.25085   0.95115   0.39959   0.00000  Uiso   1.00
C407   C     0.10913   0.81972   0.43668   0.00000  Uiso   1.00
C408   C     0.20537   0.96428   0.42395   0.00000  Uiso   1.00
C409   C     0.15213   0.94568   0.39385   0.00000  Uiso   1.00
C410   C     0.14521   0.91214   0.34123   0.00000  Uiso   1.00
C411   C     0.19793   0.82870   0.00731   0.00000  Uiso   1.00
C412   C     0.22010   0.79110   0.47012   0.00000  Uiso   1.00
C413   C     0.18667   0.76711   0.41838   0.00000  Uiso   1.00
C414   C     0.13115   0.77930   0.40326   0.00000  Uiso   1.00
C415   C     0.23126   0.84666   0.06164   0.00000  Uiso   1.00
C416   C     0.30478   0.78806   0.04269   0.00000  Uiso   1.00
H417   H     0.27018   0.99886   0.25618   0.00000  Uiso   1.00
H418   H     0.06319   0.66782   0.24407   0.00000  Uiso   1.00
H419   H     0.07657   0.83406   0.10124   0.00000  Uiso   1.00
H420   H     0.16681   0.79372   0.11398   0.00000  Uiso   1.00
H421   H     0.17331   0.70294   0.06818   0.00000  Uiso   1.00
H422   H     0.08647   0.98444   0.01368   0.00000  Uiso   1.00
H423   H     0.32594   0.68582   0.01136   0.00000  Uiso   1.00
H424   H     0.28168   0.91467   0.33591   0.00000  Uiso   1.00
H425   H     0.29299   0.96831   0.42036   0.00000  Uiso   1.00
H426   H     0.21105   0.99084   0.46409   0.00000  Uiso   1.00
H427   H     0.11539   0.95860   0.41052   0.00000  Uiso   1.00
H428   H     0.15505   0.78932   0.20652   0.00000  Uiso   1.00
H429   H     0.10291   0.90880   0.32553   0.00000  Uiso   1.00
H430   H     0.20264   0.73697   0.39058   0.00000  Uiso   1.00
H431   H     0.29156   0.74859   0.45551   0.00000  Uiso   1.00
H432   H     0.21675   0.87535   0.09170   0.00000  Uiso   1.00
H433   H     0.31896   0.87894   0.44080   0.00000  Uiso   1.00
H434   H     0.13656   0.89999   0.06669   0.00000  Uiso   1.00
H435   H     0.03703   0.91243   0.03805   0.00000  Uiso   1.00
H436   H     0.10538   0.75664   0.36484   0.00000  Uiso   1.00
N437   N     0.14493   0.81890   0.23542   0.00000  Uiso   1.00
N438   N     0.18840   0.84777   0.26457   0.00000  Uiso   1.00
O439   O     0.29769   0.91296   0.25358   0.00000  Uiso   1.00
O440   O     0.05742   0.90371   0.24423   0.00000  Uiso   1.00
O441   O     0.31490   0.84024   0.33380   0.00000  Uiso   1.00
O442   O     0.07463   0.83099   0.32446   0.00000  Uiso   1.00
O443   O     0.27592   0.76296   0.25577   0.00000  Uiso   1.00
O444   O     0.03565   0.75371   0.24642   0.00000  Uiso   1.00
O445   O     0.25870   0.83567   0.17554   0.00000  Uiso   1.00
O446   O     0.01843   0.82642   0.16620   0.00000  Uiso   1.00
Zn447  Zn    0.27119   0.83951   0.25624   0.00000  Uiso   1.00
Zn448  Zn    0.06214   0.82716   0.24376   0.00000  Uiso   1.00
C449   C     0.34745   0.93120   0.24859   0.00000  Uiso   1.00
C450   C     0.38868   0.83739   0.41655   0.00000  Uiso   1.00
C451   C     0.35505   0.98540   0.24802   0.00000  Uiso   1.00
C452   C     0.36855   0.83452   0.35503   0.00000  Uiso   1.00
C453   C     0.64494   0.68128   0.25210   0.00000  Uiso   1.00
C454   C     0.65241   0.73542   0.25104   0.00000  Uiso   1.00
C455   C     0.63146   0.82880   0.14426   0.00000  Uiso   1.00
C456   C     0.60769   0.77472   0.48639   0.00000  Uiso   1.00
C457   C     0.61388   0.82275   0.08175   0.00000  Uiso   1.00
C458   C     0.36160   0.86797   0.45439   0.00000  Uiso   1.00
C459   C     0.39116   0.88793   0.00907   0.00000  Uiso   1.00
C460   C     0.47496   0.84365   0.49034   0.00000  Uiso   1.00
C461   C     0.44861   0.87973   0.02531   0.00000  Uiso   1.00
C462   C     0.35958   0.76305   0.05698   0.00000  Uiso   1.00
C463   C     0.41005   0.79285   0.08527   0.00000  Uiso   1.00
C464   C     0.46216   0.77051   0.09128   0.00000  Uiso   1.00
C465   C     0.46574   0.71927   0.06578   0.00000  Uiso   1.00
C466   C     0.41652   0.68958   0.03609   0.00000  Uiso   1.00
C467   C     0.36358   0.71030   0.03368   0.00000  Uiso   1.00
C468   C     0.52334   0.89017   0.31625   0.00000  Uiso   1.00
C469   C     0.57627   0.91640   0.34790   0.00000  Uiso   1.00
C470   C     0.58418   0.95115   0.39959   0.00000  Uiso   1.00
C471   C     0.44246   0.81972   0.43668   0.00000  Uiso   1.00
C472   C     0.53871   0.96428   0.42395   0.00000  Uiso   1.00
C473   C     0.48546   0.94568   0.39385   0.00000  Uiso   1.00
C474   C     0.47854   0.91214   0.34123   0.00000  Uiso   1.00
C475   C     0.53126   0.82870   0.00731   0.00000  Uiso   1.00
C476   C     0.55344   0.79110   0.47012   0.00000  Uiso   1.00
C477   C     0.52000   0.76711   0.41838   0.00000  Uiso   1.00
C478   C     0.46448   0.77930   0.40326   0.00000  Uiso   1.00
C479   C     0.56459   0.84666   0.06164   0.00000  Uiso   1.00
C480   C     0.63811   0.78806   0.04269   0.00000  Uiso   1.00
H481   H     0.60351   0.99886   0.25618   0.00000  Uiso   1.00
H482   H     0.39653   0.66782   0.24407   0.00000  Uiso   1.00
H483   H     0.40991   0.83406   0.10124   0.00000  Uiso   1.00
H484   H     0.50014   0.79372   0.11398   0.00000  Uiso   1.00
H485   H     0.50664   0.70294   0.06818   0.00000  Uiso   1.00
H486   H     0.41980   0.98444   0.01368   0.00000  Uiso   1.00
H487   H     0.65928   0.68582   0.01136   0.00000  Uiso   1.00
H488   H     0.61502   0.91467   0.33591   0.00000  Uiso   1.00
H489   H     0.62632   0.96831   0.42036   0.00000  Uiso   1.00
H490   H     0.54438   0.99084   0.46409   0.00000  Uiso   1.00
H491   H     0.44872   0.95860   0.41052   0.00000  Uiso   1.00
H492   H     0.48839   0.78932   0.20652   0.00000  Uiso   1.00
H493   H     0.43624   0.90880   0.32553   0.00000  Uiso   1.00
H494   H     0.53598   0.73697   0.39058   0.00000  Uiso   1.00
H495   H     0.62489   0.74859   0.45551   0.00000  Uiso   1.00
H496   H     0.55008   0.87535   0.09170   0.00000  Uiso   1.00
H497   H     0.65230   0.87894   0.44080   0.00000  Uiso   1.00
H498   H     0.46989   0.89999   0.06669   0.00000  Uiso   1.00
H499   H     0.37036   0.91243   0.03805   0.00000  Uiso   1.00
H500   H     0.43872   0.75664   0.36484   0.00000  Uiso   1.00
N501   N     0.47827   0.81890   0.23542   0.00000  Uiso   1.00
N502   N     0.52173   0.84777   0.26457   0.00000  Uiso   1.00
O503   O     0.63102   0.91296   0.25358   0.00000  Uiso   1.00
O504   O     0.39075   0.90371   0.24423   0.00000  Uiso   1.00
O505   O     0.64823   0.84024   0.33380   0.00000  Uiso   1.00
O506   O     0.40796   0.83099   0.32446   0.00000  Uiso   1.00
O507   O     0.60925   0.76296   0.25577   0.00000  Uiso   1.00
O508   O     0.36898   0.75371   0.24642   0.00000  Uiso   1.00
O509   O     0.59204   0.83567   0.17554   0.00000  Uiso   1.00
O510   O     0.35177   0.82642   0.16620   0.00000  Uiso   1.00
Zn511  Zn    0.60453   0.83951   0.25624   0.00000  Uiso   1.00
Zn512  Zn    0.39547   0.82716   0.24376   0.00000  Uiso   1.00
C513   C     0.68078   0.93120   0.24859   0.00000  Uiso   1.00
C514   C     0.72201   0.83739   0.41655   0.00000  Uiso   1.00
C515   C     0.68839   0.98540   0.24802   0.00000  Uiso   1.00
C516   C     0.70188   0.83452   0.35503   0.00000  Uiso   1.00
C517   C     0.97828   0.68128   0.25210   0.00000  Uiso   1.00
C518   C     0.98575   0.73542   0.25104   0.00000  Uiso   1.00
C519   C     0.96480   0.82880   0.14426   0.00000  Uiso   1.00
C520   C     0.94103   0.77472   0.48639   0.00000  Uiso   1.00
C521   C     0.94722   0.82275   0.08175   0.00000  Uiso   1.00
C522   C     0.69493   0.86797   0.45439   0.00000  Uiso   1.00
C523   C     0.72450   0.88793   0.00907   0.00000  Uiso   1.00
C524   C     0.80829   0.84365   0.49034   0.00000  Uiso   1.00
C525   C     0.78195   0.87973   0.02531   0.00000  Uiso   1.00
C526   C     0.69291   0.76305   0.05698   0.00000  Uiso   1.00
C527   C     0.74339   0.79285   0.08527   0.00000  Uiso   1.00
C528   C     0.79550   0.77051   0.09128   0.00000  Uiso   1.00
C529   C     0.79907   0.71927   0.06578   0.00000  Uiso   1.00
C530   C     0.74985   0.68958   0.03609   0.00000  Uiso   1.00
C531   C     0.69691   0.71030   0.03368   0.00000  Uiso   1.00
C532   C     0.85667   0.89017   0.31625   0.00000  Uiso   1.00
C533   C     0.90961   0.91640   0.34790   0.00000  Uiso   1.00
C534   C     0.91751   0.95115   0.39959   0.00000  Uiso   1.00
C535   C     0.77579   0.81972   0.43668   0.00000  Uiso   1.00
C536   C     0.87204   0.96428   0.42395   0.00000  Uiso   1.00
C537   C     0.81880   0.94568   0.39385   0.00000  Uiso   1.00
C538   C     0.81187   0.91214   0.34123   0.00000  Uiso   1.00
C539   C     0.86459   0.82870   0.00731   0.00000  Uiso   1.00
C540   C     0.88677   0.79110   0.47012   0.00000  Uiso   1.00
C541   C     0.85333   0.76711   0.41838   0.00000  Uiso   1.00
C542   C     0.79782   0.77930   0.40326   0.00000  Uiso   1.00
C543   C     0.89793   0.84666   0.06164   0.00000  Uiso   1.00
C544   C     0.97145   0.78806   0.04269   0.00000  Uiso   1.00
H545   H     0.93684   0.99886   0.25618   0.00000  Uiso   1.00
H546   H     0.72986   0.66782   0.24407   0.00000  Uiso   1.00
H547   H     0.74324   0.83406   0.10124   0.00000  Uiso   1.00
H548   H     0.83347   0.79372   0.11398   0.00000  Uiso   1.00
H549   H     0.83998   0.70294   0.06818   0.00000  Uiso   1.00
H550   H     0.75314   0.98444   0.01368   0.00000  Uiso   1.00
H551   H     0.99261   0.68582   0.01136   0.00000  Uiso   1.00
H552   H     0.94835   0.91467   0.33591   0.00000  Uiso   1.00
H553   H     0.95966   0.96831   0.42036   0.00000  Uiso   1.00
H554   H     0.87772   0.99084   0.46409   0.00000  Uiso   1.00
H555   H     0.78205   0.95860   0.41052   0.00000  Uiso   1.00
H556   H     0.82172   0.78932   0.20652   0.00000  Uiso   1.00
H557   H     0.76957   0.90880   0.32553   0.00000  Uiso   1.00
H558   H     0.86931   0.73697   0.39058   0.00000  Uiso   1.00
H559   H     0.95823   0.74859   0.45551   0.00000  Uiso   1.00
H560   H     0.88342   0.87535   0.09170   0.00000  Uiso   1.00
H561   H     0.98563   0.87894   0.44080   0.00000  Uiso   1.00
H562   H     0.80323   0.89999   0.06669   0.00000  Uiso   1.00
H563   H     0.70370   0.91243   0.03805   0.00000  Uiso   1.00
H564   H     0.77205   0.75664   0.36484   0.00000  Uiso   1.00
N565   N     0.81160   0.81890   0.23542   0.00000  Uiso   1.00
N566   N     0.85507   0.84777   0.26457   0.00000  Uiso   1.00
O567   O     0.96435   0.91296   0.25358   0.00000  Uiso   1.00
O568   O     0.72408   0.90371   0.24423   0.00000  Uiso   1.00
O569   O     0.98157   0.84024   0.33380   0.00000  Uiso   1.00
O570   O     0.74130   0.83099   0.32446   0.00000  Uiso   1.00
O571   O     0.94258   0.76296   0.25577   0.00000  Uiso   1.00
O572   O     0.70231   0.75371   0.24642   0.00000  Uiso   1.00
O573   O     0.92537   0.83567   0.17554   0.00000  Uiso   1.00
O574   O     0.68510   0.82642   0.16620   0.00000  Uiso   1.00
Zn575  Zn    0.93786   0.83951   0.25624   0.00000  Uiso   1.00
Zn576  Zn    0.72881   0.82716   0.24376   0.00000  Uiso   1.00
C577   C     0.01411   0.26453   0.74859   0.00000  Uiso   1.00
C578   C     0.05534   0.17072   0.91655   0.00000  Uiso   1.00
C579   C     0.02172   0.31874   0.74802   0.00000  Uiso   1.00
C580   C     0.03521   0.16785   0.85503   0.00000  Uiso   1.00
C581   C     0.31161   0.01461   0.75210   0.00000  Uiso   1.00
C582   C     0.31908   0.06876   0.75104   0.00000  Uiso   1.00
C583   C     0.29813   0.16214   0.64426   0.00000  Uiso   1.00
C584   C     0.27436   0.10806   0.98639   0.00000  Uiso   1.00
C585   C     0.28055   0.15608   0.58175   0.00000  Uiso   1.00
C586   C     0.02826   0.20130   0.95439   0.00000  Uiso   1.00
C587   C     0.05783   0.22126   0.50907   0.00000  Uiso   1.00
C588   C     0.14162   0.17698   0.99034   0.00000  Uiso   1.00
C589   C     0.11528   0.21307   0.52531   0.00000  Uiso   1.00
C590   C     0.02625   0.09638   0.55698   0.00000  Uiso   1.00
C591   C     0.07672   0.12618   0.58527   0.00000  Uiso   1.00
C592   C     0.12883   0.10385   0.59128   0.00000  Uiso   1.00
C593   C     0.13240   0.05260   0.56578   0.00000  Uiso   1.00
C594   C     0.08318   0.02291   0.53609   0.00000  Uiso   1.00
C595   C     0.03024   0.04363   0.53368   0.00000  Uiso   1.00
C596   C     0.19001   0.22350   0.81625   0.00000  Uiso   1.00
C597   C     0.24294   0.24973   0.84790   0.00000  Uiso   1.00
C598   C     0.25085   0.28449   0.89959   0.00000  Uiso   1.00
C599   C     0.10913   0.15306   0.93668   0.00000  Uiso   1.00
C600   C     0.20537   0.29761   0.92395   0.00000  Uiso   1.00
C601   C     0.15213   0.27902   0.89385   0.00000  Uiso   1.00
C602   C     0.14521   0.24547   0.84123   0.00000  Uiso   1.00
C603   C     0.19793   0.16203   0.50731   0.00000  Uiso   1.00
C604   C     0.22010   0.12444   0.97012   0.00000  Uiso   1.00
C605   C     0.18667   0.10044   0.91838   0.00000  Uiso   1.00
C606   C     0.13115   0.11264   0.90326   0.00000  Uiso   1.00
C607   C     0.23126   0.17999   0.56164   0.00000  Uiso   1.00
C608   C     0.30478   0.12140   0.54269   0.00000  Uiso   1.00
H609   H     0.27018   0.33220   0.75618   0.00000  Uiso   1.00
H610   H     0.06319   0.00116   0.74407   0.00000  Uiso   1.00
H611   H     0.07657   0.16739   0.60124   0.00000  Uiso   1.00
H612   H     0.16681   0.12706   0.61398   0.00000  Uiso   1.00
H613   H     0.17331   0.03628   0.56818   0.00000  Uiso   1.00
H614   H     0.08647   0.31777   0.51368   0.00000  Uiso   1.00
H615   H     0.32594   0.01915   0.51136   0.00000  Uiso   1.00
H616   H     0.28168   0.24800   0.83591   0.00000  Uiso   1.00
H617   H     0.29299   0.30164   0.92036   0.00000  Uiso   1.00
H618   H     0.21105   0.32417   0.96409   0.00000  Uiso   1.00
H619   H     0.11539   0.29193   0.91052   0.00000  Uiso   1.00
H620   H     0.15505   0.12265   0.70652   0.00000  Uiso   1.00
H621   H     0.10291   0.24213   0.82553   0.00000  Uiso   1.00
H622   H     0.20264   0.07030   0.89058   0.00000  Uiso   1.00
H623   H     0.29156   0.08193   0.95551   0.00000  Uiso   1.00
H624   H     0.21675   0.20869   0.59170   0.00000  Uiso   1.00
H625   H     0.31896   0.21228   0.94080   0.00000  Uiso   1.00
H626   H     0.13656   0.23332   0.56669   0.00000  Uiso   1.00
H627   H     0.03703   0.24577   0.53805   0.00000  Uiso   1.00
H628   H     0.10538   0.08998   0.86484   0.00000  Uiso   1.00
N629   N     0.14493   0.15223   0.73542   0.00000  Uiso   1.00
N630   N     0.18840   0.18110   0.76457   0.00000  Uiso   1.00
O631   O     0.29769   0.24629   0.75358   0.00000  Uiso   1.00
O632   O     0.05742   0.23704   0.74423   0.00000  Uiso   1.00
O633   O     0.31490   0.17358   0.83380   0.00000  Uiso   1.00
O634   O     0.07463   0.16433   0.82446   0.00000  Uiso   1.00
O635   O     0.27592   0.09629   0.75577   0.00000  Uiso   1.00
O636   O     0.03565   0.08704   0.74642   0.00000  Uiso   1.00
O637   O     0.25870   0.16901   0.67554   0.00000  Uiso   1.00
O638   O     0.01843   0.15976   0.66620   0.00000  Uiso   1.00
Zn639  Zn    0.27119   0.17284   0.75624   0.00000  Uiso   1.00
Zn640  Zn    0.06214   0.16049   0.74376   0.00000  Uiso   1.00
C641   C     0.34745   0.26453   0.74859   0.00000  Uiso   1.00
C642   C     0.38868   0.17072   0.91655   0.00000  Uiso   1.00
C643   C     0.35505   0.31874   0.74802   0.00000  Uiso   1.00
C644   C     0.36855   0.16785   0.85503   0.00000  Uiso   1.00
C645   C     0.64494   0.01461   0.75210   0.00000  Uiso   1.00
C646   C     0.65241   0.06876   0.75104   0.00000  Uiso   1.00
C647   C     0.63146   0.16214   0.64426   0.00000  Uiso   1.00
C648   C     0.60769   0.10806   0.98639   0.00000  Uiso   1.00
C649   C     0.61388   0.15608   0.58175   0.00000  Uiso   1.00
C650   C     0.36160   0.20130   0.95439   0.00000  Uiso   1.00
C651   C     0.39116   0.22126   0.50907   0.00000  Uiso   1.00
C652   C     0.47496   0.17698   0.99034   0.00000  Uiso   1.00
C653   C     0.44861   0.21307   0.52531   0.00000  Uiso   1.00
C654   C     0.35958   0.09638   0.55698   0.00000  Uiso   1.00
C655   C     0.41005   0.12618   0.58527   0.00000  Uiso   1.00
C656   C     0.46216   0.10385   0.59128   0.00000  Uiso   1.00
C657   C     0.46574   0.05260   0.56578   0.00000  Uiso   1.00
C658   C     0.41652   0.02291   0.53609   0.00000  Uiso   1.00
C659   C     0.36358   0.04363   0.53368   0.00000  Uiso   1.00
C660   C     0.52334   0.22350   0.81625   0.00000  Uiso   1.00
C661   C     0.57627   0.24973   0.84790   0.00000  Uiso   1.00
C662   C     0.58418   0.28449   0.89959   0.00000  Uiso   1.00
C663   C     0.44246   0.15306   0.93668   0.00000  Uiso   1.00
C664   C     0.53871   0.29761   0.92395   0.00000  Uiso   1.00
C665   C     0.48546   0.27902   0.89385   0.00000  Uiso   1.00
C666   C     0.47854   0.24547   0.84123   0.00000  Uiso   1.00
C667   C     0.53126   0.16203   0.50731   0.00000  Uiso   1.00
C668   C     0.55344   0.12444   0.97012   0.00000  Uiso   1.00
C669   C     0.52000   0.10044   0.91838   0.00000  Uiso   1.00
C670   C     0.46448   0.11264   0.90326   0.00000  Uiso   1.00
C671   C     0.56459   0.17999   0.56164   0.00000  Uiso   1.00
C672   C     0.63811   0.12140   0.54269   0.00000  Uiso   1.00
H673   H     0.60351   0.33220   0.75618   0.00000  Uiso   1.00
H674   H     0.39653   0.00116   0.74407   0.00000  Uiso   1.00
H675   H     0.40991   0.16739   0.60124   0.00000  Uiso   1.00
H676   H     0.50014   0.12706   0.61398   0.00000  Uiso   1.00
H677   H     0.50664   0.03628   0.56818   0.00000  Uiso   1.00
H678   H     0.41980   0.31777   0.51368   0.00000  Uiso   1.00
H679   H     0.65928   0.01915   0.51136   0.00000  Uiso   1.00
H680   H     0.61502   0.24800   0.83591   0.00000  Uiso   1.00
H681   H     0.62632   0.30164   0.92036   0.00000  Uiso   1.00
H682   H     0.54438   0.32417   0.96409   0.00000  Uiso   1.00
H683   H     0.44872   0.29193   0.91052   0.00000  Uiso   1.00
H684   H     0.48839   0.12265   0.70652   0.00000  Uiso   1.00
H685   H     0.43624   0.24213   0.82553   0.00000  Uiso   1.00
H686   H     0.53598   0.07030   0.89058   0.00000  Uiso   1.00
H687   H     0.62489   0.08193   0.95551   0.00000  Uiso   1.00
H688   H     0.55008   0.20869   0.59170   0.00000  Uiso   1.00
H689   H     0.65230   0.21228   0.94080   0.00000  Uiso   1.00
H690   H     0.46989   0.23332   0.56669   0.00000  Uiso   1.00
H691   H     0.37036   0.24577   0.53805   0.00000  Uiso   1.00
H692   H     0.43872   0.08998   0.86484   0.00000  Uiso   1.00
N693   N     0.47827   0.15223   0.73542   0.00000  Uiso   1.00
N694   N     0.52173   0.18110   0.76457   0.00000  Uiso   1.00
O695   O     0.63102   0.24629   0.75358   0.00000  Uiso   1.00
O696   O     0.39075   0.23704   0.74423   0.00000  Uiso   1.00
O697   O     0.64823   0.17358   0.83380   0.00000  Uiso   1.00
O698   O     0.40796   0.16433   0.82446   0.00000  Uiso   1.00
O699   O     0.60925   0.09629   0.75577   0.00000  Uiso   1.00
O700   O     0.36898   0.08704   0.74642   0.00000  Uiso   1.00
O701   O     0.59204   0.16901   0.67554   0.00000  Uiso   1.00
O702   O     0.35177   0.15976   0.66620   0.00000  Uiso   1.00
Zn703  Zn    0.60453   0.17284   0.75624   0.00000  Uiso   1.00
Zn704  Zn    0.39547   0.16049   0.74376   0.00000  Uiso   1.00
C705   C     0.68078   0.26453   0.74859   0.00000  Uiso   1.00
C706   C     0.72201   0.17072   0.91655   0.00000  Uiso   1.00
C707   C     0.68839   0.31874   0.74802   0.00000  Uiso   1.00
C708   C     0.70188   0.16785   0.85503   0.00000  Uiso   1.00
C709   C     0.97828   0.01461   0.75210   0.00000  Uiso   1.00
C710   C     0.98575   0.06876   0.75104   0.00000  Uiso   1.00
C711   C     0.96480   0.16214   0.64426   0.00000  Uiso   1.00
C712   C     0.94103   0.10806   0.98639   0.00000  Uiso   1.00
C713   C     0.94722   0.15608   0.58175   0.00000  Uiso   1.00
C714   C     0.69493   0.20130   0.95439   0.00000  Uiso   1.00
C715   C     0.72450   0.22126   0.50907   0.00000  Uiso   1.00
C716   C     0.80829   0.17698   0.99034   0.00000  Uiso   1.00
C717   C     0.78195   0.21307   0.52531   0.00000  Uiso   1.00
C718   C     0.69291   0.09638   0.55698   0.00000  Uiso   1.00
C719   C     0.74339   0.12618   0.58527   0.00000  Uiso   1.00
C720   C     0.79550   0.10385   0.59128   0.00000  Uiso   1.00
C721   C     0.79907   0.05260   0.56578   0.00000  Uiso   1.00
C722   C     0.74985   0.02291   0.53609   0.00000  Uiso   1.00
C723   C     0.69691   0.04363   0.53368   0.00000  Uiso   1.00
C724   C     0.85667   0.22350   0.81625   0.00000  Uiso   1.00
C725   C     0.90961   0.24973   0.84790   0.00000  Uiso   1.00
C726   C     0.91751   0.28449   0.89959   0.00000  Uiso   1.00
C727   C     0.77579   0.15306   0.93668   0.00000  Uiso   1.00
C728   C     0.87204   0.29761   0.92395   0.00000  Uiso   1.00
C729   C     0.81880   0.27902   0.89385   0.00000  Uiso   1.00
C730   C     0.81187   0.24547   0.84123   0.00000  Uiso   1.00
C731   C     0.86459   0.16203   0.50731   0.00000  Uiso   1.00
C732   C     0.88677   0.12444   0.97012   0.00000  Uiso   1.00
C733   C     0.85333   0.10044   0.91838   0.00000  Uiso   1.00
C734   C     0.79782   0.11264   0.90326   0.00000  Uiso   1.00
C735   C     0.89793   0.17999   0.56164   0.00000  Uiso   1.00
C736   C     0.97145   0.12140   0.54269   0.00000  Uiso   1.00
H737   H     0.93684   0.33220   0.75618   0.00000  Uiso   1.00
H738   H     0.72986   0.00116   0.74407   0.00000  Uiso   1.00
H739   H     0.74324   0.16739   0.60124   0.00000  Uiso   1.00
H740   H     0.83347   0.12706   0.61398   0.00000  Uiso   1.00
H741   H     0.83998   0.03628   0.56818   0.00000  Uiso   1.00
H742   H     0.75314   0.31777   0.51368   0.00000  Uiso   1.00
H743   H     0.99261   0.01915   0.51136   0.00000  Uiso   1.00
H744   H     0.94835   0.24800   0.83591   0.00000  Uiso   1.00
H745   H     0.95966   0.30164   0.92036   0.00000  Uiso   1.00
H746   H     0.87772   0.32417   0.96409   0.00000  Uiso   1.00
H747   H     0.78205   0.29193   0.91052   0.00000  Uiso   1.00
H748   H     0.82172   0.12265   0.70652   0.00000  Uiso   1.00
H749   H     0.76957   0.24213   0.82553   0.00000  Uiso   1.00
H750   H     0.86931   0.07030   0.89058   0.00000  Uiso   1.00
H751   H     0.95823   0.08193   0.95551   0.00000  Uiso   1.00
H752   H     0.88342   0.20869   0.59170   0.00000  Uiso   1.00
H753   H     0.98563   0.21228   0.94080   0.00000  Uiso   1.00
H754   H     0.80323   0.23332   0.56669   0.00000  Uiso   1.00
H755   H     0.70370   0.24577   0.53805   0.00000  Uiso   1.00
H756   H     0.77205   0.08998   0.86484   0.00000  Uiso   1.00
N757   N     0.81160   0.15223   0.73542   0.00000  Uiso   1.00
N758   N     0.85507   0.18110   0.76457   0.00000  Uiso   1.00
O759   O     0.96435   0.24629   0.75358   0.00000  Uiso   1.00
O760   O     0.72408   0.23704   0.74423   0.00000  Uiso   1.00
O761   O     0.98157   0.17358   0.83380   0.00000  Uiso   1.00
O762   O     0.74130   0.16433   0.82446   0.00000  Uiso   1.00
O763   O     0.94258   0.09629   0.75577   0.00000  Uiso   1.00
O764   O     0.70231   0.08704   0.74642   0.00000  Uiso   1.00
O765   O     0.92537   0.16901   0.67554   0.00000  Uiso   1.00
O766   O     0.68510   0.15976   0.66620   0.00000  Uiso   1.00
Zn767  Zn    0.93786   0.17284   0.75624   0.00000  Uiso   1.00
Zn768  Zn    0.72881   0.16049   0.74376   0.00000  Uiso   1.00
C769   C     0.01411   0.59787   0.74859   0.00000  Uiso   1.00
C770   C     0.05534   0.50405   0.91655   0.00000  Uiso   1.00
C771   C     0.02172   0.65207   0.74802   0.00000  Uiso   1.00
C772   C     0.03521   0.50119   0.85503   0.00000  Uiso   1.00
C773   C     0.31161   0.34795   0.75210   0.00000  Uiso   1.00
C774   C     0.31908   0.40209   0.75104   0.00000  Uiso   1.00
C775   C     0.29813   0.49547   0.64426   0.00000  Uiso   1.00
C776   C     0.27436   0.44139   0.98639   0.00000  Uiso   1.00
C777   C     0.28055   0.48941   0.58175   0.00000  Uiso   1.00
C778   C     0.02826   0.53463   0.95439   0.00000  Uiso   1.00
C779   C     0.05783   0.55460   0.50907   0.00000  Uiso   1.00
C780   C     0.14162   0.51031   0.99034   0.00000  Uiso   1.00
C781   C     0.11528   0.54640   0.52531   0.00000  Uiso   1.00
C782   C     0.02625   0.42972   0.55698   0.00000  Uiso   1.00
C783   C     0.07672   0.45951   0.58527   0.00000  Uiso   1.00
C784   C     0.12883   0.43718   0.59128   0.00000  Uiso   1.00
C785   C     0.13240   0.38594   0.56578   0.00000  Uiso   1.00
C786   C     0.08318   0.35625   0.53609   0.00000  Uiso   1.00
C787   C     0.03024   0.37696   0.53368   0.00000  Uiso   1.00
C788   C     0.19001   0.55683   0.81625   0.00000  Uiso   1.00
C789   C     0.24294   0.58307   0.84790   0.00000  Uiso   1.00
C790   C     0.25085   0.61782   0.89959   0.00000  Uiso   1.00
C791   C     0.10913   0.48639   0.93668   0.00000  Uiso   1.00
C792   C     0.20537   0.63094   0.92395   0.00000  Uiso   1.00
C793   C     0.15213   0.61235   0.89385   0.00000  Uiso   1.00
C794   C     0.14521   0.57880   0.84123   0.00000  Uiso   1.00
C795   C     0.19793   0.49537   0.50731   0.00000  Uiso   1.00
C796   C     0.22010   0.45777   0.97012   0.00000  Uiso   1.00
C797   C     0.18667   0.43378   0.91838   0.00000  Uiso   1.00
C798   C     0.13115   0.44597   0.90326   0.00000  Uiso   1.00
C799   C     0.23126   0.51332   0.56164   0.00000  Uiso   1.00
C800   C     0.30478   0.45473   0.54269   0.00000  Uiso   1.00
H801   H     0.27018   0.66553   0.75618   0.00000  Uiso   1.00
H802   H     0.06319   0.33449   0.74407   0.00000  Uiso   1.00
H803   H     0.07657   0.50073   0.60124   0.00000  Uiso   1.00
H804   H     0.16681   0.46039   0.61398   0.00000  Uiso   1.00
H805   H     0.17331   0.36961   0.56818   0.00000  Uiso   1.00
H806   H     0.08647   0.65110   0.51368   0.00000  Uiso   1.00
H807   H     0.32594   0.35249   0.51136   0.00000  Uiso   1.00
H808   H     0.28168   0.58133   0.83591   0.00000  Uiso   1.00
H809   H     0.29299   0.63497   0.92036   0.00000  Uiso   1.00
H810   H     0.21105   0.65751   0.96409   0.00000  Uiso   1.00
H811   H     0.11539   0.62526   0.91052   0.00000  Uiso   1.00
H812   H     0.15505   0.45599   0.70652   0.00000  Uiso   1.00
H813   H     0.10291   0.57547   0.82553   0.00000  Uiso   1.00
H814   H     0.20264   0.40363   0.89058   0.00000  Uiso   1.00
H815   H     0.29156   0.41526   0.95551   0.00000  Uiso   1.00
H816   H     0.21675   0.54202   0.59170   0.00000  Uiso   1.00
H817   H     0.31896   0.54561   0.94080   0.00000  Uiso   1.00
H818   H     0.13656   0.56666   0.56669   0.00000  Uiso   1.00
H819   H     0.03703   0.57910   0.53805   0.00000  Uiso   1.00
H820   H     0.10538   0.42331   0.86484   0.00000  Uiso   1.00
N821   N     0.14493   0.48556   0.73542   0.00000  Uiso   1.00
N822   N     0.18840   0.51444   0.76457   0.00000  Uiso   1.00
O823   O     0.29769   0.57963   0.75358   0.00000  Uiso   1.00
O824   O     0.05742   0.57038   0.74423   0.00000  Uiso   1.00
O825   O     0.31490   0.50691   0.83380   0.00000  Uiso   1.00
O826   O     0.07463   0.49766   0.82446   0.00000  Uiso   1.00
O827   O     0.27592   0.42962   0.75577   0.00000  Uiso   1.00
O828   O     0.03565   0.42037   0.74642   0.00000  Uiso   1.00
O829   O     0.25870   0.50234   0.67554   0.00000  Uiso   1.00
O830   O     0.01843   0.49309   0.66620   0.00000  Uiso   1.00
Zn831  Zn    0.27119   0.50618   0.75624   0.00000  Uiso   1.00
Zn832  Zn    0.06214   0.49382   0.74376   0.00000  Uiso   1.00
C833   C     0.34745   0.59787   0.74859   0.00000  Uiso   1.00
C834   C     0.38868   0.50405   0.91655   0.00000  Uiso   1.00
C835   C     0.35505   0.65207   0.74802   0.00000  Uiso   1.00
C836   C     0.36855   0.50119   0.85503   0.00000  Uiso   1.00
C837   C     0.64494   0.34795   0.75210   0.00000  Uiso   1.00
C838   C     0.65241   0.40209   0.75104   0.00000  Uiso   1.00
C839   C     0.63146   0.49547   0.64426   0.00000  Uiso   1.00
C840   C     0.60769   0.44139   0.98639   0.00000  Uiso   1.00
C841   C     0.61388   0.48941   0.58175   0.00000  Uiso   1.00
C842   C     0.36160   0.53463   0.95439   0.00000  Uiso   1.00
C843   C     0.39116   0.55460   0.50907   0.00000  Uiso   1.00
C844   C     0.47496   0.51031   0.99034   0.00000  Uiso   1.00
C845   C     0.44861   0.54640   0.52531   0.00000  Uiso   1.00
C846   C     0.35958   0.42972   0.55698   0.00000  Uiso   1.00
C847   C     0.41005   0.45951   0.58527   0.00000  Uiso   1.00
C848   C     0.46216   0.43718   0.59128   0.00000  Uiso   1.00
C849   C     0.46574   0.38594   0.56578   0.00000  Uiso   1.00
C850   C     0.41652   0.35625   0.53609   0.00000  Uiso   1.00
C851   C     0.36358   0.37696   0.53368   0.00000  Uiso   1.00
C852   C     0.52334   0.55683   0.81625   0.00000  Uiso   1.00
C853   C     0.57627   0.58307   0.84790   0.00000  Uiso   1.00
C854   C     0.58418   0.61782   0.89959   0.00000  Uiso   1.00
C855   C     0.44246   0.48639   0.93668   0.00000  Uiso   1.00
C856   C     0.53871   0.63094   0.92395   0.00000  Uiso   1.00
C857   C     0.48546   0.61235   0.89385   0.00000  Uiso   1.00
C858   C     0.47854   0.57880   0.84123   0.00000  Uiso   1.00
C859   C     0.53126   0.49537   0.50731   0.00000  Uiso   1.00
C860   C     0.55344   0.45777   0.97012   0.00000  Uiso   1.00
C861   C     0.52000   0.43378   0.91838   0.00000  Uiso   1.00
C862   C     0.46448   0.44597   0.90326   0.00000  Uiso   1.00
C863   C     0.56459   0.51332   0.56164   0.00000  Uiso   1.00
C864   C     0.63811   0.45473   0.54269   0.00000  Uiso   1.00
H865   H     0.60351   0.66553   0.75618   0.00000  Uiso   1.00
H866   H     0.39653   0.33449   0.74407   0.00000  Uiso   1.00
H867   H     0.40991   0.50073   0.60124   0.00000  Uiso   1.00
H868   H     0.50014   0.46039   0.61398   0.00000  Uiso   1.00
H869   H     0.50664   0.36961   0.56818   0.00000  Uiso   1.00
H870   H     0.41980   0.65110   0.51368   0.00000  Uiso   1.00
H871   H     0.65928   0.35249   0.51136   0.00000  Uiso   1.00
H872   H     0.61502   0.58133   0.83591   0.00000  Uiso   1.00
H873   H     0.62632   0.63497   0.92036   0.00000  Uiso   1.00
H874   H     0.54438   0.65751   0.96409   0.00000  Uiso   1.00
H875   H     0.44872   0.62526   0.91052   0.00000  Uiso   1.00
H876   H     0.48839   0.45599   0.70652   0.00000  Uiso   1.00
H877   H     0.43624   0.57547   0.82553   0.00000  Uiso   1.00
H878   H     0.53598   0.40363   0.89058   0.00000  Uiso   1.00
H879   H     0.62489   0.41526   0.95551   0.00000  Uiso   1.00
H880   H     0.55008   0.54202   0.59170   0.00000  Uiso   1.00
H881   H     0.65230   0.54561   0.94080   0.00000  Uiso   1.00
H882   H     0.46989   0.56666   0.56669   0.00000  Uiso   1.00
H883   H     0.37036   0.57910   0.53805   0.00000  Uiso   1.00
H884   H     0.43872   0.42331   0.86484   0.00000  Uiso   1.00
N885   N     0.47827   0.48556   0.73542   0.00000  Uiso   1.00
N886   N     0.52173   0.51444   0.76457   0.00000  Uiso   1.00
O887   O     0.63102   0.57963   0.75358   0.00000  Uiso   1.00
O888   O     0.39075   0.57038   0.74423   0.00000  Uiso   1.00
O889   O     0.64823   0.50691   0.83380   0.00000  Uiso   1.00
O890   O     0.40796   0.49766   0.82446   0.00000  Uiso   1.00
O891   O     0.60925   0.42962   0.75577   0.00000  Uiso   1.00
O892   O     0.36898   0.42037   0.74642   0.00000  Uiso   1.00
O893   O     0.59204   0.50234   0.67554   0.00000  Uiso   1.00
O894   O     0.35177   0.49309   0.66620   0.00000  Uiso   1.00
Zn895  Zn    0.60453   0.50618   0.75624   0.00000  Uiso   1.00
Zn896  Zn    0.39547   0.49382   0.74376   0.00000  Uiso   1.00
C897   C     0.68078   0.59787   0.74859   0.00000  Uiso   1.00
C898   C     0.72201   0.50405   0.91655   0.00000  Uiso   1.00
C899   C     0.68839   0.65207   0.74802   0.00000  Uiso   1.00
C900   C     0.70188   0.50119   0.85503   0.00000  Uiso   1.00
C901   C     0.97828   0.34795   0.75210   0.00000  Uiso   1.00
C902   C     0.98575   0.40209   0.75104   0.00000  Uiso   1.00
C903   C     0.96480   0.49547   0.64426   0.00000  Uiso   1.00
C904   C     0.94103   0.44139   0.98639   0.00000  Uiso   1.00
C905   C     0.94722   0.48941   0.58175   0.00000  Uiso   1.00
C906   C     0.69493   0.53463   0.95439   0.00000  Uiso   1.00
C907   C     0.72450   0.55460   0.50907   0.00000  Uiso   1.00
C908   C     0.80829   0.51031   0.99034   0.00000  Uiso   1.00
C909   C     0.78195   0.54640   0.52531   0.00000  Uiso   1.00
C910   C     0.69291   0.42972   0.55698   0.00000  Uiso   1.00
C911   C     0.74339   0.45951   0.58527   0.00000  Uiso   1.00
C912   C     0.79550   0.43718   0.59128   0.00000  Uiso   1.00
C913   C     0.79907   0.38594   0.56578   0.00000  Uiso   1.00
C914   C     0.74985   0.35625   0.53609   0.00000  Uiso   1.00
C915   C     0.69691   0.37696   0.53368   0.00000  Uiso   1.00
C916   C     0.85667   0.55683   0.81625   0.00000  Uiso   1.00
C917   C     0.90961   0.58307   0.84790   0.00000  Uiso   1.00
C918   C     0.91751   0.61782   0.89959   0.00000  Uiso   1.00
C919   C     0.77579   0.48639   0.93668   0.00000  Uiso   1.00
C920   C     0.87204   0.63094   0.92395   0.00000  Uiso   1.00
C921   C     0.81880   0.61235   0.89385   0.00000  Uiso   1.00
C922   C     0.81187   0.57880   0.84123   0.00000  Uiso   1.00
C923   C     0.86459   0.49537   0.50731   0.00000  Uiso   1.00
C924   C     0.88677   0.45777   0.97012   0.00000  Uiso   1.00
C925   C     0.85333   0.43378   0.91838   0.00000  Uiso   1.00
C926   C     0.79782   0.44597   0.90326   0.00000  Uiso   1.00
C927   C     0.89793   0.51332   0.56164   0.00000  Uiso   1.00
C928   C     0.97145   0.45473   0.54269   0.00000  Uiso   1.00
H929   H     0.93684   0.66553   0.75618   0.00000  Uiso   1.00
H930   H     0.72986   0.33449   0.74407   0.00000  Uiso   1.00
H931   H     0.74324   0.50073   0.60124   0.00000  Uiso   1.00
H932   H     0.83347   0.46039   0.61398   0.00000  Uiso   1.00
H933   H     0.83998   0.36961   0.56818   0.00000  Uiso   1.00
H934   H     0.75314   0.65110   0.51368   0.00000  Uiso   1.00
H935   H     0.99261   0.35249   0.51136   0.00000  Uiso   1.00
H936   H     0.94835   0.58133   0.83591   0.00000  Uiso   1.00
H937   H     0.95966   0.63497   0.92036   0.00000  Uiso   1.00
H938   H     0.87772   0.65751   0.96409   0.00000  Uiso   1.00
H939   H     0.78205   0.62526   0.91052   0.00000  Uiso   1.00
H940   H     0.82172   0.45599   0.70652   0.00000  Uiso   1.00
H941   H     0.76957   0.57547   0.82553   0.00000  Uiso   1.00
H942   H     0.86931   0.40363   0.89058   0.00000  Uiso   1.00
H943   H     0.95823   0.41526   0.95551   0.00000  Uiso   1.00
H944   H     0.88342   0.54202   0.59170   0.00000  Uiso   1.00
H945   H     0.98563   0.54561   0.94080   0.00000  Uiso   1.00
H946   H     0.80323   0.56666   0.56669   0.00000  Uiso   1.00
H947   H     0.70370   0.57910   0.53805   0.00000  Uiso   1.00
H948   H     0.77205   0.42331   0.86484   0.00000  Uiso   1.00
N949   N     0.81160   0.48556   0.73542   0.00000  Uiso   1.00
N950   N     0.85507   0.51444   0.76457   0.00000  Uiso   1.00
O951   O     0.96435   0.57963   0.75358   0.00000  Uiso   1.00
O952   O     0.72408   0.57038   0.74423   0.00000  Uiso   1.00
O953   O     0.98157   0.50691   0.83380   0.00000  Uiso   1.00
O954   O     0.74130   0.49766   0.82446   0.00000  Uiso   1.00
O955   O     0.94258   0.42962   0.75577   0.00000  Uiso   1.00
O956   O     0.70231   0.42037   0.74642   0.00000  Uiso   1.00
O957   O     0.92537   0.50234   0.67554   0.00000  Uiso   1.00
O958   O     0.68510   0.49309   0.66620   0.00000  Uiso   1.00
Zn959  Zn    0.93786   0.50618   0.75624   0.00000  Uiso   1.00
Zn960  Zn    0.72881   0.49382   0.74376   0.00000  Uiso   1.00
C961   C     0.01411   0.93120   0.74859   0.00000  Uiso   1.00
C962   C     0.05534   0.83739   0.91655   0.00000  Uiso   1.00
C963   C     0.02172   0.98540   0.74802   0.00000  Uiso   1.00
C964   C     0.03521   0.83452   0.85503   0.00000  Uiso   1.00
C965   C     0.31161   0.68128   0.75210   0.00000  Uiso   1.00
C966   C     0.31908   0.73542   0.75104   0.00000  Uiso   1.00
C967   C     0.29813   0.82880   0.64426   0.00000  Uiso   1.00
C968   C     0.27436   0.77472   0.98639   0.00000  Uiso   1.00
C969   C     0.28055   0.82275   0.58175   0.00000  Uiso   1.00
C970   C     0.02826   0.86797   0.95439   0.00000  Uiso   1.00
C971   C     0.05783   0.88793   0.50907   0.00000  Uiso   1.00
C972   C     0.14162   0.84365   0.99034   0.00000  Uiso   1.00
C973   C     0.11528   0.87973   0.52531   0.00000  Uiso   1.00
C974   C     0.02625   0.76305   0.55698   0.00000  Uiso   1.00
C975   C     0.07672   0.79285   0.58527   0.00000  Uiso   1.00
C976   C     0.12883   0.77051   0.59128   0.00000  Uiso   1.00
C977   C     0.13240   0.71927   0.56578   0.00000  Uiso   1.00
C978   C     0.08318   0.68958   0.53609   0.00000  Uiso   1.00
C979   C     0.03024   0.71030   0.53368   0.00000  Uiso   1.00
C980   C     0.19001   0.89017   0.81625   0.00000  Uiso   1.00
C981   C     0.24294   0.91640   0.84790   0.00000  Uiso   1.00
C982   C     0.25085   0.95115   0.89959   0.00000  Uiso   1.00
C983   C     0.10913   0.81972   0.93668   0.00000  Uiso   1.00
C984   C     0.20537   0.96428   0.92395   0.00000  Uiso   1.00
C985   C     0.15213   0.94568   0.89385   0.00000  Uiso   1.00
C986   C     0.14521   0.91214   0.84123   0.00000  Uiso   1.00
C987   C     0.19793   0.82870   0.50731   0.00000  Uiso   1.00
C988   C     0.22010   0.79110   0.97012   0.00000  Uiso   1.00
C989   C     0.18667   0.76711   0.91838   0.00000  Uiso   1.00
C990   C     0.13115   0.77930   0.90326   0.00000  Uiso   1.00
C991   C     0.23126   0.84666   0.56164   0.00000  Uiso   1.00
C992   C     0.30478   0.78806   0.54269   0.00000  Uiso   1.00
H993   H     0.27018   0.99886   0.75618   0.00000  Uiso   1.00
H994   H     0.06319   0.66782   0.74407   0.00000  Uiso   1.00
H995   H     0.07657   0.83406   0.60124   0.00000  Uiso   1.00
H996   H     0.16681   0.79372   0.61398   0.00000  Uiso   1.00
H997   H     0.17331   0.70294   0.56818   0.00000  Uiso   1.00
H998   H     0.08647   0.98444   0.51368   0.00000  Uiso   1.00
H999   H     0.32594   0.68582   0.51136   0.00000  Uiso   1.00
H1000  H     0.28168   0.91467   0.83591   0.00000  Uiso   1.00
H1001  H     0.29299   0.96831   0.92036   0.00000  Uiso   1.00
H1002  H     0.21105   0.99084   0.96409   0.00000  Uiso   1.00
H1003  H     0.11539   0.95860   0.91052   0.00000  Uiso   1.00
H1004  H     0.15505   0.78932   0.70652   0.00000  Uiso   1.00
H1005  H     0.10291   0.90880   0.82553   0.00000  Uiso   1.00
H1006  H     0.20264   0.73697   0.89058   0.00000  Uiso   1.00
H1007  H     0.29156   0.74859   0.95551   0.00000  Uiso   1.00
H1008  H     0.21675   0.87535   0.59170   0.00000  Uiso   1.00
H1009  H     0.31896   0.87894   0.94080   0.00000  Uiso   1.00
H1010  H     0.13656   0.89999   0.56669   0.00000  Uiso   1.00
H1011  H     0.03703   0.91243   0.53805   0.00000  Uiso   1.00
H1012  H     0.10538   0.75664   0.86484   0.00000  Uiso   1.00
N1013  N     0.14493   0.81890   0.73542   0.00000  Uiso   1.00
N1014  N     0.18840   0.84777   0.76457   0.00000  Uiso   1.00
O1015  O     0.29769   0.91296   0.75358   0.00000  Uiso   1.00
O1016  O     0.05742   0.90371   0.74423   0.00000  Uiso   1.00
O1017  O     0.31490   0.84024   0.83380   0.00000  Uiso   1.00
O1018  O     0.07463   0.83099   0.82446   0.00000  Uiso   1.00
O1019  O     0.27592   0.76296   0.75577   0.00000  Uiso   1.00
O1020  O     0.03565   0.75371   0.74642   0.00000  Uiso   1.00
O1021  O     0.25870   0.83567   0.67554   0.00000  Uiso   1.00
O1022  O     0.01843   0.82642   0.66620   0.00000  Uiso   1.00
Zn1023 Zn    0.27119   0.83951   0.75624   0.00000  Uiso   1.00
Zn1024 Zn    0.06214   0.82716   0.74376   0.00000  Uiso   1.00
C1025  C     0.34745   0.93120   0.74859   0.00000  Uiso   1.00
C1026  C     0.38868   0.83739   0.91655   0.00000  Uiso   1.00
C1027  C     0.35505   0.98540   0.74802   0.00000  Uiso   1.00
C1028  C     0.36855   0.83452   0.85503   0.00000  Uiso   1.00
C1029  C     0.64494   0.68128   0.75210   0.00000  Uiso   1.00
C1030  C     0.65241   0.73542   0.75104   0.00000  Uiso   1.00
C1031  C     0.63146   0.82880   0.64426   0.00000  Uiso   1.00
C1032  C     0.60769   0.77472   0.98639   0.00000  Uiso   1.00
C1033  C     0.61388   0.82275   0.58175   0.00000  Uiso   1.00
C1034  C     0.36160   0.86797   0.95439   0.00000  Uiso   1.00
C1035  C     0.39116   0.88793   0.50907   0.00000  Uiso   1.00
C1036  C     0.47496   0.84365   0.99034   0.00000  Uiso   1.00
C1037  C     0.44861   0.87973   0.52531   0.00000  Uiso   1.00
C1038  C     0.35958   0.76305   0.55698   0.00000  Uiso   1.00
C1039  C     0.41005   0.79285   0.58527   0.00000  Uiso   1.00
C1040  C     0.46216   0.77051   0.59128   0.00000  Uiso   1.00
C1041  C     0.46574   0.71927   0.56578   0.00000  Uiso   1.00
C1042  C     0.41652   0.68958   0.53609   0.00000  Uiso   1.00
C1043  C     0.36358   0.71030   0.53368   0.00000  Uiso   1.00
C1044  C     0.52334   0.89017   0.81625   0.00000  Uiso   1.00
C1045  C     0.57627   0.91640   0.84790   0.00000  Uiso   1.00
C1046  C     0.58418   0.95115   0.89959   0.00000  Uiso   1.00
C1047  C     0.44246   0.81972   0.93668   0.00000  Uiso   1.00
C1048  C     0.53871   0.96428   0.92395   0.00000  Uiso   1.00
C1049  C     0.48546   0.94568   0.89385   0.00000  Uiso   1.00
C1050  C     0.47854   0.91214   0.84123   0.00000  Uiso   1.00
C1051  C     0.53126   0.82870   0.50731   0.00000  Uiso   1.00
C1052  C     0.55344   0.79110   0.97012   0.00000  Uiso   1.00
C1053  C     0.52000   0.76711   0.91838   0.00000  Uiso   1.00
C1054  C     0.46448   0.77930   0.90326   0.00000  Uiso   1.00
C1055  C     0.56459   0.84666   0.56164   0.00000  Uiso   1.00
C1056  C     0.63811   0.78806   0.54269   0.00000  Uiso   1.00
H1057  H     0.60351   0.99886   0.75618   0.00000  Uiso   1.00
H1058  H     0.39653   0.66782   0.74407   0.00000  Uiso   1.00
H1059  H     0.40991   0.83406   0.60124   0.00000  Uiso   1.00
H1060  H     0.50014   0.79372   0.61398   0.00000  Uiso   1.00
H1061  H     0.50664   0.70294   0.56818   0.00000  Uiso   1.00
H1062  H     0.41980   0.98444   0.51368   0.00000  Uiso   1.00
H1063  H     0.65928   0.68582   0.51136   0.00000  Uiso   1.00
H1064  H     0.61502   0.91467   0.83591   0.00000  Uiso   1.00
H1065  H     0.62632   0.96831   0.92036   0.00000  Uiso   1.00
H1066  H     0.54438   0.99084   0.96409   0.00000  Uiso   1.00
H1067  H     0.44872   0.95860   0.91052   0.00000  Uiso   1.00
H1068  H     0.48839   0.78932   0.70652   0.00000  Uiso   1.00
H1069  H     0.43624   0.90880   0.82553   0.00000  Uiso   1.00
H1070  H     0.53598   0.73697   0.89058   0.00000  Uiso   1.00
H1071  H     0.62489   0.74859   0.95551   0.00000  Uiso   1.00
H1072  H     0.55008   0.87535   0.59170   0.00000  Uiso   1.00
H1073  H     0.65230   0.87894   0.94080   0.00000  Uiso   1.00
H1074  H     0.46989   0.89999   0.56669   0.00000  Uiso   1.00
H1075  H     0.37036   0.91243   0.53805   0.00000  Uiso   1.00
H1076  H     0.43872   0.75664   0.86484   0.00000  Uiso   1.00
N1077  N     0.47827   0.81890   0.73542   0.00000  Uiso   1.00
N1078  N     0.52173   0.84777   0.76457   0.00000  Uiso   1.00
O1079  O     0.63102   0.91296   0.75358   0.00000  Uiso   1.00
O1080  O     0.39075   0.90371   0.74423   0.00000  Uiso   1.00
O1081  O     0.64823   0.84024   0.83380   0.00000  Uiso   1.00
O1082  O     0.40796   0.83099   0.82446   0.00000  Uiso   1.00
O1083  O     0.60925   0.76296   0.75577   0.00000  Uiso   1.00
O1084  O     0.36898   0.75371   0.74642   0.00000  Uiso   1.00
O1085  O     0.59204   0.83567   0.67554   0.00000  Uiso   1.00
O1086  O     0.35177   0.82642   0.66620   0.00000  Uiso   1.00
Zn1087 Zn    0.60453   0.83951   0.75624   0.00000  Uiso   1.00
Zn1088 Zn    0.39547   0.82716   0.74376   0.00000  Uiso   1.00
C1089  C     0.68078   0.93120   0.74859   0.00000  Uiso   1.00
C1090  C     0.72201   0.83739   0.91655   0.00000  Uiso   1.00
C1091  C     0.68839   0.98540   0.74802   0.00000  Uiso   1.00
C1092  C     0.70188   0.83452   0.85503   0.00000  Uiso   1.00
C1093  C     0.97828   0.68128   0.75210   0.00000  Uiso   1.00
C1094  C     0.98575   0.73542   0.75104   0.00000  Uiso   1.00
C1095  C     0.96480   0.82880   0.64426   0.00000  Uiso   1.00
C1096  C     0.94103   0.77472   0.98639   0.00000  Uiso   1.00
C1097  C     0.94722   0.82275   0.58175   0.00000  Uiso   1.00
C1098  C     0.69493   0.86797   0.95439   0.00000  Uiso   1.00
C1099  C     0.72450   0.88793   0.50907   0.00000  Uiso   1.00
C1100  C     0.80829   0.84365   0.99034   0.00000  Uiso   1.00
C1101  C     0.78195   0.87973   0.52531   0.00000  Uiso   1.00
C1102  C     0.69291   0.76305   0.55698   0.00000  Uiso   1.00
C1103  C     0.74339   0.79285   0.58527   0.00000  Uiso   1.00
C1104  C     0.79550   0.77051   0.59128   0.00000  Uiso   1.00
C1105  C     0.79907   0.71927   0.56578   0.00000  Uiso   1.00
C1106  C     0.74985   0.68958   0.53609   0.00000  Uiso   1.00
C1107  C     0.69691   0.71030   0.53368   0.00000  Uiso   1.00
C1108  C     0.85667   0.89017   0.81625   0.00000  Uiso   1.00
C1109  C     0.90961   0.91640   0.84790   0.00000  Uiso   1.00
C1110  C     0.91751   0.95115   0.89959   0.00000  Uiso   1.00
C1111  C     0.77579   0.81972   0.93668   0.00000  Uiso   1.00
C1112  C     0.87204   0.96428   0.92395   0.00000  Uiso   1.00
C1113  C     0.81880   0.94568   0.89385   0.00000  Uiso   1.00
C1114  C     0.81187   0.91214   0.84123   0.00000  Uiso   1.00
C1115  C     0.86459   0.82870   0.50731   0.00000  Uiso   1.00
C1116  C     0.88677   0.79110   0.97012   0.00000  Uiso   1.00
C1117  C     0.85333   0.76711   0.91838   0.00000  Uiso   1.00
C1118  C     0.79782   0.77930   0.90326   0.00000  Uiso   1.00
C1119  C     0.89793   0.84666   0.56164   0.00000  Uiso   1.00
C1120  C     0.97145   0.78806   0.54269   0.00000  Uiso   1.00
H1121  H     0.93684   0.99886   0.75618   0.00000  Uiso   1.00
H1122  H     0.72986   0.66782   0.74407   0.00000  Uiso   1.00
H1123  H     0.74324   0.83406   0.60124   0.00000  Uiso   1.00
H1124  H     0.83347   0.79372   0.61398   0.00000  Uiso   1.00
H1125  H     0.83998   0.70294   0.56818   0.00000  Uiso   1.00
H1126  H     0.75314   0.98444   0.51368   0.00000  Uiso   1.00
H1127  H     0.99261   0.68582   0.51136   0.00000  Uiso   1.00
H1128  H     0.94835   0.91467   0.83591   0.00000  Uiso   1.00
H1129  H     0.95966   0.96831   0.92036   0.00000  Uiso   1.00
H1130  H     0.87772   0.99084   0.96409   0.00000  Uiso   1.00
H1131  H     0.78205   0.95860   0.91052   0.00000  Uiso   1.00
H1132  H     0.82172   0.78932   0.70652   0.00000  Uiso   1.00
H1133  H     0.76957   0.90880   0.82553   0.00000  Uiso   1.00
H1134  H     0.86931   0.73697   0.89058   0.00000  Uiso   1.00
H1135  H     0.95823   0.74859   0.95551   0.00000  Uiso   1.00
H1136  H     0.88342   0.87535   0.59170   0.00000  Uiso   1.00
H1137  H     0.98563   0.87894   0.94080   0.00000  Uiso   1.00
H1138  H     0.80323   0.89999   0.56669   0.00000  Uiso   1.00
H1139  H     0.70370   0.91243   0.53805   0.00000  Uiso   1.00
H1140  H     0.77205   0.75664   0.86484   0.00000  Uiso   1.00
N1141  N     0.81160   0.81890   0.73542   0.00000  Uiso   1.00
N1142  N     0.85507   0.84777   0.76457   0.00000  Uiso   1.00
O1143  O     0.96435   0.91296   0.75358   0.00000  Uiso   1.00
O1144  O     0.72408   0.90371   0.74423   0.00000  Uiso   1.00
O1145  O     0.98157   0.84024   0.83380   0.00000  Uiso   1.00
O1146  O     0.74130   0.83099   0.82446   0.00000  Uiso   1.00
O1147  O     0.94258   0.76296   0.75577   0.00000  Uiso   1.00
O1148  O     0.70231   0.75371   0.74642   0.00000  Uiso   1.00
O1149  O     0.92537   0.83567   0.67554   0.00000  Uiso   1.00
O1150  O     0.68510   0.82642   0.66620   0.00000  Uiso   1.00
Zn1151 Zn    0.93786   0.83951   0.75624   0.00000  Uiso   1.00
Zn1152 Zn    0.72881   0.82716   0.74376   0.00000  Uiso   1.00
loop_
_geom_bond_atom_site_label_1
_geom_bond_atom_site_label_2
_geom_bond_distance
_geom_bond_site_symmetry_2
_ccdc_geom_bond_type
C1     O56     1.299   .     A
C1     C3      1.411   .     S
C1     O183    1.301   1_455 S
C2     C4      1.465   .     S
C2     C23     1.413   .     A
C2     C10     1.394   .     A
C3     C325    1.327   1_455 S
C3     H226    1.088   .     S
C4     O58     1.309   .     A
C4     O185    1.317   1_455 S
C5     C6      1.411   .     S
C5     C451    1.327   1_545 S
C5     H417    1.088   1_545 S
C6     O59     1.298   .     A
C6     O124    1.302   .     S
C7     C9      1.474   .     S
C7     O61     1.325   .     A
C7     O126    1.305   .     S
C8     H47     1.085   .     S
C8     C28     1.393   .     A
C8     C608    1.401   .     S
C9     C31     1.400   .     A
C9     C32     1.428   .     A
C10    C587    1.386   .     S
C10    H177    1.079   1_455 S
C11    C13     1.397   .     A
C11    H51     1.083   .     S
C11    C586    1.386   1_554 S
C12    C23     1.415   .     A
C12    C589    1.417   .     S
C12    C603    1.426   .     S
C13    H50     1.077   .     S
C13    C588    1.417   1_554 S
C14    C15     1.404   .     A
C14    C19     1.411   .     A
C14    C160    1.498   1_455 S
C15    H35     1.079   .     S
C15    C16     1.395   .     A
C16    H36     1.074   .     S
C16    C17     1.389   .     A
C17    C18     1.390   .     A
C17    H37     1.083   .     S
C18    C19     1.398   .     A
C18    H422    1.073   1_545 S
C19    H167    1.081   1_455 S
C20    C26     1.432   .     A
C20    N54     1.526   .     S
C20    C21     1.434   .     A
C21    C22     1.401   .     A
C21    H40     1.029   .     S
C22    C24     1.371   .     A
C22    H41     1.083   .     S
C23    C30     1.409   .     A
C24    C25     1.371   .     A
C24    H42     1.083   .     S
C25    H43     1.085   .     S
C25    C26     1.405   .     A
C26    H45     1.010   .     S
C27    C31     1.401   .     A
C27    C588    1.426   1_554 S
C27    C604    1.416   1_554 S
C28    C29     1.390   .     A
C28    C603    1.416   .     S
C29    C30     1.379   .     A
C29    H46     1.084   .     S
C30    H52     1.083   .     S
C31    H48     1.077   .     S
C32    C584    1.401   1_554 S
C32    C78     1.498   .     S
H33    C197    1.088   .     S
H34    C387    1.088   1_545 S
H38    C210    1.073   .     S
H39    C83     1.081   .     S
H44    N53     1.027   .     S
H49    C74     1.079   .     S
N53    Zn64    2.057   .     S
N53    N54     1.279   .     D
N54    Zn63    2.057   .     S
O55    Zn63    1.995   .     S
O55    C65     1.301   .     S
O56    Zn64    1.990   .     S
O57    Zn63    1.966   .     S
O57    C68     1.317   .     S
O58    Zn64    1.907   .     S
O59    Zn63    1.990   .     S
O60    Zn64    1.995   .     S
O60    C134    1.302   1_455 S
O61    Zn63    1.907   .     S
O62    Zn64    1.966   .     S
O62    C135    1.305   1_455 S
C65    O120    1.299   .     A
C65    C67     1.411   .     S
C66    C68     1.465   .     S
C66    C87     1.413   .     A
C66    C74     1.394   .     A
C67    C197    1.327   .     S
C67    H290    1.088   .     S
C68    O122    1.309   .     A
C69    C70     1.411   .     S
C69    C515    1.327   1_545 S
C69    H481    1.088   1_545 S
C70    O123    1.298   .     A
C70    O188    1.302   .     S
C71    C73     1.474   .     S
C71    O125    1.325   .     A
C71    O190    1.305   .     S
C72    H111    1.085   .     S
C72    C92     1.393   .     A
C72    C672    1.401   .     S
C73    C95     1.400   .     A
C73    C96     1.428   .     A
C74    C651    1.386   .     S
C75    C77     1.397   .     A
C75    H115    1.083   .     S
C75    C650    1.386   1_554 S
C76    C87     1.415   .     A
C76    C653    1.417   .     S
C76    C667    1.426   .     S
C77    H114    1.077   .     S
C77    C652    1.417   1_554 S
C78    C79     1.404   .     A
C78    C83     1.411   .     A
C79    H99     1.079   .     S
C79    C80     1.395   .     A
C80    H100    1.074   .     S
C80    C81     1.389   .     A
C81    C82     1.390   .     A
C81    H101    1.083   .     S
C82    C83     1.398   .     A
C82    H486    1.073   1_545 S
C84    C90     1.432   .     A
C84    N118    1.526   .     S
C84    C85     1.434   .     A
C85    C86     1.401   .     A
C85    H104    1.029   .     S
C86    C88     1.371   .     A
C86    H105    1.083   .     S
C87    C94     1.409   .     A
C88    C89     1.371   .     A
C88    H106    1.083   .     S
C89    H107    1.085   .     S
C89    C90     1.405   .     A
C90    H109    1.010   .     S
C91    C95     1.401   .     A
C91    C652    1.426   1_554 S
C91    C668    1.416   1_554 S
C92    C93     1.390   .     A
C92    C667    1.416   .     S
C93    C94     1.379   .     A
C93    H110    1.084   .     S
C94    H116    1.083   .     S
C95    H112    1.077   .     S
C96    C648    1.401   1_554 S
C96    C142    1.498   .     S
H97    C261    1.088   .     S
H98    C451    1.088   1_545 S
H102   C274    1.073   .     S
H103   C147    1.081   .     S
H108   N117    1.027   .     S
H113   C138    1.079   .     S
N117   Zn128   2.057   .     S
N117   N118    1.279   .     D
N118   Zn127   2.057   .     S
O119   Zn127   1.995   .     S
O119   C129    1.301   .     S
O120   Zn128   1.990   .     S
O121   Zn127   1.966   .     S
O121   C132    1.317   .     S
O122   Zn128   1.907   .     S
O123   Zn127   1.990   .     S
O124   Zn128   1.995   .     S
O125   Zn127   1.907   .     S
O126   Zn128   1.966   .     S
C129   O184    1.299   .     A
C129   C131    1.411   .     S
C130   C132    1.465   .     S
C130   C151    1.413   .     A
C130   C138    1.394   .     A
C131   C261    1.327   .     S
C131   H354    1.088   .     S
C132   O186    1.309   .     A
C133   C134    1.411   .     S
C133   C387    1.327   1_645 S
C133   H545    1.088   1_545 S
C134   O187    1.298   .     A
C134   O60     1.302   1_655 S
C135   C137    1.474   .     S
C135   O189    1.325   .     A
C135   O62     1.305   1_655 S
C136   H175    1.085   .     S
C136   C156    1.393   .     A
C136   C736    1.401   .     S
C137   C159    1.400   .     A
C137   C160    1.428   .     A
C138   C715    1.386   .     S
C139   C141    1.397   .     A
C139   H179    1.083   .     S
C139   C714    1.386   1_554 S
C140   C151    1.415   .     A
C140   C717    1.417   .     S
C140   C731    1.426   .     S
C141   H178    1.077   .     S
C141   C716    1.417   1_554 S
C142   C143    1.404   .     A
C142   C147    1.411   .     A
C143   H163    1.079   .     S
C143   C144    1.395   .     A
C144   H164    1.074   .     S
C144   C145    1.389   .     A
C145   C146    1.390   .     A
C145   H165    1.083   .     S
C146   C147    1.398   .     A
C146   H550    1.073   1_545 S
C148   C154    1.432   .     A
C148   N182    1.526   .     S
C148   C149    1.434   .     A
C149   C150    1.401   .     A
C149   H168    1.029   .     S
C150   C152    1.371   .     A
C150   H169    1.083   .     S
C151   C158    1.409   .     A
C152   C153    1.371   .     A
C152   H170    1.083   .     S
C153   H171    1.085   .     S
C153   C154    1.405   .     A
C154   H173    1.010   .     S
C155   C159    1.401   .     A
C155   C716    1.426   1_554 S
C155   C732    1.416   1_554 S
C156   C157    1.390   .     A
C156   C731    1.416   .     S
C157   C158    1.379   .     A
C157   H174    1.084   .     S
C158   H180    1.083   .     S
C159   H176    1.077   .     S
C160   C712    1.401   1_554 S
C160   C14     1.498   1_655 S
H161   C325    1.088   .     S
H162   C515    1.088   1_545 S
H166   C338    1.073   .     S
H167   C19     1.081   1_655 S
H172   N181    1.027   .     S
H177   C10     1.079   1_655 S
N181   Zn192   2.057   .     S
N181   N182    1.279   .     D
N182   Zn191   2.057   .     S
O183   Zn191   1.995   .     S
O183   C1      1.301   1_655 S
O184   Zn192   1.990   .     S
O185   Zn191   1.966   .     S
O185   C4      1.317   1_655 S
O186   Zn192   1.907   .     S
O187   Zn191   1.990   .     S
O188   Zn192   1.995   .     S
O189   Zn191   1.907   .     S
O190   Zn192   1.966   .     S
C193   O248    1.299   .     A
C193   C195    1.411   .     S
C193   O375    1.301   1_455 S
C194   C196    1.465   .     S
C194   C215    1.413   .     A
C194   C202    1.394   .     A
C195   C517    1.327   1_455 S
C195   H418    1.088   .     S
C196   O250    1.309   .     A
C196   O377    1.317   1_455 S
C197   C198    1.411   .     S
C198   O251    1.298   .     A
C198   O316    1.302   .     S
C199   C201    1.474   .     S
C199   O253    1.325   .     A
C199   O318    1.305   .     S
C200   H239    1.085   .     S
C200   C220    1.393   .     A
C200   C800    1.401   .     S
C201   C223    1.400   .     A
C201   C224    1.428   .     A
C202   C779    1.386   .     S
C202   H369    1.079   1_455 S
C203   C205    1.397   .     A
C203   H243    1.083   .     S
C203   C778    1.386   1_554 S
C204   C215    1.415   .     A
C204   C781    1.417   .     S
C204   C795    1.426   .     S
C205   H242    1.077   .     S
C205   C780    1.417   1_554 S
C206   C207    1.404   .     A
C206   C211    1.411   .     A
C206   C352    1.498   1_455 S
C207   H227    1.079   .     S
C207   C208    1.395   .     A
C208   H228    1.074   .     S
C208   C209    1.389   .     A
C209   C210    1.390   .     A
C209   H229    1.083   .     S
C210   C211    1.398   .     A
C211   H359    1.081   1_455 S
C212   C218    1.432   .     A
C212   N246    1.526   .     S
C212   C213    1.434   .     A
C213   C214    1.401   .     A
C213   H232    1.029   .     S
C214   C216    1.371   .     A
C214   H233    1.083   .     S
C215   C222    1.409   .     A
C216   C217    1.371   .     A
C216   H234    1.083   .     S
C217   H235    1.085   .     S
C217   C218    1.405   .     A
C218   H237    1.010   .     S
C219   C223    1.401   .     A
C219   C780    1.426   1_554 S
C219   C796    1.416   1_554 S
C220   C221    1.390   .     A
C220   C795    1.416   .     S
C221   C222    1.379   .     A
C221   H238    1.084   .     S
C222   H244    1.083   .     S
C223   H240    1.077   .     S
C224   C776    1.401   1_554 S
C224   C270    1.498   .     S
H225   C389    1.088   .     S
H230   C402    1.073   .     S
H231   C275    1.081   .     S
H236   N245    1.027   .     S
H241   C266    1.079   .     S
N245   Zn256   2.057   .     S
N245   N246    1.279   .     D
N246   Zn255   2.057   .     S
O247   Zn255   1.995   .     S
O247   C257    1.301   .     S
O248   Zn256   1.990   .     S
O249   Zn255   1.966   .     S
O249   C260    1.317   .     S
O250   Zn256   1.907   .     S
O251   Zn255   1.990   .     S
O252   Zn256   1.995   .     S
O252   C326    1.302   1_455 S
O253   Zn255   1.907   .     S
O254   Zn256   1.966   .     S
O254   C327    1.305   1_455 S
C257   O312    1.299   .     A
C257   C259    1.411   .     S
C258   C260    1.465   .     S
C258   C279    1.413   .     A
C258   C266    1.394   .     A
C259   C389    1.327   .     S
C259   H482    1.088   .     S
C260   O314    1.309   .     A
C261   C262    1.411   .     S
C262   O315    1.298   .     A
C262   O380    1.302   .     S
C263   C265    1.474   .     S
C263   O317    1.325   .     A
C263   O382    1.305   .     S
C264   H303    1.085   .     S
C264   C284    1.393   .     A
C264   C864    1.401   .     S
C265   C287    1.400   .     A
C265   C288    1.428   .     A
C266   C843    1.386   .     S
C267   C269    1.397   .     A
C267   H307    1.083   .     S
C267   C842    1.386   1_554 S
C268   C279    1.415   .     A
C268   C845    1.417   .     S
C268   C859    1.426   .     S
C269   H306    1.077   .     S
C269   C844    1.417   1_554 S
C270   C271    1.404   .     A
C270   C275    1.411   .     A
C271   H291    1.079   .     S
C271   C272    1.395   .     A
C272   H292    1.074   .     S
C272   C273    1.389   .     A
C273   C274    1.390   .     A
C273   H293    1.083   .     S
C274   C275    1.398   .     A
C276   C282    1.432   .     A
C276   N310    1.526   .     S
C276   C277    1.434   .     A
C277   C278    1.401   .     A
C277   H296    1.029   .     S
C278   C280    1.371   .     A
C278   H297    1.083   .     S
C279   C286    1.409   .     A
C280   C281    1.371   .     A
C280   H298    1.083   .     S
C281   H299    1.085   .     S
C281   C282    1.405   .     A
C282   H301    1.010   .     S
C283   C287    1.401   .     A
C283   C844    1.426   1_554 S
C283   C860    1.416   1_554 S
C284   C285    1.390   .     A
C284   C859    1.416   .     S
C285   C286    1.379   .     A
C285   H302    1.084   .     S
C286   H308    1.083   .     S
C287   H304    1.077   .     S
C288   C840    1.401   1_554 S
C288   C334    1.498   .     S
H289   C453    1.088   .     S
H294   C466    1.073   .     S
H295   C339    1.081   .     S
H300   N309    1.027   .     S
H305   C330    1.079   .     S
N309   Zn320   2.057   .     S
N309   N310    1.279   .     D
N310   Zn319   2.057   .     S
O311   Zn319   1.995   .     S
O311   C321    1.301   .     S
O312   Zn320   1.990   .     S
O313   Zn319   1.966   .     S
O313   C324    1.317   .     S
O314   Zn320   1.907   .     S
O315   Zn319   1.990   .     S
O316   Zn320   1.995   .     S
O317   Zn319   1.907   .     S
O318   Zn320   1.966   .     S
C321   O376    1.299   .     A
C321   C323    1.411   .     S
C322   C324    1.465   .     S
C322   C343    1.413   .     A
C322   C330    1.394   .     A
C323   C453    1.327   .     S
C323   H546    1.088   .     S
C324   O378    1.309   .     A
C325   C326    1.411   .     S
C325   C3      1.327   1_655 S
C326   O379    1.298   .     A
C326   O252    1.302   1_655 S
C327   C329    1.474   .     S
C327   O381    1.325   .     A
C327   O254    1.305   1_655 S
C328   H367    1.085   .     S
C328   C348    1.393   .     A
C328   C928    1.401   .     S
C329   C351    1.400   .     A
C329   C352    1.428   .     A
C330   C907    1.386   .     S
C331   C333    1.397   .     A
C331   H371    1.083   .     S
C331   C906    1.386   1_554 S
C332   C343    1.415   .     A
C332   C909    1.417   .     S
C332   C923    1.426   .     S
C333   H370    1.077   .     S
C333   C908    1.417   1_554 S
C334   C335    1.404   .     A
C334   C339    1.411   .     A
C335   H355    1.079   .     S
C335   C336    1.395   .     A
C336   H356    1.074   .     S
C336   C337    1.389   .     A
C337   C338    1.390   .     A
C337   H357    1.083   .     S
C338   C339    1.398   .     A
C340   C346    1.432   .     A
C340   N374    1.526   .     S
C340   C341    1.434   .     A
C341   C342    1.401   .     A
C341   H360    1.029   .     S
C342   C344    1.371   .     A
C342   H361    1.083   .     S
C343   C350    1.409   .     A
C344   C345    1.371   .     A
C344   H362    1.083   .     S
C345   H363    1.085   .     S
C345   C346    1.405   .     A
C346   H365    1.010   .     S
C347   C351    1.401   .     A
C347   C908    1.426   1_554 S
C347   C924    1.416   1_554 S
C348   C349    1.390   .     A
C348   C923    1.416   .     S
C349   C350    1.379   .     A
C349   H366    1.084   .     S
C350   H372    1.083   .     S
C351   H368    1.077   .     S
C352   C904    1.401   1_554 S
C352   C206    1.498   1_655 S
H353   C517    1.088   .     S
H358   C530    1.073   .     S
H359   C211    1.081   1_655 S
H364   N373    1.027   .     S
H369   C202    1.079   1_655 S
N373   Zn384   2.057   .     S
N373   N374    1.279   .     D
N374   Zn383   2.057   .     S
O375   Zn383   1.995   .     S
O375   C193    1.301   1_655 S
O376   Zn384   1.990   .     S
O377   Zn383   1.966   .     S
O377   C196    1.317   1_655 S
O378   Zn384   1.907   .     S
O379   Zn383   1.990   .     S
O380   Zn384   1.995   .     S
O381   Zn383   1.907   .     S
O382   Zn384   1.966   .     S
C385   O440    1.299   .     A
C385   C387    1.411   .     S
C385   O567    1.301   1_455 S
C386   C388    1.465   .     S
C386   C407    1.413   .     A
C386   C394    1.394   .     A
C387   C133    1.327   1_465 S
C387   H34     1.088   1_565 S
C388   O442    1.309   .     A
C388   O569    1.317   1_455 S
C389   C390    1.411   .     S
C390   O443    1.298   .     A
C390   O508    1.302   .     S
C391   C393    1.474   .     S
C391   O445    1.325   .     A
C391   O510    1.305   .     S
C392   H431    1.085   .     S
C392   C412    1.393   .     A
C392   C992    1.401   .     S
C393   C415    1.400   .     A
C393   C416    1.428   .     A
C394   C971    1.386   .     S
C394   H561    1.079   1_455 S
C395   C397    1.397   .     A
C395   H435    1.083   .     S
C395   C970    1.386   1_554 S
C396   C407    1.415   .     A
C396   C973    1.417   .     S
C396   C987    1.426   .     S
C397   H434    1.077   .     S
C397   C972    1.417   1_554 S
C398   C399    1.404   .     A
C398   C403    1.411   .     A
C398   C544    1.498   1_455 S
C399   H419    1.079   .     S
C399   C400    1.395   .     A
C400   H420    1.074   .     S
C400   C401    1.389   .     A
C401   C402    1.390   .     A
C401   H421    1.083   .     S
C402   C403    1.398   .     A
C403   H551    1.081   1_455 S
C404   C410    1.432   .     A
C404   N438    1.526   .     S
C404   C405    1.434   .     A
C405   C406    1.401   .     A
C405   H424    1.029   .     S
C406   C408    1.371   .     A
C406   H425    1.083   .     S
C407   C414    1.409   .     A
C408   C409    1.371   .     A
C408   H426    1.083   .     S
C409   H427    1.085   .     S
C409   C410    1.405   .     A
C410   H429    1.010   .     S
C411   C415    1.401   .     A
C411   C972    1.426   1_554 S
C411   C988    1.416   1_554 S
C412   C413    1.390   .     A
C412   C987    1.416   .     S
C413   C414    1.379   .     A
C413   H430    1.084   .     S
C414   H436    1.083   .     S
C415   H432    1.077   .     S
C416   C968    1.401   1_554 S
C416   C462    1.498   .     S
H417   C5      1.088   1_565 S
H422   C18     1.073   1_565 S
H423   C467    1.081   .     S
H428   N437    1.027   .     S
H433   C458    1.079   .     S
N437   Zn448   2.057   .     S
N437   N438    1.279   .     D
N438   Zn447   2.057   .     S
O439   Zn447   1.995   .     S
O439   C449    1.301   .     S
O440   Zn448   1.990   .     S
O441   Zn447   1.966   .     S
O441   C452    1.317   .     S
O442   Zn448   1.907   .     S
O443   Zn447   1.990   .     S
O444   Zn448   1.995   .     S
O444   C518    1.302   1_455 S
O445   Zn447   1.907   .     S
O446   Zn448   1.966   .     S
O446   C519    1.305   1_455 S
C449   O504    1.299   .     A
C449   C451    1.411   .     S
C450   C452    1.465   .     S
C450   C471    1.413   .     A
C450   C458    1.394   .     A
C451   C5      1.327   1_565 S
C451   H98     1.088   1_565 S
C452   O506    1.309   .     A
C453   C454    1.411   .     S
C454   O507    1.298   .     A
C454   O572    1.302   .     S
C455   C457    1.474   .     S
C455   O509    1.325   .     A
C455   O574    1.305   .     S
C456   H495    1.085   .     S
C456   C476    1.393   .     A
C456   C1056   1.401   .     S
C457   C479    1.400   .     A
C457   C480    1.428   .     A
C458   C1035   1.386   .     S
C459   C461    1.397   .     A
C459   H499    1.083   .     S
C459   C1034   1.386   1_554 S
C460   C471    1.415   .     A
C460   C1037   1.417   .     S
C460   C1051   1.426   .     S
C461   H498    1.077   .     S
C461   C1036   1.417   1_554 S
C462   C463    1.404   .     A
C462   C467    1.411   .     A
C463   H483    1.079   .     S
C463   C464    1.395   .     A
C464   H484    1.074   .     S
C464   C465    1.389   .     A
C465   C466    1.390   .     A
C465   H485    1.083   .     S
C466   C467    1.398   .     A
C468   C474    1.432   .     A
C468   N502    1.526   .     S
C468   C469    1.434   .     A
C469   C470    1.401   .     A
C469   H488    1.029   .     S
C470   C472    1.371   .     A
C470   H489    1.083   .     S
C471   C478    1.409   .     A
C472   C473    1.371   .     A
C472   H490    1.083   .     S
C473   H491    1.085   .     S
C473   C474    1.405   .     A
C474   H493    1.010   .     S
C475   C479    1.401   .     A
C475   C1036   1.426   1_554 S
C475   C1052   1.416   1_554 S
C476   C477    1.390   .     A
C476   C1051   1.416   .     S
C477   C478    1.379   .     A
C477   H494    1.084   .     S
C478   H500    1.083   .     S
C479   H496    1.077   .     S
C480   C1032   1.401   1_554 S
C480   C526    1.498   .     S
H481   C69     1.088   1_565 S
H486   C82     1.073   1_565 S
H487   C531    1.081   .     S
H492   N501    1.027   .     S
H497   C522    1.079   .     S
N501   Zn512   2.057   .     S
N501   N502    1.279   .     D
N502   Zn511   2.057   .     S
O503   Zn511   1.995   .     S
O503   C513    1.301   .     S
O504   Zn512   1.990   .     S
O505   Zn511   1.966   .     S
O505   C516    1.317   .     S
O506   Zn512   1.907   .     S
O507   Zn511   1.990   .     S
O508   Zn512   1.995   .     S
O509   Zn511   1.907   .     S
O510   Zn512   1.966   .     S
C513   O568    1.299   .     A
C513   C515    1.411   .     S
C514   C516    1.465   .     S
C514   C535    1.413   .     A
C514   C522    1.394   .     A
C515   C69     1.327   1_565 S
C515   H162    1.088   1_565 S
C516   O570    1.309   .     A
C517   C518    1.411   .     S
C517   C195    1.327   1_655 S
C518   O571    1.298   .     A
C518   O444    1.302   1_655 S
C519   C521    1.474   .     S
C519   O573    1.325   .     A
C519   O446    1.305   1_655 S
C520   H559    1.085   .     S
C520   C540    1.393   .     A
C520   C1120   1.401   .     S
C521   C543    1.400   .     A
C521   C544    1.428   .     A
C522   C1099   1.386   .     S
C523   C525    1.397   .     A
C523   H563    1.083   .     S
C523   C1098   1.386   1_554 S
C524   C535    1.415   .     A
C524   C1101   1.417   .     S
C524   C1115   1.426   .     S
C525   H562    1.077   .     S
C525   C1100   1.417   1_554 S
C526   C527    1.404   .     A
C526   C531    1.411   .     A
C527   H547    1.079   .     S
C527   C528    1.395   .     A
C528   H548    1.074   .     S
C528   C529    1.389   .     A
C529   C530    1.390   .     A
C529   H549    1.083   .     S
C530   C531    1.398   .     A
C532   C538    1.432   .     A
C532   N566    1.526   .     S
C532   C533    1.434   .     A
C533   C534    1.401   .     A
C533   H552    1.029   .     S
C534   C536    1.371   .     A
C534   H553    1.083   .     S
C535   C542    1.409   .     A
C536   C537    1.371   .     A
C536   H554    1.083   .     S
C537   H555    1.085   .     S
C537   C538    1.405   .     A
C538   H557    1.010   .     S
C539   C543    1.401   .     A
C539   C1100   1.426   1_554 S
C539   C1116   1.416   1_554 S
C540   C541    1.390   .     A
C540   C1115   1.416   .     S
C541   C542    1.379   .     A
C541   H558    1.084   .     S
C542   H564    1.083   .     S
C543   H560    1.077   .     S
C544   C1096   1.401   1_554 S
C544   C398    1.498   1_655 S
H545   C133    1.088   1_565 S
H550   C146    1.073   1_565 S
H551   C403    1.081   1_655 S
H556   N565    1.027   .     S
H561   C394    1.079   1_655 S
N565   Zn576   2.057   .     S
N565   N566    1.279   .     D
N566   Zn575   2.057   .     S
O567   Zn575   1.995   .     S
O567   C385    1.301   1_655 S
O568   Zn576   1.990   .     S
O569   Zn575   1.966   .     S
O569   C388    1.317   1_655 S
O570   Zn576   1.907   .     S
O571   Zn575   1.990   .     S
O572   Zn576   1.995   .     S
O573   Zn575   1.907   .     S
O574   Zn576   1.966   .     S
C577   O632    1.299   .     A
C577   C579    1.411   .     S
C577   O759    1.301   1_455 S
C578   C580    1.465   .     S
C578   C599    1.413   .     A
C578   C586    1.394   .     A
C579   C901    1.327   1_455 S
C579   H802    1.088   .     S
C580   O634    1.309   .     A
C580   O761    1.317   1_455 S
C581   C582    1.411   .     S
C581   C1027   1.327   1_545 S
C581   H993    1.088   1_545 S
C582   O635    1.298   .     A
C582   O700    1.302   .     S
C583   C585    1.474   .     S
C583   O637    1.325   .     A
C583   O702    1.305   .     S
C584   H623    1.085   .     S
C584   C604    1.393   .     A
C584   C32     1.401   1_556 S
C585   C607    1.400   .     A
C585   C608    1.428   .     A
C586   C11     1.386   1_556 S
C586   H753    1.079   1_455 S
C587   C589    1.397   .     A
C587   H627    1.083   .     S
C588   C599    1.415   .     A
C588   C13     1.417   1_556 S
C588   C27     1.426   1_556 S
C589   H626    1.077   .     S
C590   C591    1.404   .     A
C590   C595    1.411   .     A
C590   C736    1.498   1_455 S
C591   H611    1.079   .     S
C591   C592    1.395   .     A
C592   H612    1.074   .     S
C592   C593    1.389   .     A
C593   C594    1.390   .     A
C593   H613    1.083   .     S
C594   C595    1.398   .     A
C594   H998    1.073   1_545 S
C595   H743    1.081   1_455 S
C596   C602    1.432   .     A
C596   N630    1.526   .     S
C596   C597    1.434   .     A
C597   C598    1.401   .     A
C597   H616    1.029   .     S
C598   C600    1.371   .     A
C598   H617    1.083   .     S
C599   C606    1.409   .     A
C600   C601    1.371   .     A
C600   H618    1.083   .     S
C601   H619    1.085   .     S
C601   C602    1.405   .     A
C602   H621    1.010   .     S
C603   C607    1.401   .     A
C604   C605    1.390   .     A
C604   C27     1.416   1_556 S
C605   C606    1.379   .     A
C605   H622    1.084   .     S
C606   H628    1.083   .     S
C607   H624    1.077   .     S
C608   C654    1.498   .     S
H609   C773    1.088   .     S
H610   C963    1.088   1_545 S
H614   C786    1.073   .     S
H615   C659    1.081   .     S
H620   N629    1.027   .     S
H625   C650    1.079   .     S
N629   Zn640   2.057   .     S
N629   N630    1.279   .     D
N630   Zn639   2.057   .     S
O631   Zn639   1.995   .     S
O631   C641    1.301   .     S
O632   Zn640   1.990   .     S
O633   Zn639   1.966   .     S
O633   C644    1.317   .     S
O634   Zn640   1.907   .     S
O635   Zn639   1.990   .     S
O636   Zn640   1.995   .     S
O636   C710    1.302   1_455 S
O637   Zn639   1.907   .     S
O638   Zn640   1.966   .     S
O638   C711    1.305   1_455 S
C641   O696    1.299   .     A
C641   C643    1.411   .     S
C642   C644    1.465   .     S
C642   C663    1.413   .     A
C642   C650    1.394   .     A
C643   C773    1.327   .     S
C643   H866    1.088   .     S
C644   O698    1.309   .     A
C645   C646    1.411   .     S
C645   C1091   1.327   1_545 S
C645   H1057   1.088   1_545 S
C646   O699    1.298   .     A
C646   O764    1.302   .     S
C647   C649    1.474   .     S
C647   O701    1.325   .     A
C647   O766    1.305   .     S
C648   H687    1.085   .     S
C648   C668    1.393   .     A
C648   C96     1.401   1_556 S
C649   C671    1.400   .     A
C649   C672    1.428   .     A
C650   C75     1.386   1_556 S
C651   C653    1.397   .     A
C651   H691    1.083   .     S
C652   C663    1.415   .     A
C652   C77     1.417   1_556 S
C652   C91     1.426   1_556 S
C653   H690    1.077   .     S
C654   C655    1.404   .     A
C654   C659    1.411   .     A
C655   H675    1.079   .     S
C655   C656    1.395   .     A
C656   H676    1.074   .     S
C656   C657    1.389   .     A
C657   C658    1.390   .     A
C657   H677    1.083   .     S
C658   C659    1.398   .     A
C658   H1062   1.073   1_545 S
C660   C666    1.432   .     A
C660   N694    1.526   .     S
C660   C661    1.434   .     A
C661   C662    1.401   .     A
C661   H680    1.029   .     S
C662   C664    1.371   .     A
C662   H681    1.083   .     S
C663   C670    1.409   .     A
C664   C665    1.371   .     A
C664   H682    1.083   .     S
C665   H683    1.085   .     S
C665   C666    1.405   .     A
C666   H685    1.010   .     S
C667   C671    1.401   .     A
C668   C669    1.390   .     A
C668   C91     1.416   1_556 S
C669   C670    1.379   .     A
C669   H686    1.084   .     S
C670   H692    1.083   .     S
C671   H688    1.077   .     S
C672   C718    1.498   .     S
H673   C837    1.088   .     S
H674   C1027   1.088   1_545 S
H678   C850    1.073   .     S
H679   C723    1.081   .     S
H684   N693    1.027   .     S
H689   C714    1.079   .     S
N693   Zn704   2.057   .     S
N693   N694    1.279   .     D
N694   Zn703   2.057   .     S
O695   Zn703   1.995   .     S
O695   C705    1.301   .     S
O696   Zn704   1.990   .     S
O697   Zn703   1.966   .     S
O697   C708    1.317   .     S
O698   Zn704   1.907   .     S
O699   Zn703   1.990   .     S
O700   Zn704   1.995   .     S
O701   Zn703   1.907   .     S
O702   Zn704   1.966   .     S
C705   O760    1.299   .     A
C705   C707    1.411   .     S
C706   C708    1.465   .     S
C706   C727    1.413   .     A
C706   C714    1.394   .     A
C707   C837    1.327   .     S
C707   H930    1.088   .     S
C708   O762    1.309   .     A
C709   C710    1.411   .     S
C709   C963    1.327   1_645 S
C709   H1121   1.088   1_545 S
C710   O763    1.298   .     A
C710   O636    1.302   1_655 S
C711   C713    1.474   .     S
C711   O765    1.325   .     A
C711   O638    1.305   1_655 S
C712   H751    1.085   .     S
C712   C732    1.393   .     A
C712   C160    1.401   1_556 S
C713   C735    1.400   .     A
C713   C736    1.428   .     A
C714   C139    1.386   1_556 S
C715   C717    1.397   .     A
C715   H755    1.083   .     S
C716   C727    1.415   .     A
C716   C141    1.417   1_556 S
C716   C155    1.426   1_556 S
C717   H754    1.077   .     S
C718   C719    1.404   .     A
C718   C723    1.411   .     A
C719   H739    1.079   .     S
C719   C720    1.395   .     A
C720   H740    1.074   .     S
C720   C721    1.389   .     A
C721   C722    1.390   .     A
C721   H741    1.083   .     S
C722   C723    1.398   .     A
C722   H1126   1.073   1_545 S
C724   C730    1.432   .     A
C724   N758    1.526   .     S
C724   C725    1.434   .     A
C725   C726    1.401   .     A
C725   H744    1.029   .     S
C726   C728    1.371   .     A
C726   H745    1.083   .     S
C727   C734    1.409   .     A
C728   C729    1.371   .     A
C728   H746    1.083   .     S
C729   H747    1.085   .     S
C729   C730    1.405   .     A
C730   H749    1.010   .     S
C731   C735    1.401   .     A
C732   C733    1.390   .     A
C732   C155    1.416   1_556 S
C733   C734    1.379   .     A
C733   H750    1.084   .     S
C734   H756    1.083   .     S
C735   H752    1.077   .     S
C736   C590    1.498   1_655 S
H737   C901    1.088   .     S
H738   C1091   1.088   1_545 S
H742   C914    1.073   .     S
H743   C595    1.081   1_655 S
H748   N757    1.027   .     S
H753   C586    1.079   1_655 S
N757   Zn768   2.057   .     S
N757   N758    1.279   .     D
N758   Zn767   2.057   .     S
O759   Zn767   1.995   .     S
O759   C577    1.301   1_655 S
O760   Zn768   1.990   .     S
O761   Zn767   1.966   .     S
O761   C580    1.317   1_655 S
O762   Zn768   1.907   .     S
O763   Zn767   1.990   .     S
O764   Zn768   1.995   .     S
O765   Zn767   1.907   .     S
O766   Zn768   1.966   .     S
C769   O824    1.299   .     A
C769   C771    1.411   .     S
C769   O951    1.301   1_455 S
C770   C772    1.465   .     S
C770   C791    1.413   .     A
C770   C778    1.394   .     A
C771   C1093   1.327   1_455 S
C771   H994    1.088   .     S
C772   O826    1.309   .     A
C772   O953    1.317   1_455 S
C773   C774    1.411   .     S
C774   O827    1.298   .     A
C774   O892    1.302   .     S
C775   C777    1.474   .     S
C775   O829    1.325   .     A
C775   O894    1.305   .     S
C776   H815    1.085   .     S
C776   C796    1.393   .     A
C776   C224    1.401   1_556 S
C777   C799    1.400   .     A
C777   C800    1.428   .     A
C778   C203    1.386   1_556 S
C778   H945    1.079   1_455 S
C779   C781    1.397   .     A
C779   H819    1.083   .     S
C780   C791    1.415   .     A
C780   C205    1.417   1_556 S
C780   C219    1.426   1_556 S
C781   H818    1.077   .     S
C782   C783    1.404   .     A
C782   C787    1.411   .     A
C782   C928    1.498   1_455 S
C783   H803    1.079   .     S
C783   C784    1.395   .     A
C784   H804    1.074   .     S
C784   C785    1.389   .     A
C785   C786    1.390   .     A
C785   H805    1.083   .     S
C786   C787    1.398   .     A
C787   H935    1.081   1_455 S
C788   C794    1.432   .     A
C788   N822    1.526   .     S
C788   C789    1.434   .     A
C789   C790    1.401   .     A
C789   H808    1.029   .     S
C790   C792    1.371   .     A
C790   H809    1.083   .     S
C791   C798    1.409   .     A
C792   C793    1.371   .     A
C792   H810    1.083   .     S
C793   H811    1.085   .     S
C793   C794    1.405   .     A
C794   H813    1.010   .     S
C795   C799    1.401   .     A
C796   C797    1.390   .     A
C796   C219    1.416   1_556 S
C797   C798    1.379   .     A
C797   H814    1.084   .     S
C798   H820    1.083   .     S
C799   H816    1.077   .     S
C800   C846    1.498   .     S
H801   C965    1.088   .     S
H806   C978    1.073   .     S
H807   C851    1.081   .     S
H812   N821    1.027   .     S
H817   C842    1.079   .     S
N821   Zn832   2.057   .     S
N821   N822    1.279   .     D
N822   Zn831   2.057   .     S
O823   Zn831   1.995   .     S
O823   C833    1.301   .     S
O824   Zn832   1.990   .     S
O825   Zn831   1.966   .     S
O825   C836    1.317   .     S
O826   Zn832   1.907   .     S
O827   Zn831   1.990   .     S
O828   Zn832   1.995   .     S
O828   C902    1.302   1_455 S
O829   Zn831   1.907   .     S
O830   Zn832   1.966   .     S
O830   C903    1.305   1_455 S
C833   O888    1.299   .     A
C833   C835    1.411   .     S
C834   C836    1.465   .     S
C834   C855    1.413   .     A
C834   C842    1.394   .     A
C835   C965    1.327   .     S
C835   H1058   1.088   .     S
C836   O890    1.309   .     A
C837   C838    1.411   .     S
C838   O891    1.298   .     A
C838   O956    1.302   .     S
C839   C841    1.474   .     S
C839   O893    1.325   .     A
C839   O958    1.305   .     S
C840   H879    1.085   .     S
C840   C860    1.393   .     A
C840   C288    1.401   1_556 S
C841   C863    1.400   .     A
C841   C864    1.428   .     A
C842   C267    1.386   1_556 S
C843   C845    1.397   .     A
C843   H883    1.083   .     S
C844   C855    1.415   .     A
C844   C269    1.417   1_556 S
C844   C283    1.426   1_556 S
C845   H882    1.077   .     S
C846   C847    1.404   .     A
C846   C851    1.411   .     A
C847   H867    1.079   .     S
C847   C848    1.395   .     A
C848   H868    1.074   .     S
C848   C849    1.389   .     A
C849   C850    1.390   .     A
C849   H869    1.083   .     S
C850   C851    1.398   .     A
C852   C858    1.432   .     A
C852   N886    1.526   .     S
C852   C853    1.434   .     A
C853   C854    1.401   .     A
C853   H872    1.029   .     S
C854   C856    1.371   .     A
C854   H873    1.083   .     S
C855   C862    1.409   .     A
C856   C857    1.371   .     A
C856   H874    1.083   .     S
C857   H875    1.085   .     S
C857   C858    1.405   .     A
C858   H877    1.010   .     S
C859   C863    1.401   .     A
C860   C861    1.390   .     A
C860   C283    1.416   1_556 S
C861   C862    1.379   .     A
C861   H878    1.084   .     S
C862   H884    1.083   .     S
C863   H880    1.077   .     S
C864   C910    1.498   .     S
H865   C1029   1.088   .     S
H870   C1042   1.073   .     S
H871   C915    1.081   .     S
H876   N885    1.027   .     S
H881   C906    1.079   .     S
N885   Zn896   2.057   .     S
N885   N886    1.279   .     D
N886   Zn895   2.057   .     S
O887   Zn895   1.995   .     S
O887   C897    1.301   .     S
O888   Zn896   1.990   .     S
O889   Zn895   1.966   .     S
O889   C900    1.317   .     S
O890   Zn896   1.907   .     S
O891   Zn895   1.990   .     S
O892   Zn896   1.995   .     S
O893   Zn895   1.907   .     S
O894   Zn896   1.966   .     S
C897   O952    1.299   .     A
C897   C899    1.411   .     S
C898   C900    1.465   .     S
C898   C919    1.413   .     A
C898   C906    1.394   .     A
C899   C1029   1.327   .     S
C899   H1122   1.088   .     S
C900   O954    1.309   .     A
C901   C902    1.411   .     S
C901   C579    1.327   1_655 S
C902   O955    1.298   .     A
C902   O828    1.302   1_655 S
C903   C905    1.474   .     S
C903   O957    1.325   .     A
C903   O830    1.305   1_655 S
C904   H943    1.085   .     S
C904   C924    1.393   .     A
C904   C352    1.401   1_556 S
C905   C927    1.400   .     A
C905   C928    1.428   .     A
C906   C331    1.386   1_556 S
C907   C909    1.397   .     A
C907   H947    1.083   .     S
C908   C919    1.415   .     A
C908   C333    1.417   1_556 S
C908   C347    1.426   1_556 S
C909   H946    1.077   .     S
C910   C911    1.404   .     A
C910   C915    1.411   .     A
C911   H931    1.079   .     S
C911   C912    1.395   .     A
C912   H932    1.074   .     S
C912   C913    1.389   .     A
C913   C914    1.390   .     A
C913   H933    1.083   .     S
C914   C915    1.398   .     A
C916   C922    1.432   .     A
C916   N950    1.526   .     S
C916   C917    1.434   .     A
C917   C918    1.401   .     A
C917   H936    1.029   .     S
C918   C920    1.371   .     A
C918   H937    1.083   .     S
C919   C926    1.409   .     A
C920   C921    1.371   .     A
C920   H938    1.083   .     S
C921   H939    1.085   .     S
C921   C922    1.405   .     A
C922   H941    1.010   .     S
C923   C927    1.401   .     A
C924   C925    1.390   .     A
C924   C347    1.416   1_556 S
C925   C926    1.379   .     A
C925   H942    1.084   .     S
C926   H948    1.083   .     S
C927   H944    1.077   .     S
C928   C782    1.498   1_655 S
H929   C1093   1.088   .     S
H934   C1106   1.073   .     S
H935   C787    1.081   1_655 S
H940   N949    1.027   .     S
H945   C778    1.079   1_655 S
N949   Zn960   2.057   .     S
N949   N950    1.279   .     D
N950   Zn959   2.057   .     S
O951   Zn959   1.995   .     S
O951   C769    1.301   1_655 S
O952   Zn960   1.990   .     S
O953   Zn959   1.966   .     S
O953   C772    1.317   1_655 S
O954   Zn960   1.907   .     S
O955   Zn959   1.990   .     S
O956   Zn960   1.995   .     S
O957   Zn959   1.907   .     S
O958   Zn960   1.966   .     S
C961   O1016   1.299   .     A
C961   C963    1.411   .     S
C961   O1143   1.301   1_455 S
C962   C964    1.465   .     S
C962   C983    1.413   .     A
C962   C970    1.394   .     A
C963   C709    1.327   1_465 S
C963   H610    1.088   1_565 S
C964   O1018   1.309   .     A
C964   O1145   1.317   1_455 S
C965   C966    1.411   .     S
C966   O1019   1.298   .     A
C966   O1084   1.302   .     S
C967   C969    1.474   .     S
C967   O1021   1.325   .     A
C967   O1086   1.305   .     S
C968   H1007   1.085   .     S
C968   C988    1.393   .     A
C968   C416    1.401   1_556 S
C969   C991    1.400   .     A
C969   C992    1.428   .     A
C970   C395    1.386   1_556 S
C970   H1137   1.079   1_455 S
C971   C973    1.397   .     A
C971   H1011   1.083   .     S
C972   C983    1.415   .     A
C972   C397    1.417   1_556 S
C972   C411    1.426   1_556 S
C973   H1010   1.077   .     S
C974   C975    1.404   .     A
C974   C979    1.411   .     A
C974   C1120   1.498   1_455 S
C975   H995    1.079   .     S
C975   C976    1.395   .     A
C976   H996    1.074   .     S
C976   C977    1.389   .     A
C977   C978    1.390   .     A
C977   H997    1.083   .     S
C978   C979    1.398   .     A
C979   H1127   1.081   1_455 S
C980   C986    1.432   .     A
C980   N1014   1.526   .     S
C980   C981    1.434   .     A
C981   C982    1.401   .     A
C981   H1000   1.029   .     S
C982   C984    1.371   .     A
C982   H1001   1.083   .     S
C983   C990    1.409   .     A
C984   C985    1.371   .     A
C984   H1002   1.083   .     S
C985   H1003   1.085   .     S
C985   C986    1.405   .     A
C986   H1005   1.010   .     S
C987   C991    1.401   .     A
C988   C989    1.390   .     A
C988   C411    1.416   1_556 S
C989   C990    1.379   .     A
C989   H1006   1.084   .     S
C990   H1012   1.083   .     S
C991   H1008   1.077   .     S
C992   C1038   1.498   .     S
H993   C581    1.088   1_565 S
H998   C594    1.073   1_565 S
H999   C1043   1.081   .     S
H1004  N1013   1.027   .     S
H1009  C1034   1.079   .     S
N1013  Zn1024  2.057   .     S
N1013  N1014   1.279   .     D
N1014  Zn1023  2.057   .     S
O1015  Zn1023  1.995   .     S
O1015  C1025   1.301   .     S
O1016  Zn1024  1.990   .     S
O1017  Zn1023  1.966   .     S
O1017  C1028   1.317   .     S
O1018  Zn1024  1.907   .     S
O1019  Zn1023  1.990   .     S
O1020  Zn1024  1.995   .     S
O1020  C1094   1.302   1_455 S
O1021  Zn1023  1.907   .     S
O1022  Zn1024  1.966   .     S
O1022  C1095   1.305   1_455 S
C1025  O1080   1.299   .     A
C1025  C1027   1.411   .     S
C1026  C1028   1.465   .     S
C1026  C1047   1.413   .     A
C1026  C1034   1.394   .     A
C1027  C581    1.327   1_565 S
C1027  H674    1.088   1_565 S
C1028  O1082   1.309   .     A
C1029  C1030   1.411   .     S
C1030  O1083   1.298   .     A
C1030  O1148   1.302   .     S
C1031  C1033   1.474   .     S
C1031  O1085   1.325   .     A
C1031  O1150   1.305   .     S
C1032  H1071   1.085   .     S
C1032  C1052   1.393   .     A
C1032  C480    1.401   1_556 S
C1033  C1055   1.400   .     A
C1033  C1056   1.428   .     A
C1034  C459    1.386   1_556 S
C1035  C1037   1.397   .     A
C1035  H1075   1.083   .     S
C1036  C1047   1.415   .     A
C1036  C461    1.417   1_556 S
C1036  C475    1.426   1_556 S
C1037  H1074   1.077   .     S
C1038  C1039   1.404   .     A
C1038  C1043   1.411   .     A
C1039  H1059   1.079   .     S
C1039  C1040   1.395   .     A
C1040  H1060   1.074   .     S
C1040  C1041   1.389   .     A
C1041  C1042   1.390   .     A
C1041  H1061   1.083   .     S
C1042  C1043   1.398   .     A
C1044  C1050   1.432   .     A
C1044  N1078   1.526   .     S
C1044  C1045   1.434   .     A
C1045  C1046   1.401   .     A
C1045  H1064   1.029   .     S
C1046  C1048   1.371   .     A
C1046  H1065   1.083   .     S
C1047  C1054   1.409   .     A
C1048  C1049   1.371   .     A
C1048  H1066   1.083   .     S
C1049  H1067   1.085   .     S
C1049  C1050   1.405   .     A
C1050  H1069   1.010   .     S
C1051  C1055   1.401   .     A
C1052  C1053   1.390   .     A
C1052  C475    1.416   1_556 S
C1053  C1054   1.379   .     A
C1053  H1070   1.084   .     S
C1054  H1076   1.083   .     S
C1055  H1072   1.077   .     S
C1056  C1102   1.498   .     S
H1057  C645    1.088   1_565 S
H1062  C658    1.073   1_565 S
H1063  C1107   1.081   .     S
H1068  N1077   1.027   .     S
H1073  C1098   1.079   .     S
N1077  Zn1088  2.057   .     S
N1077  N1078   1.279   .     D
N1078  Zn1087  2.057   .     S
O1079  Zn1087  1.995   .     S
O1079  C1089   1.301   .     S
O1080  Zn1088  1.990   .     S
O1081  Zn1087  1.966   .     S
O1081  C1092   1.317   .     S
O1082  Zn1088  1.907   .     S
O1083  Zn1087  1.990   .     S
O1084  Zn1088  1.995   .     S
O1085  Zn1087  1.907   .     S
O1086  Zn1088  1.966   .     S
C1089  O1144   1.299   .     A
C1089  C1091   1.411   .     S
C1090  C1092   1.465   .     S
C1090  C1111   1.413   .     A
C1090  C1098   1.394   .     A
C1091  C645    1.327   1_565 S
C1091  H738    1.088   1_565 S
C1092  O1146   1.309   .     A
C1093  C1094   1.411   .     S
C1093  C771    1.327   1_655 S
C1094  O1147   1.298   .     A
C1094  O1020   1.302   1_655 S
C1095  C1097   1.474   .     S
C1095  O1149   1.325   .     A
C1095  O1022   1.305   1_655 S
C1096  H1135   1.085   .     S
C1096  C1116   1.393   .     A
C1096  C544    1.401   1_556 S
C1097  C1119   1.400   .     A
C1097  C1120   1.428   .     A
C1098  C523    1.386   1_556 S
C1099  C1101   1.397   .     A
C1099  H1139   1.083   .     S
C1100  C1111   1.415   .     A
C1100  C525    1.417   1_556 S
C1100  C539    1.426   1_556 S
C1101  H1138   1.077   .     S
C1102  C1103   1.404   .     A
C1102  C1107   1.411   .     A
C1103  H1123   1.079   .     S
C1103  C1104   1.395   .     A
C1104  H1124   1.074   .     S
C1104  C1105   1.389   .     A
C1105  C1106   1.390   .     A
C1105  H1125   1.083   .     S
C1106  C1107   1.398   .     A
C1108  C1114   1.432   .     A
C1108  N1142   1.526   .     S
C1108  C1109   1.434   .     A
C1109  C1110   1.401   .     A
C1109  H1128   1.029   .     S
C1110  C1112   1.371   .     A
C1110  H1129   1.083   .     S
C1111  C1118   1.409   .     A
C1112  C1113   1.371   .     A
C1112  H1130   1.083   .     S
C1113  H1131   1.085   .     S
C1113  C1114   1.405   .     A
C1114  H1133   1.010   .     S
C1115  C1119   1.401   .     A
C1116  C1117   1.390   .     A
C1116  C539    1.416   1_556 S
C1117  C1118   1.379   .     A
C1117  H1134   1.084   .     S
C1118  H1140   1.083   .     S
C1119  H1136   1.077   .     S
C1120  C974    1.498   1_655 S
H1121  C709    1.088   1_565 S
H1126  C722    1.073   1_565 S
H1127  C979    1.081   1_655 S
H1132  N1141   1.027   .     S
H1137  C970    1.079   1_655 S
N1141  Zn1152  2.057   .     S
N1141  N1142   1.279   .     D
N1142  Zn1151  2.057   .     S
O1143  Zn1151  1.995   .     S
O1143  C961    1.301   1_655 S
O1144  Zn1152  1.990   .     S
O1145  Zn1151  1.966   .     S
O1145  C964    1.317   1_655 S
O1146  Zn1152  1.907   .     S
O1147  Zn1151  1.990   .     S
O1148  Zn1152  1.995   .     S
O1149  Zn1151  1.907   .     S
O1150  Zn1152  1.966   .     S
