data_str_m3_o10_o18_pcu_sym.106
_audit_creation_date              2020-01-03
_audit_creation_method            'Materials Studio'
_symmetry_space_group_name_H-M    'P1'
_symmetry_Int_Tables_number       1
_symmetry_cell_setting            triclinic
loop_
_symmetry_equiv_pos_as_xyz
  x,y,z
_cell_length_a                    23.4769
_cell_length_b                    25.5723
_cell_length_c                    27.4355
_cell_angle_alpha                 92.8893
_cell_angle_beta                  92.1093
_cell_angle_gamma                 94.4547
loop_
_atom_site_label
_atom_site_type_symbol
_atom_site_fract_x
_atom_site_fract_y
_atom_site_fract_z
_atom_site_U_iso_or_equiv
_atom_site_adp_type
_atom_site_occupancy
C1     C     0.01508   0.26492   0.24842   0.00000  Uiso   1.00
C2     C     0.31294   0.16401   0.15890   0.00000  Uiso   1.00
C3     C     0.03027   0.17626   0.39369   0.00000  Uiso   1.00
C4     C     0.30306   0.15707   0.10631   0.00000  Uiso   1.00
C5     C     0.03851   0.24442   0.45760   0.00000  Uiso   1.00
C6     C     0.29486   0.08891   0.04239   0.00000  Uiso   1.00
C7     C     0.00893   0.22001   0.41709   0.00000  Uiso   1.00
C8     C     0.32442   0.11333   0.08291   0.00000  Uiso   1.00
C9     C     0.07277   0.14897   0.41667   0.00000  Uiso   1.00
C10    C     0.26057   0.18435   0.08333   0.00000  Uiso   1.00
C11    C     0.10112   0.17221   0.46010   0.00000  Uiso   1.00
C12    C     0.31825   0.06841   0.25158   0.00000  Uiso   1.00
C13    C     0.23225   0.16112   0.03988   0.00000  Uiso   1.00
C14    C     0.08773   0.22356   0.47576   0.00000  Uiso   1.00
C15    C     0.24564   0.10977   0.02422   0.00000  Uiso   1.00
C16    C     0.14698   0.15000   0.48492   0.00000  Uiso   1.00
C17    C     0.18639   0.18333   0.01505   0.00000  Uiso   1.00
C18    C     0.24045   0.23104   0.11044   0.00000  Uiso   1.00
C19    C     0.27656   0.27751   0.11726   0.00000  Uiso   1.00
C20    C     0.25720   0.32190   0.14121   0.00000  Uiso   1.00
C21    C     0.20240   0.31985   0.15967   0.00000  Uiso   1.00
C22    C     0.16675   0.27337   0.15413   0.00000  Uiso   1.00
C23    C     0.17873   0.23748   0.01887   0.00000  Uiso   1.00
C24    C     0.18561   0.22902   0.12969   0.00000  Uiso   1.00
C25    C     0.09286   0.10226   0.38956   0.00000  Uiso   1.00
C26    C     0.14768   0.10425   0.37028   0.00000  Uiso   1.00
C27    C     0.16649   0.05988   0.34584   0.00000  Uiso   1.00
C28    C     0.13082   0.01343   0.34033   0.00000  Uiso   1.00
C29    C     0.07604   0.01140   0.35882   0.00000  Uiso   1.00
C30    C     0.05671   0.05582   0.38276   0.00000  Uiso   1.00
C31    C     0.15465   0.09585   0.48110   0.00000  Uiso   1.00
C32    C     0.12732   0.25603   0.00441   0.00000  Uiso   1.00
C33    C     0.20606   0.07731   0.49556   0.00000  Uiso   1.00
C34    C     0.02273   0.31949   0.24664   0.00000  Uiso   1.00
C35    C     0.31060   0.01385   0.25335   0.00000  Uiso   1.00
C36    C     0.02039   0.16932   0.34110   0.00000  Uiso   1.00
H37    H     0.02482   0.09328   0.10020   0.00000  Uiso   1.00
H38    H     0.17073   0.20870   0.28614   0.00000  Uiso   1.00
H39    H     0.12073   0.29711   0.01197   0.00000  Uiso   1.00
H40    H     0.21266   0.03623   0.48800   0.00000  Uiso   1.00
H41    H     0.31909   0.27958   0.10308   0.00000  Uiso   1.00
H42    H     0.28477   0.02455   0.14564   0.00000  Uiso   1.00
H43    H     0.18767   0.02088   0.17843   0.00000  Uiso   1.00
H44    H     0.12439   0.27180   0.16852   0.00000  Uiso   1.00
H45    H     0.15752   0.19329   0.12535   0.00000  Uiso   1.00
H46    H     0.17578   0.13997   0.37460   0.00000  Uiso   1.00
H47    H     0.20885   0.06143   0.33143   0.00000  Uiso   1.00
H48    H     0.30852   0.24005   0.39981   0.00000  Uiso   1.00
H49    H     0.14552   0.31237   0.32157   0.00000  Uiso   1.00
H50    H     0.04844   0.30877   0.35440   0.00000  Uiso   1.00
H51    H     0.01420   0.05377   0.39696   0.00000  Uiso   1.00
H52    H     0.02654   0.28238   0.47130   0.00000  Uiso   1.00
H53    H     0.30684   0.05096   0.02869   0.00000  Uiso   1.00
H54    H     0.21182   0.26621   0.03334   0.00000  Uiso   1.00
H55    H     0.12156   0.06712   0.46663   0.00000  Uiso   1.00
H56    H     0.06539   0.00331   0.23988   0.00000  Uiso   1.00
H57    H     0.26794   0.33002   0.26011   0.00000  Uiso   1.00
H58    H     0.16261   0.12463   0.21386   0.00000  Uiso   1.00
N59    N     0.14695   0.15216   0.23740   0.00000  Uiso   1.00
N60    N     0.18638   0.18117   0.26261   0.00000  Uiso   1.00
O61    O     0.29719   0.24631   0.25310   0.00000  Uiso   1.00
O62    O     0.03614   0.08702   0.24691   0.00000  Uiso   1.00
O63    O     0.05822   0.23702   0.24502   0.00000  Uiso   1.00
O64    O     0.27512   0.09632   0.25499   0.00000  Uiso   1.00
O65    O     0.30328   0.17397   0.32247   0.00000  Uiso   1.00
O66    O     0.03005   0.15937   0.17753   0.00000  Uiso   1.00
O67    O     0.06431   0.16467   0.31439   0.00000  Uiso   1.00
O68    O     0.26902   0.16866   0.18561   0.00000  Uiso   1.00
Zn69   Zn    0.27033   0.17287   0.25540   0.00000  Uiso   1.00
Zn70   Zn    0.06300   0.16046   0.24461   0.00000  Uiso   1.00
C71    C     0.34842   0.26492   0.24842   0.00000  Uiso   1.00
C72    C     0.64628   0.16401   0.15890   0.00000  Uiso   1.00
C73    C     0.36361   0.17626   0.39369   0.00000  Uiso   1.00
C74    C     0.63640   0.15707   0.10631   0.00000  Uiso   1.00
C75    C     0.37184   0.24442   0.45760   0.00000  Uiso   1.00
C76    C     0.62819   0.08891   0.04239   0.00000  Uiso   1.00
C77    C     0.34226   0.22001   0.41709   0.00000  Uiso   1.00
C78    C     0.65776   0.11333   0.08291   0.00000  Uiso   1.00
C79    C     0.40610   0.14897   0.41667   0.00000  Uiso   1.00
C80    C     0.59390   0.18435   0.08333   0.00000  Uiso   1.00
C81    C     0.43445   0.17221   0.46010   0.00000  Uiso   1.00
C82    C     0.65158   0.06841   0.25158   0.00000  Uiso   1.00
C83    C     0.56558   0.16112   0.03988   0.00000  Uiso   1.00
C84    C     0.42107   0.22356   0.47576   0.00000  Uiso   1.00
C85    C     0.57897   0.10977   0.02422   0.00000  Uiso   1.00
C86    C     0.48032   0.15000   0.48492   0.00000  Uiso   1.00
C87    C     0.51972   0.18333   0.01505   0.00000  Uiso   1.00
C88    C     0.57378   0.23104   0.11044   0.00000  Uiso   1.00
C89    C     0.60989   0.27751   0.11726   0.00000  Uiso   1.00
C90    C     0.59053   0.32190   0.14121   0.00000  Uiso   1.00
C91    C     0.53573   0.31985   0.15967   0.00000  Uiso   1.00
C92    C     0.50009   0.27337   0.15413   0.00000  Uiso   1.00
C93    C     0.51206   0.23748   0.01887   0.00000  Uiso   1.00
C94    C     0.51894   0.22902   0.12969   0.00000  Uiso   1.00
C95    C     0.42619   0.10226   0.38956   0.00000  Uiso   1.00
C96    C     0.48101   0.10425   0.37028   0.00000  Uiso   1.00
C97    C     0.49983   0.05988   0.34584   0.00000  Uiso   1.00
C98    C     0.46416   0.01343   0.34033   0.00000  Uiso   1.00
C99    C     0.40937   0.01140   0.35882   0.00000  Uiso   1.00
C100   C     0.39005   0.05582   0.38276   0.00000  Uiso   1.00
C101   C     0.48798   0.09585   0.48110   0.00000  Uiso   1.00
C102   C     0.46065   0.25603   0.00441   0.00000  Uiso   1.00
C103   C     0.53939   0.07731   0.49556   0.00000  Uiso   1.00
C104   C     0.35606   0.31949   0.24664   0.00000  Uiso   1.00
C105   C     0.64393   0.01385   0.25335   0.00000  Uiso   1.00
C106   C     0.35372   0.16932   0.34110   0.00000  Uiso   1.00
H107   H     0.35816   0.09328   0.10020   0.00000  Uiso   1.00
H108   H     0.50406   0.20870   0.28614   0.00000  Uiso   1.00
H109   H     0.45406   0.29711   0.01197   0.00000  Uiso   1.00
H110   H     0.54599   0.03623   0.48800   0.00000  Uiso   1.00
H111   H     0.65242   0.27958   0.10308   0.00000  Uiso   1.00
H112   H     0.61810   0.02455   0.14564   0.00000  Uiso   1.00
H113   H     0.52100   0.02088   0.17843   0.00000  Uiso   1.00
H114   H     0.45772   0.27180   0.16852   0.00000  Uiso   1.00
H115   H     0.49086   0.19329   0.12535   0.00000  Uiso   1.00
H116   H     0.50912   0.13997   0.37460   0.00000  Uiso   1.00
H117   H     0.54218   0.06143   0.33143   0.00000  Uiso   1.00
H118   H     0.64186   0.24005   0.39981   0.00000  Uiso   1.00
H119   H     0.47885   0.31237   0.32157   0.00000  Uiso   1.00
H120   H     0.38177   0.30877   0.35440   0.00000  Uiso   1.00
H121   H     0.34753   0.05377   0.39696   0.00000  Uiso   1.00
H122   H     0.35987   0.28238   0.47130   0.00000  Uiso   1.00
H123   H     0.64017   0.05096   0.02869   0.00000  Uiso   1.00
H124   H     0.54516   0.26621   0.03334   0.00000  Uiso   1.00
H125   H     0.45489   0.06712   0.46663   0.00000  Uiso   1.00
H126   H     0.39872   0.00331   0.23988   0.00000  Uiso   1.00
H127   H     0.60127   0.33002   0.26011   0.00000  Uiso   1.00
H128   H     0.49594   0.12463   0.21386   0.00000  Uiso   1.00
N129   N     0.48029   0.15216   0.23740   0.00000  Uiso   1.00
N130   N     0.51971   0.18117   0.26261   0.00000  Uiso   1.00
O131   O     0.63052   0.24631   0.25310   0.00000  Uiso   1.00
O132   O     0.36948   0.08702   0.24691   0.00000  Uiso   1.00
O133   O     0.39155   0.23702   0.24502   0.00000  Uiso   1.00
O134   O     0.60845   0.09632   0.25499   0.00000  Uiso   1.00
O135   O     0.63662   0.17397   0.32247   0.00000  Uiso   1.00
O136   O     0.36338   0.15937   0.17753   0.00000  Uiso   1.00
O137   O     0.39764   0.16467   0.31439   0.00000  Uiso   1.00
O138   O     0.60236   0.16866   0.18561   0.00000  Uiso   1.00
Zn139  Zn    0.60366   0.17287   0.25540   0.00000  Uiso   1.00
Zn140  Zn    0.39634   0.16046   0.24461   0.00000  Uiso   1.00
C141   C     0.68175   0.26492   0.24842   0.00000  Uiso   1.00
C142   C     0.97961   0.16401   0.15890   0.00000  Uiso   1.00
C143   C     0.69694   0.17626   0.39369   0.00000  Uiso   1.00
C144   C     0.96973   0.15707   0.10631   0.00000  Uiso   1.00
C145   C     0.70517   0.24442   0.45760   0.00000  Uiso   1.00
C146   C     0.96153   0.08891   0.04239   0.00000  Uiso   1.00
C147   C     0.67559   0.22001   0.41709   0.00000  Uiso   1.00
C148   C     0.99109   0.11333   0.08291   0.00000  Uiso   1.00
C149   C     0.73944   0.14897   0.41667   0.00000  Uiso   1.00
C150   C     0.92724   0.18435   0.08333   0.00000  Uiso   1.00
C151   C     0.76778   0.17221   0.46010   0.00000  Uiso   1.00
C152   C     0.98492   0.06841   0.25158   0.00000  Uiso   1.00
C153   C     0.89891   0.16112   0.03988   0.00000  Uiso   1.00
C154   C     0.75440   0.22356   0.47576   0.00000  Uiso   1.00
C155   C     0.91230   0.10977   0.02422   0.00000  Uiso   1.00
C156   C     0.81365   0.15000   0.48492   0.00000  Uiso   1.00
C157   C     0.85306   0.18333   0.01505   0.00000  Uiso   1.00
C158   C     0.90711   0.23104   0.11044   0.00000  Uiso   1.00
C159   C     0.94323   0.27751   0.11726   0.00000  Uiso   1.00
C160   C     0.92386   0.32190   0.14121   0.00000  Uiso   1.00
C161   C     0.86906   0.31985   0.15967   0.00000  Uiso   1.00
C162   C     0.83342   0.27337   0.15413   0.00000  Uiso   1.00
C163   C     0.84540   0.23748   0.01887   0.00000  Uiso   1.00
C164   C     0.85228   0.22902   0.12969   0.00000  Uiso   1.00
C165   C     0.75952   0.10226   0.38956   0.00000  Uiso   1.00
C166   C     0.81434   0.10425   0.37028   0.00000  Uiso   1.00
C167   C     0.83316   0.05988   0.34584   0.00000  Uiso   1.00
C168   C     0.79749   0.01343   0.34033   0.00000  Uiso   1.00
C169   C     0.74270   0.01140   0.35882   0.00000  Uiso   1.00
C170   C     0.72338   0.05582   0.38276   0.00000  Uiso   1.00
C171   C     0.82132   0.09585   0.48110   0.00000  Uiso   1.00
C172   C     0.79399   0.25603   0.00441   0.00000  Uiso   1.00
C173   C     0.87273   0.07731   0.49556   0.00000  Uiso   1.00
C174   C     0.68940   0.31949   0.24664   0.00000  Uiso   1.00
C175   C     0.97727   0.01385   0.25335   0.00000  Uiso   1.00
C176   C     0.68706   0.16932   0.34110   0.00000  Uiso   1.00
H177   H     0.69149   0.09328   0.10020   0.00000  Uiso   1.00
H178   H     0.83739   0.20870   0.28614   0.00000  Uiso   1.00
H179   H     0.78739   0.29711   0.01197   0.00000  Uiso   1.00
H180   H     0.87933   0.03623   0.48800   0.00000  Uiso   1.00
H181   H     0.98576   0.27958   0.10308   0.00000  Uiso   1.00
H182   H     0.95143   0.02455   0.14564   0.00000  Uiso   1.00
H183   H     0.85433   0.02088   0.17843   0.00000  Uiso   1.00
H184   H     0.79106   0.27180   0.16852   0.00000  Uiso   1.00
H185   H     0.82419   0.19329   0.12535   0.00000  Uiso   1.00
H186   H     0.84245   0.13997   0.37460   0.00000  Uiso   1.00
H187   H     0.87551   0.06143   0.33143   0.00000  Uiso   1.00
H188   H     0.97519   0.24005   0.39981   0.00000  Uiso   1.00
H189   H     0.81219   0.31237   0.32157   0.00000  Uiso   1.00
H190   H     0.71511   0.30877   0.35440   0.00000  Uiso   1.00
H191   H     0.68086   0.05377   0.39696   0.00000  Uiso   1.00
H192   H     0.69320   0.28238   0.47130   0.00000  Uiso   1.00
H193   H     0.97351   0.05096   0.02869   0.00000  Uiso   1.00
H194   H     0.87849   0.26621   0.03334   0.00000  Uiso   1.00
H195   H     0.78823   0.06712   0.46663   0.00000  Uiso   1.00
H196   H     0.73206   0.00331   0.23988   0.00000  Uiso   1.00
H197   H     0.93461   0.33002   0.26011   0.00000  Uiso   1.00
H198   H     0.82927   0.12463   0.21386   0.00000  Uiso   1.00
N199   N     0.81362   0.15216   0.23740   0.00000  Uiso   1.00
N200   N     0.85305   0.18117   0.26261   0.00000  Uiso   1.00
O201   O     0.96386   0.24631   0.25310   0.00000  Uiso   1.00
O202   O     0.70281   0.08702   0.24691   0.00000  Uiso   1.00
O203   O     0.72488   0.23702   0.24502   0.00000  Uiso   1.00
O204   O     0.94178   0.09632   0.25499   0.00000  Uiso   1.00
O205   O     0.96995   0.17397   0.32247   0.00000  Uiso   1.00
O206   O     0.69672   0.15937   0.17753   0.00000  Uiso   1.00
O207   O     0.73098   0.16467   0.31439   0.00000  Uiso   1.00
O208   O     0.93569   0.16866   0.18561   0.00000  Uiso   1.00
Zn209  Zn    0.93700   0.17287   0.25540   0.00000  Uiso   1.00
Zn210  Zn    0.72967   0.16046   0.24461   0.00000  Uiso   1.00
C211   C     0.01508   0.59826   0.24842   0.00000  Uiso   1.00
C212   C     0.31294   0.49735   0.15890   0.00000  Uiso   1.00
C213   C     0.03027   0.50959   0.39369   0.00000  Uiso   1.00
C214   C     0.30306   0.49041   0.10631   0.00000  Uiso   1.00
C215   C     0.03851   0.57776   0.45760   0.00000  Uiso   1.00
C216   C     0.29486   0.42225   0.04239   0.00000  Uiso   1.00
C217   C     0.00893   0.55334   0.41709   0.00000  Uiso   1.00
C218   C     0.32442   0.44666   0.08291   0.00000  Uiso   1.00
C219   C     0.07277   0.48231   0.41667   0.00000  Uiso   1.00
C220   C     0.26057   0.51769   0.08333   0.00000  Uiso   1.00
C221   C     0.10112   0.50555   0.46010   0.00000  Uiso   1.00
C222   C     0.31825   0.40174   0.25158   0.00000  Uiso   1.00
C223   C     0.23225   0.49445   0.03988   0.00000  Uiso   1.00
C224   C     0.08773   0.55690   0.47576   0.00000  Uiso   1.00
C225   C     0.24564   0.44310   0.02422   0.00000  Uiso   1.00
C226   C     0.14698   0.48334   0.48492   0.00000  Uiso   1.00
C227   C     0.18639   0.51666   0.01505   0.00000  Uiso   1.00
C228   C     0.24045   0.56438   0.11044   0.00000  Uiso   1.00
C229   C     0.27656   0.61084   0.11726   0.00000  Uiso   1.00
C230   C     0.25720   0.65524   0.14121   0.00000  Uiso   1.00
C231   C     0.20240   0.65318   0.15967   0.00000  Uiso   1.00
C232   C     0.16675   0.60670   0.15413   0.00000  Uiso   1.00
C233   C     0.17873   0.57082   0.01887   0.00000  Uiso   1.00
C234   C     0.18561   0.56236   0.12969   0.00000  Uiso   1.00
C235   C     0.09286   0.43560   0.38956   0.00000  Uiso   1.00
C236   C     0.14768   0.43758   0.37028   0.00000  Uiso   1.00
C237   C     0.16649   0.39322   0.34584   0.00000  Uiso   1.00
C238   C     0.13082   0.34676   0.34033   0.00000  Uiso   1.00
C239   C     0.07604   0.34474   0.35882   0.00000  Uiso   1.00
C240   C     0.05671   0.38915   0.38276   0.00000  Uiso   1.00
C241   C     0.15465   0.42918   0.48110   0.00000  Uiso   1.00
C242   C     0.12732   0.58936   0.00441   0.00000  Uiso   1.00
C243   C     0.20606   0.41064   0.49556   0.00000  Uiso   1.00
C244   C     0.02273   0.65282   0.24664   0.00000  Uiso   1.00
C245   C     0.31060   0.34718   0.25335   0.00000  Uiso   1.00
C246   C     0.02039   0.50265   0.34110   0.00000  Uiso   1.00
H247   H     0.02482   0.42662   0.10020   0.00000  Uiso   1.00
H248   H     0.17073   0.54203   0.28614   0.00000  Uiso   1.00
H249   H     0.12073   0.63044   0.01197   0.00000  Uiso   1.00
H250   H     0.21266   0.36956   0.48800   0.00000  Uiso   1.00
H251   H     0.31909   0.61292   0.10308   0.00000  Uiso   1.00
H252   H     0.28477   0.35788   0.14564   0.00000  Uiso   1.00
H253   H     0.18767   0.35422   0.17843   0.00000  Uiso   1.00
H254   H     0.12439   0.60514   0.16852   0.00000  Uiso   1.00
H255   H     0.15752   0.52663   0.12535   0.00000  Uiso   1.00
H256   H     0.17578   0.47330   0.37460   0.00000  Uiso   1.00
H257   H     0.20885   0.39476   0.33143   0.00000  Uiso   1.00
H258   H     0.30852   0.57339   0.39981   0.00000  Uiso   1.00
H259   H     0.14552   0.64571   0.32157   0.00000  Uiso   1.00
H260   H     0.04844   0.64211   0.35440   0.00000  Uiso   1.00
H261   H     0.01420   0.38710   0.39696   0.00000  Uiso   1.00
H262   H     0.02654   0.61572   0.47130   0.00000  Uiso   1.00
H263   H     0.30684   0.38429   0.02869   0.00000  Uiso   1.00
H264   H     0.21182   0.59954   0.03334   0.00000  Uiso   1.00
H265   H     0.12156   0.40045   0.46663   0.00000  Uiso   1.00
H266   H     0.06539   0.33665   0.23988   0.00000  Uiso   1.00
H267   H     0.26794   0.66335   0.26011   0.00000  Uiso   1.00
H268   H     0.16261   0.45797   0.21386   0.00000  Uiso   1.00
N269   N     0.14695   0.48550   0.23740   0.00000  Uiso   1.00
N270   N     0.18638   0.51450   0.26261   0.00000  Uiso   1.00
O271   O     0.29719   0.57964   0.25310   0.00000  Uiso   1.00
O272   O     0.03614   0.42036   0.24691   0.00000  Uiso   1.00
O273   O     0.05822   0.57035   0.24502   0.00000  Uiso   1.00
O274   O     0.27512   0.42965   0.25499   0.00000  Uiso   1.00
O275   O     0.30328   0.50730   0.32247   0.00000  Uiso   1.00
O276   O     0.03005   0.49270   0.17753   0.00000  Uiso   1.00
O277   O     0.06431   0.49801   0.31439   0.00000  Uiso   1.00
O278   O     0.26902   0.50199   0.18561   0.00000  Uiso   1.00
Zn279  Zn    0.27033   0.50621   0.25540   0.00000  Uiso   1.00
Zn280  Zn    0.06300   0.49379   0.24461   0.00000  Uiso   1.00
C281   C     0.34842   0.59826   0.24842   0.00000  Uiso   1.00
C282   C     0.64628   0.49735   0.15890   0.00000  Uiso   1.00
C283   C     0.36361   0.50959   0.39369   0.00000  Uiso   1.00
C284   C     0.63640   0.49041   0.10631   0.00000  Uiso   1.00
C285   C     0.37184   0.57776   0.45760   0.00000  Uiso   1.00
C286   C     0.62819   0.42225   0.04239   0.00000  Uiso   1.00
C287   C     0.34226   0.55334   0.41709   0.00000  Uiso   1.00
C288   C     0.65776   0.44666   0.08291   0.00000  Uiso   1.00
C289   C     0.40610   0.48231   0.41667   0.00000  Uiso   1.00
C290   C     0.59390   0.51769   0.08333   0.00000  Uiso   1.00
C291   C     0.43445   0.50555   0.46010   0.00000  Uiso   1.00
C292   C     0.65158   0.40174   0.25158   0.00000  Uiso   1.00
C293   C     0.56558   0.49445   0.03988   0.00000  Uiso   1.00
C294   C     0.42107   0.55690   0.47576   0.00000  Uiso   1.00
C295   C     0.57897   0.44310   0.02422   0.00000  Uiso   1.00
C296   C     0.48032   0.48334   0.48492   0.00000  Uiso   1.00
C297   C     0.51972   0.51666   0.01505   0.00000  Uiso   1.00
C298   C     0.57378   0.56438   0.11044   0.00000  Uiso   1.00
C299   C     0.60989   0.61084   0.11726   0.00000  Uiso   1.00
C300   C     0.59053   0.65524   0.14121   0.00000  Uiso   1.00
C301   C     0.53573   0.65318   0.15967   0.00000  Uiso   1.00
C302   C     0.50009   0.60670   0.15413   0.00000  Uiso   1.00
C303   C     0.51206   0.57082   0.01887   0.00000  Uiso   1.00
C304   C     0.51894   0.56236   0.12969   0.00000  Uiso   1.00
C305   C     0.42619   0.43560   0.38956   0.00000  Uiso   1.00
C306   C     0.48101   0.43758   0.37028   0.00000  Uiso   1.00
C307   C     0.49983   0.39322   0.34584   0.00000  Uiso   1.00
C308   C     0.46416   0.34676   0.34033   0.00000  Uiso   1.00
C309   C     0.40937   0.34474   0.35882   0.00000  Uiso   1.00
C310   C     0.39005   0.38915   0.38276   0.00000  Uiso   1.00
C311   C     0.48798   0.42918   0.48110   0.00000  Uiso   1.00
C312   C     0.46065   0.58936   0.00441   0.00000  Uiso   1.00
C313   C     0.53939   0.41064   0.49556   0.00000  Uiso   1.00
C314   C     0.35606   0.65282   0.24664   0.00000  Uiso   1.00
C315   C     0.64393   0.34718   0.25335   0.00000  Uiso   1.00
C316   C     0.35372   0.50265   0.34110   0.00000  Uiso   1.00
H317   H     0.35816   0.42662   0.10020   0.00000  Uiso   1.00
H318   H     0.50406   0.54203   0.28614   0.00000  Uiso   1.00
H319   H     0.45406   0.63044   0.01197   0.00000  Uiso   1.00
H320   H     0.54599   0.36956   0.48800   0.00000  Uiso   1.00
H321   H     0.65242   0.61292   0.10308   0.00000  Uiso   1.00
H322   H     0.61810   0.35788   0.14564   0.00000  Uiso   1.00
H323   H     0.52100   0.35422   0.17843   0.00000  Uiso   1.00
H324   H     0.45772   0.60514   0.16852   0.00000  Uiso   1.00
H325   H     0.49086   0.52663   0.12535   0.00000  Uiso   1.00
H326   H     0.50912   0.47330   0.37460   0.00000  Uiso   1.00
H327   H     0.54218   0.39476   0.33143   0.00000  Uiso   1.00
H328   H     0.64186   0.57339   0.39981   0.00000  Uiso   1.00
H329   H     0.47885   0.64571   0.32157   0.00000  Uiso   1.00
H330   H     0.38177   0.64211   0.35440   0.00000  Uiso   1.00
H331   H     0.34753   0.38710   0.39696   0.00000  Uiso   1.00
H332   H     0.35987   0.61572   0.47130   0.00000  Uiso   1.00
H333   H     0.64017   0.38429   0.02869   0.00000  Uiso   1.00
H334   H     0.54516   0.59954   0.03334   0.00000  Uiso   1.00
H335   H     0.45489   0.40045   0.46663   0.00000  Uiso   1.00
H336   H     0.39872   0.33665   0.23988   0.00000  Uiso   1.00
H337   H     0.60127   0.66335   0.26011   0.00000  Uiso   1.00
H338   H     0.49594   0.45797   0.21386   0.00000  Uiso   1.00
N339   N     0.48029   0.48550   0.23740   0.00000  Uiso   1.00
N340   N     0.51971   0.51450   0.26261   0.00000  Uiso   1.00
O341   O     0.63052   0.57964   0.25310   0.00000  Uiso   1.00
O342   O     0.36948   0.42036   0.24691   0.00000  Uiso   1.00
O343   O     0.39155   0.57035   0.24502   0.00000  Uiso   1.00
O344   O     0.60845   0.42965   0.25499   0.00000  Uiso   1.00
O345   O     0.63662   0.50730   0.32247   0.00000  Uiso   1.00
O346   O     0.36338   0.49270   0.17753   0.00000  Uiso   1.00
O347   O     0.39764   0.49801   0.31439   0.00000  Uiso   1.00
O348   O     0.60236   0.50199   0.18561   0.00000  Uiso   1.00
Zn349  Zn    0.60366   0.50621   0.25540   0.00000  Uiso   1.00
Zn350  Zn    0.39634   0.49379   0.24461   0.00000  Uiso   1.00
C351   C     0.68175   0.59826   0.24842   0.00000  Uiso   1.00
C352   C     0.97961   0.49735   0.15890   0.00000  Uiso   1.00
C353   C     0.69694   0.50959   0.39369   0.00000  Uiso   1.00
C354   C     0.96973   0.49041   0.10631   0.00000  Uiso   1.00
C355   C     0.70517   0.57776   0.45760   0.00000  Uiso   1.00
C356   C     0.96153   0.42225   0.04239   0.00000  Uiso   1.00
C357   C     0.67559   0.55334   0.41709   0.00000  Uiso   1.00
C358   C     0.99109   0.44666   0.08291   0.00000  Uiso   1.00
C359   C     0.73944   0.48231   0.41667   0.00000  Uiso   1.00
C360   C     0.92724   0.51769   0.08333   0.00000  Uiso   1.00
C361   C     0.76778   0.50555   0.46010   0.00000  Uiso   1.00
C362   C     0.98492   0.40174   0.25158   0.00000  Uiso   1.00
C363   C     0.89891   0.49445   0.03988   0.00000  Uiso   1.00
C364   C     0.75440   0.55690   0.47576   0.00000  Uiso   1.00
C365   C     0.91230   0.44310   0.02422   0.00000  Uiso   1.00
C366   C     0.81365   0.48334   0.48492   0.00000  Uiso   1.00
C367   C     0.85306   0.51666   0.01505   0.00000  Uiso   1.00
C368   C     0.90711   0.56438   0.11044   0.00000  Uiso   1.00
C369   C     0.94323   0.61084   0.11726   0.00000  Uiso   1.00
C370   C     0.92386   0.65524   0.14121   0.00000  Uiso   1.00
C371   C     0.86906   0.65318   0.15967   0.00000  Uiso   1.00
C372   C     0.83342   0.60670   0.15413   0.00000  Uiso   1.00
C373   C     0.84540   0.57082   0.01887   0.00000  Uiso   1.00
C374   C     0.85228   0.56236   0.12969   0.00000  Uiso   1.00
C375   C     0.75952   0.43560   0.38956   0.00000  Uiso   1.00
C376   C     0.81434   0.43758   0.37028   0.00000  Uiso   1.00
C377   C     0.83316   0.39322   0.34584   0.00000  Uiso   1.00
C378   C     0.79749   0.34676   0.34033   0.00000  Uiso   1.00
C379   C     0.74270   0.34474   0.35882   0.00000  Uiso   1.00
C380   C     0.72338   0.38915   0.38276   0.00000  Uiso   1.00
C381   C     0.82132   0.42918   0.48110   0.00000  Uiso   1.00
C382   C     0.79399   0.58936   0.00441   0.00000  Uiso   1.00
C383   C     0.87273   0.41064   0.49556   0.00000  Uiso   1.00
C384   C     0.68940   0.65282   0.24664   0.00000  Uiso   1.00
C385   C     0.97727   0.34718   0.25335   0.00000  Uiso   1.00
C386   C     0.68706   0.50265   0.34110   0.00000  Uiso   1.00
H387   H     0.69149   0.42662   0.10020   0.00000  Uiso   1.00
H388   H     0.83739   0.54203   0.28614   0.00000  Uiso   1.00
H389   H     0.78739   0.63044   0.01197   0.00000  Uiso   1.00
H390   H     0.87933   0.36956   0.48800   0.00000  Uiso   1.00
H391   H     0.98576   0.61292   0.10308   0.00000  Uiso   1.00
H392   H     0.95143   0.35788   0.14564   0.00000  Uiso   1.00
H393   H     0.85433   0.35422   0.17843   0.00000  Uiso   1.00
H394   H     0.79106   0.60514   0.16852   0.00000  Uiso   1.00
H395   H     0.82419   0.52663   0.12535   0.00000  Uiso   1.00
H396   H     0.84245   0.47330   0.37460   0.00000  Uiso   1.00
H397   H     0.87551   0.39476   0.33143   0.00000  Uiso   1.00
H398   H     0.97519   0.57339   0.39981   0.00000  Uiso   1.00
H399   H     0.81219   0.64571   0.32157   0.00000  Uiso   1.00
H400   H     0.71511   0.64211   0.35440   0.00000  Uiso   1.00
H401   H     0.68086   0.38710   0.39696   0.00000  Uiso   1.00
H402   H     0.69320   0.61572   0.47130   0.00000  Uiso   1.00
H403   H     0.97351   0.38429   0.02869   0.00000  Uiso   1.00
H404   H     0.87849   0.59954   0.03334   0.00000  Uiso   1.00
H405   H     0.78823   0.40045   0.46663   0.00000  Uiso   1.00
H406   H     0.73206   0.33665   0.23988   0.00000  Uiso   1.00
H407   H     0.93461   0.66335   0.26011   0.00000  Uiso   1.00
H408   H     0.82927   0.45797   0.21386   0.00000  Uiso   1.00
N409   N     0.81362   0.48550   0.23740   0.00000  Uiso   1.00
N410   N     0.85305   0.51450   0.26261   0.00000  Uiso   1.00
O411   O     0.96386   0.57964   0.25310   0.00000  Uiso   1.00
O412   O     0.70281   0.42036   0.24691   0.00000  Uiso   1.00
O413   O     0.72488   0.57035   0.24502   0.00000  Uiso   1.00
O414   O     0.94178   0.42965   0.25499   0.00000  Uiso   1.00
O415   O     0.96995   0.50730   0.32247   0.00000  Uiso   1.00
O416   O     0.69672   0.49270   0.17753   0.00000  Uiso   1.00
O417   O     0.73098   0.49801   0.31439   0.00000  Uiso   1.00
O418   O     0.93569   0.50199   0.18561   0.00000  Uiso   1.00
Zn419  Zn    0.93700   0.50621   0.25540   0.00000  Uiso   1.00
Zn420  Zn    0.72967   0.49379   0.24461   0.00000  Uiso   1.00
C421   C     0.01508   0.93159   0.24842   0.00000  Uiso   1.00
C422   C     0.31294   0.83068   0.15890   0.00000  Uiso   1.00
C423   C     0.03027   0.84292   0.39369   0.00000  Uiso   1.00
C424   C     0.30306   0.82374   0.10631   0.00000  Uiso   1.00
C425   C     0.03851   0.91109   0.45760   0.00000  Uiso   1.00
C426   C     0.29486   0.75558   0.04239   0.00000  Uiso   1.00
C427   C     0.00893   0.88667   0.41709   0.00000  Uiso   1.00
C428   C     0.32442   0.78000   0.08291   0.00000  Uiso   1.00
C429   C     0.07277   0.81564   0.41667   0.00000  Uiso   1.00
C430   C     0.26057   0.85102   0.08333   0.00000  Uiso   1.00
C431   C     0.10112   0.83888   0.46010   0.00000  Uiso   1.00
C432   C     0.31825   0.73508   0.25158   0.00000  Uiso   1.00
C433   C     0.23225   0.82779   0.03988   0.00000  Uiso   1.00
C434   C     0.08773   0.89023   0.47576   0.00000  Uiso   1.00
C435   C     0.24564   0.77644   0.02422   0.00000  Uiso   1.00
C436   C     0.14698   0.81667   0.48492   0.00000  Uiso   1.00
C437   C     0.18639   0.85000   0.01505   0.00000  Uiso   1.00
C438   C     0.24045   0.89771   0.11044   0.00000  Uiso   1.00
C439   C     0.27656   0.94417   0.11726   0.00000  Uiso   1.00
C440   C     0.25720   0.98857   0.14121   0.00000  Uiso   1.00
C441   C     0.20240   0.98651   0.15967   0.00000  Uiso   1.00
C442   C     0.16675   0.94004   0.15413   0.00000  Uiso   1.00
C443   C     0.17873   0.90415   0.01887   0.00000  Uiso   1.00
C444   C     0.18561   0.89569   0.12969   0.00000  Uiso   1.00
C445   C     0.09286   0.76893   0.38956   0.00000  Uiso   1.00
C446   C     0.14768   0.77092   0.37028   0.00000  Uiso   1.00
C447   C     0.16649   0.72655   0.34584   0.00000  Uiso   1.00
C448   C     0.13082   0.68009   0.34033   0.00000  Uiso   1.00
C449   C     0.07604   0.67807   0.35882   0.00000  Uiso   1.00
C450   C     0.05671   0.72248   0.38276   0.00000  Uiso   1.00
C451   C     0.15465   0.76251   0.48110   0.00000  Uiso   1.00
C452   C     0.12732   0.92269   0.00441   0.00000  Uiso   1.00
C453   C     0.20606   0.74397   0.49556   0.00000  Uiso   1.00
C454   C     0.02273   0.98615   0.24664   0.00000  Uiso   1.00
C455   C     0.31060   0.68051   0.25335   0.00000  Uiso   1.00
C456   C     0.02039   0.83599   0.34110   0.00000  Uiso   1.00
H457   H     0.02482   0.75995   0.10020   0.00000  Uiso   1.00
H458   H     0.17073   0.87537   0.28614   0.00000  Uiso   1.00
H459   H     0.12073   0.96378   0.01197   0.00000  Uiso   1.00
H460   H     0.21266   0.70289   0.48800   0.00000  Uiso   1.00
H461   H     0.31909   0.94625   0.10308   0.00000  Uiso   1.00
H462   H     0.28477   0.69121   0.14564   0.00000  Uiso   1.00
H463   H     0.18767   0.68755   0.17843   0.00000  Uiso   1.00
H464   H     0.12439   0.93847   0.16852   0.00000  Uiso   1.00
H465   H     0.15752   0.85996   0.12535   0.00000  Uiso   1.00
H466   H     0.17578   0.80664   0.37460   0.00000  Uiso   1.00
H467   H     0.20885   0.72809   0.33143   0.00000  Uiso   1.00
H468   H     0.30852   0.90672   0.39981   0.00000  Uiso   1.00
H469   H     0.14552   0.97904   0.32157   0.00000  Uiso   1.00
H470   H     0.04844   0.97544   0.35440   0.00000  Uiso   1.00
H471   H     0.01420   0.72043   0.39696   0.00000  Uiso   1.00
H472   H     0.02654   0.94905   0.47130   0.00000  Uiso   1.00
H473   H     0.30684   0.71762   0.02869   0.00000  Uiso   1.00
H474   H     0.21182   0.93287   0.03334   0.00000  Uiso   1.00
H475   H     0.12156   0.73379   0.46663   0.00000  Uiso   1.00
H476   H     0.06539   0.66998   0.23988   0.00000  Uiso   1.00
H477   H     0.26794   0.99668   0.26011   0.00000  Uiso   1.00
H478   H     0.16261   0.79130   0.21386   0.00000  Uiso   1.00
N479   N     0.14695   0.81883   0.23740   0.00000  Uiso   1.00
N480   N     0.18638   0.84784   0.26261   0.00000  Uiso   1.00
O481   O     0.29719   0.91298   0.25310   0.00000  Uiso   1.00
O482   O     0.03614   0.75369   0.24691   0.00000  Uiso   1.00
O483   O     0.05822   0.90368   0.24502   0.00000  Uiso   1.00
O484   O     0.27512   0.76298   0.25499   0.00000  Uiso   1.00
O485   O     0.30328   0.84063   0.32247   0.00000  Uiso   1.00
O486   O     0.03005   0.82603   0.17753   0.00000  Uiso   1.00
O487   O     0.06431   0.83134   0.31439   0.00000  Uiso   1.00
O488   O     0.26902   0.83533   0.18561   0.00000  Uiso   1.00
Zn489  Zn    0.27033   0.83954   0.25540   0.00000  Uiso   1.00
Zn490  Zn    0.06300   0.82713   0.24461   0.00000  Uiso   1.00
C491   C     0.34842   0.93159   0.24842   0.00000  Uiso   1.00
C492   C     0.64628   0.83068   0.15890   0.00000  Uiso   1.00
C493   C     0.36361   0.84292   0.39369   0.00000  Uiso   1.00
C494   C     0.63640   0.82374   0.10631   0.00000  Uiso   1.00
C495   C     0.37184   0.91109   0.45760   0.00000  Uiso   1.00
C496   C     0.62819   0.75558   0.04239   0.00000  Uiso   1.00
C497   C     0.34226   0.88667   0.41709   0.00000  Uiso   1.00
C498   C     0.65776   0.78000   0.08291   0.00000  Uiso   1.00
C499   C     0.40610   0.81564   0.41667   0.00000  Uiso   1.00
C500   C     0.59390   0.85102   0.08333   0.00000  Uiso   1.00
C501   C     0.43445   0.83888   0.46010   0.00000  Uiso   1.00
C502   C     0.65158   0.73508   0.25158   0.00000  Uiso   1.00
C503   C     0.56558   0.82779   0.03988   0.00000  Uiso   1.00
C504   C     0.42107   0.89023   0.47576   0.00000  Uiso   1.00
C505   C     0.57897   0.77644   0.02422   0.00000  Uiso   1.00
C506   C     0.48032   0.81667   0.48492   0.00000  Uiso   1.00
C507   C     0.51972   0.85000   0.01505   0.00000  Uiso   1.00
C508   C     0.57378   0.89771   0.11044   0.00000  Uiso   1.00
C509   C     0.60989   0.94417   0.11726   0.00000  Uiso   1.00
C510   C     0.59053   0.98857   0.14121   0.00000  Uiso   1.00
C511   C     0.53573   0.98651   0.15967   0.00000  Uiso   1.00
C512   C     0.50009   0.94004   0.15413   0.00000  Uiso   1.00
C513   C     0.51206   0.90415   0.01887   0.00000  Uiso   1.00
C514   C     0.51894   0.89569   0.12969   0.00000  Uiso   1.00
C515   C     0.42619   0.76893   0.38956   0.00000  Uiso   1.00
C516   C     0.48101   0.77092   0.37028   0.00000  Uiso   1.00
C517   C     0.49983   0.72655   0.34584   0.00000  Uiso   1.00
C518   C     0.46416   0.68009   0.34033   0.00000  Uiso   1.00
C519   C     0.40937   0.67807   0.35882   0.00000  Uiso   1.00
C520   C     0.39005   0.72248   0.38276   0.00000  Uiso   1.00
C521   C     0.48798   0.76251   0.48110   0.00000  Uiso   1.00
C522   C     0.46065   0.92269   0.00441   0.00000  Uiso   1.00
C523   C     0.53939   0.74397   0.49556   0.00000  Uiso   1.00
C524   C     0.35606   0.98615   0.24664   0.00000  Uiso   1.00
C525   C     0.64393   0.68051   0.25335   0.00000  Uiso   1.00
C526   C     0.35372   0.83599   0.34110   0.00000  Uiso   1.00
H527   H     0.35816   0.75995   0.10020   0.00000  Uiso   1.00
H528   H     0.50406   0.87537   0.28614   0.00000  Uiso   1.00
H529   H     0.45406   0.96378   0.01197   0.00000  Uiso   1.00
H530   H     0.54599   0.70289   0.48800   0.00000  Uiso   1.00
H531   H     0.65242   0.94625   0.10308   0.00000  Uiso   1.00
H532   H     0.61810   0.69121   0.14564   0.00000  Uiso   1.00
H533   H     0.52100   0.68755   0.17843   0.00000  Uiso   1.00
H534   H     0.45772   0.93847   0.16852   0.00000  Uiso   1.00
H535   H     0.49086   0.85996   0.12535   0.00000  Uiso   1.00
H536   H     0.50912   0.80664   0.37460   0.00000  Uiso   1.00
H537   H     0.54218   0.72809   0.33143   0.00000  Uiso   1.00
H538   H     0.64186   0.90672   0.39981   0.00000  Uiso   1.00
H539   H     0.47885   0.97904   0.32157   0.00000  Uiso   1.00
H540   H     0.38177   0.97544   0.35440   0.00000  Uiso   1.00
H541   H     0.34753   0.72043   0.39696   0.00000  Uiso   1.00
H542   H     0.35987   0.94905   0.47130   0.00000  Uiso   1.00
H543   H     0.64017   0.71762   0.02869   0.00000  Uiso   1.00
H544   H     0.54516   0.93287   0.03334   0.00000  Uiso   1.00
H545   H     0.45489   0.73379   0.46663   0.00000  Uiso   1.00
H546   H     0.39872   0.66998   0.23988   0.00000  Uiso   1.00
H547   H     0.60127   0.99668   0.26011   0.00000  Uiso   1.00
H548   H     0.49594   0.79130   0.21386   0.00000  Uiso   1.00
N549   N     0.48029   0.81883   0.23740   0.00000  Uiso   1.00
N550   N     0.51971   0.84784   0.26261   0.00000  Uiso   1.00
O551   O     0.63052   0.91298   0.25310   0.00000  Uiso   1.00
O552   O     0.36948   0.75369   0.24691   0.00000  Uiso   1.00
O553   O     0.39155   0.90368   0.24502   0.00000  Uiso   1.00
O554   O     0.60845   0.76298   0.25499   0.00000  Uiso   1.00
O555   O     0.63662   0.84063   0.32247   0.00000  Uiso   1.00
O556   O     0.36338   0.82603   0.17753   0.00000  Uiso   1.00
O557   O     0.39764   0.83134   0.31439   0.00000  Uiso   1.00
O558   O     0.60236   0.83533   0.18561   0.00000  Uiso   1.00
Zn559  Zn    0.60366   0.83954   0.25540   0.00000  Uiso   1.00
Zn560  Zn    0.39634   0.82713   0.24461   0.00000  Uiso   1.00
C561   C     0.68175   0.93159   0.24842   0.00000  Uiso   1.00
C562   C     0.97961   0.83068   0.15890   0.00000  Uiso   1.00
C563   C     0.69694   0.84292   0.39369   0.00000  Uiso   1.00
C564   C     0.96973   0.82374   0.10631   0.00000  Uiso   1.00
C565   C     0.70517   0.91109   0.45760   0.00000  Uiso   1.00
C566   C     0.96153   0.75558   0.04239   0.00000  Uiso   1.00
C567   C     0.67559   0.88667   0.41709   0.00000  Uiso   1.00
C568   C     0.99109   0.78000   0.08291   0.00000  Uiso   1.00
C569   C     0.73944   0.81564   0.41667   0.00000  Uiso   1.00
C570   C     0.92724   0.85102   0.08333   0.00000  Uiso   1.00
C571   C     0.76778   0.83888   0.46010   0.00000  Uiso   1.00
C572   C     0.98492   0.73508   0.25158   0.00000  Uiso   1.00
C573   C     0.89891   0.82779   0.03988   0.00000  Uiso   1.00
C574   C     0.75440   0.89023   0.47576   0.00000  Uiso   1.00
C575   C     0.91230   0.77644   0.02422   0.00000  Uiso   1.00
C576   C     0.81365   0.81667   0.48492   0.00000  Uiso   1.00
C577   C     0.85306   0.85000   0.01505   0.00000  Uiso   1.00
C578   C     0.90711   0.89771   0.11044   0.00000  Uiso   1.00
C579   C     0.94323   0.94417   0.11726   0.00000  Uiso   1.00
C580   C     0.92386   0.98857   0.14121   0.00000  Uiso   1.00
C581   C     0.86906   0.98651   0.15967   0.00000  Uiso   1.00
C582   C     0.83342   0.94004   0.15413   0.00000  Uiso   1.00
C583   C     0.84540   0.90415   0.01887   0.00000  Uiso   1.00
C584   C     0.85228   0.89569   0.12969   0.00000  Uiso   1.00
C585   C     0.75952   0.76893   0.38956   0.00000  Uiso   1.00
C586   C     0.81434   0.77092   0.37028   0.00000  Uiso   1.00
C587   C     0.83316   0.72655   0.34584   0.00000  Uiso   1.00
C588   C     0.79749   0.68009   0.34033   0.00000  Uiso   1.00
C589   C     0.74270   0.67807   0.35882   0.00000  Uiso   1.00
C590   C     0.72338   0.72248   0.38276   0.00000  Uiso   1.00
C591   C     0.82132   0.76251   0.48110   0.00000  Uiso   1.00
C592   C     0.79399   0.92269   0.00441   0.00000  Uiso   1.00
C593   C     0.87273   0.74397   0.49556   0.00000  Uiso   1.00
C594   C     0.68940   0.98615   0.24664   0.00000  Uiso   1.00
C595   C     0.97727   0.68051   0.25335   0.00000  Uiso   1.00
C596   C     0.68706   0.83599   0.34110   0.00000  Uiso   1.00
H597   H     0.69149   0.75995   0.10020   0.00000  Uiso   1.00
H598   H     0.83739   0.87537   0.28614   0.00000  Uiso   1.00
H599   H     0.78739   0.96378   0.01197   0.00000  Uiso   1.00
H600   H     0.87933   0.70289   0.48800   0.00000  Uiso   1.00
H601   H     0.98576   0.94625   0.10308   0.00000  Uiso   1.00
H602   H     0.95143   0.69121   0.14564   0.00000  Uiso   1.00
H603   H     0.85433   0.68755   0.17843   0.00000  Uiso   1.00
H604   H     0.79106   0.93847   0.16852   0.00000  Uiso   1.00
H605   H     0.82419   0.85996   0.12535   0.00000  Uiso   1.00
H606   H     0.84245   0.80664   0.37460   0.00000  Uiso   1.00
H607   H     0.87551   0.72809   0.33143   0.00000  Uiso   1.00
H608   H     0.97519   0.90672   0.39981   0.00000  Uiso   1.00
H609   H     0.81219   0.97904   0.32157   0.00000  Uiso   1.00
H610   H     0.71511   0.97544   0.35440   0.00000  Uiso   1.00
H611   H     0.68086   0.72043   0.39696   0.00000  Uiso   1.00
H612   H     0.69320   0.94905   0.47130   0.00000  Uiso   1.00
H613   H     0.97351   0.71762   0.02869   0.00000  Uiso   1.00
H614   H     0.87849   0.93287   0.03334   0.00000  Uiso   1.00
H615   H     0.78823   0.73379   0.46663   0.00000  Uiso   1.00
H616   H     0.73206   0.66998   0.23988   0.00000  Uiso   1.00
H617   H     0.93461   0.99668   0.26011   0.00000  Uiso   1.00
H618   H     0.82927   0.79130   0.21386   0.00000  Uiso   1.00
N619   N     0.81362   0.81883   0.23740   0.00000  Uiso   1.00
N620   N     0.85305   0.84784   0.26261   0.00000  Uiso   1.00
O621   O     0.96386   0.91298   0.25310   0.00000  Uiso   1.00
O622   O     0.70281   0.75369   0.24691   0.00000  Uiso   1.00
O623   O     0.72488   0.90368   0.24502   0.00000  Uiso   1.00
O624   O     0.94178   0.76298   0.25499   0.00000  Uiso   1.00
O625   O     0.96995   0.84063   0.32247   0.00000  Uiso   1.00
O626   O     0.69672   0.82603   0.17753   0.00000  Uiso   1.00
O627   O     0.73098   0.83134   0.31439   0.00000  Uiso   1.00
O628   O     0.93569   0.83533   0.18561   0.00000  Uiso   1.00
Zn629  Zn    0.93700   0.83954   0.25540   0.00000  Uiso   1.00
Zn630  Zn    0.72967   0.82713   0.24461   0.00000  Uiso   1.00
C631   C     0.01508   0.26492   0.74842   0.00000  Uiso   1.00
C632   C     0.31294   0.16401   0.65890   0.00000  Uiso   1.00
C633   C     0.03027   0.17626   0.89369   0.00000  Uiso   1.00
C634   C     0.30306   0.15707   0.60631   0.00000  Uiso   1.00
C635   C     0.03851   0.24442   0.95760   0.00000  Uiso   1.00
C636   C     0.29486   0.08891   0.54239   0.00000  Uiso   1.00
C637   C     0.00893   0.22001   0.91709   0.00000  Uiso   1.00
C638   C     0.32442   0.11333   0.58291   0.00000  Uiso   1.00
C639   C     0.07277   0.14897   0.91667   0.00000  Uiso   1.00
C640   C     0.26057   0.18435   0.58333   0.00000  Uiso   1.00
C641   C     0.10112   0.17221   0.96010   0.00000  Uiso   1.00
C642   C     0.31825   0.06841   0.75158   0.00000  Uiso   1.00
C643   C     0.23225   0.16112   0.53988   0.00000  Uiso   1.00
C644   C     0.08773   0.22356   0.97576   0.00000  Uiso   1.00
C645   C     0.24564   0.10977   0.52422   0.00000  Uiso   1.00
C646   C     0.14698   0.15000   0.98492   0.00000  Uiso   1.00
C647   C     0.18639   0.18333   0.51505   0.00000  Uiso   1.00
C648   C     0.24045   0.23104   0.61044   0.00000  Uiso   1.00
C649   C     0.27656   0.27751   0.61726   0.00000  Uiso   1.00
C650   C     0.25720   0.32190   0.64121   0.00000  Uiso   1.00
C651   C     0.20240   0.31985   0.65967   0.00000  Uiso   1.00
C652   C     0.16675   0.27337   0.65413   0.00000  Uiso   1.00
C653   C     0.17873   0.23748   0.51887   0.00000  Uiso   1.00
C654   C     0.18561   0.22902   0.62969   0.00000  Uiso   1.00
C655   C     0.09286   0.10226   0.88956   0.00000  Uiso   1.00
C656   C     0.14768   0.10425   0.87028   0.00000  Uiso   1.00
C657   C     0.16649   0.05988   0.84584   0.00000  Uiso   1.00
C658   C     0.13082   0.01343   0.84033   0.00000  Uiso   1.00
C659   C     0.07604   0.01140   0.85882   0.00000  Uiso   1.00
C660   C     0.05671   0.05582   0.88276   0.00000  Uiso   1.00
C661   C     0.15465   0.09585   0.98110   0.00000  Uiso   1.00
C662   C     0.12732   0.25603   0.50441   0.00000  Uiso   1.00
C663   C     0.20606   0.07731   0.99556   0.00000  Uiso   1.00
C664   C     0.02273   0.31949   0.74664   0.00000  Uiso   1.00
C665   C     0.31060   0.01385   0.75335   0.00000  Uiso   1.00
C666   C     0.02039   0.16932   0.84110   0.00000  Uiso   1.00
H667   H     0.02482   0.09328   0.60020   0.00000  Uiso   1.00
H668   H     0.17073   0.20870   0.78614   0.00000  Uiso   1.00
H669   H     0.12073   0.29711   0.51197   0.00000  Uiso   1.00
H670   H     0.21266   0.03623   0.98800   0.00000  Uiso   1.00
H671   H     0.31909   0.27958   0.60308   0.00000  Uiso   1.00
H672   H     0.28477   0.02455   0.64564   0.00000  Uiso   1.00
H673   H     0.18767   0.02088   0.67843   0.00000  Uiso   1.00
H674   H     0.12439   0.27180   0.66852   0.00000  Uiso   1.00
H675   H     0.15752   0.19329   0.62535   0.00000  Uiso   1.00
H676   H     0.17578   0.13997   0.87460   0.00000  Uiso   1.00
H677   H     0.20885   0.06143   0.83143   0.00000  Uiso   1.00
H678   H     0.30852   0.24005   0.89981   0.00000  Uiso   1.00
H679   H     0.14552   0.31237   0.82157   0.00000  Uiso   1.00
H680   H     0.04844   0.30877   0.85440   0.00000  Uiso   1.00
H681   H     0.01420   0.05377   0.89696   0.00000  Uiso   1.00
H682   H     0.02654   0.28238   0.97130   0.00000  Uiso   1.00
H683   H     0.30684   0.05096   0.52869   0.00000  Uiso   1.00
H684   H     0.21182   0.26621   0.53334   0.00000  Uiso   1.00
H685   H     0.12156   0.06712   0.96663   0.00000  Uiso   1.00
H686   H     0.06539   0.00331   0.73988   0.00000  Uiso   1.00
H687   H     0.26794   0.33002   0.76011   0.00000  Uiso   1.00
H688   H     0.16261   0.12463   0.71386   0.00000  Uiso   1.00
N689   N     0.14695   0.15216   0.73740   0.00000  Uiso   1.00
N690   N     0.18638   0.18117   0.76261   0.00000  Uiso   1.00
O691   O     0.29719   0.24631   0.75310   0.00000  Uiso   1.00
O692   O     0.03614   0.08702   0.74691   0.00000  Uiso   1.00
O693   O     0.05822   0.23702   0.74502   0.00000  Uiso   1.00
O694   O     0.27512   0.09632   0.75499   0.00000  Uiso   1.00
O695   O     0.30328   0.17397   0.82247   0.00000  Uiso   1.00
O696   O     0.03005   0.15937   0.67753   0.00000  Uiso   1.00
O697   O     0.06431   0.16467   0.81439   0.00000  Uiso   1.00
O698   O     0.26902   0.16866   0.68561   0.00000  Uiso   1.00
Zn699  Zn    0.27033   0.17287   0.75540   0.00000  Uiso   1.00
Zn700  Zn    0.06300   0.16046   0.74461   0.00000  Uiso   1.00
C701   C     0.34842   0.26492   0.74842   0.00000  Uiso   1.00
C702   C     0.64628   0.16401   0.65890   0.00000  Uiso   1.00
C703   C     0.36361   0.17626   0.89369   0.00000  Uiso   1.00
C704   C     0.63640   0.15707   0.60631   0.00000  Uiso   1.00
C705   C     0.37184   0.24442   0.95760   0.00000  Uiso   1.00
C706   C     0.62819   0.08891   0.54239   0.00000  Uiso   1.00
C707   C     0.34226   0.22001   0.91709   0.00000  Uiso   1.00
C708   C     0.65776   0.11333   0.58291   0.00000  Uiso   1.00
C709   C     0.40610   0.14897   0.91667   0.00000  Uiso   1.00
C710   C     0.59390   0.18435   0.58333   0.00000  Uiso   1.00
C711   C     0.43445   0.17221   0.96010   0.00000  Uiso   1.00
C712   C     0.65158   0.06841   0.75158   0.00000  Uiso   1.00
C713   C     0.56558   0.16112   0.53988   0.00000  Uiso   1.00
C714   C     0.42107   0.22356   0.97576   0.00000  Uiso   1.00
C715   C     0.57897   0.10977   0.52422   0.00000  Uiso   1.00
C716   C     0.48032   0.15000   0.98492   0.00000  Uiso   1.00
C717   C     0.51972   0.18333   0.51505   0.00000  Uiso   1.00
C718   C     0.57378   0.23104   0.61044   0.00000  Uiso   1.00
C719   C     0.60989   0.27751   0.61726   0.00000  Uiso   1.00
C720   C     0.59053   0.32190   0.64121   0.00000  Uiso   1.00
C721   C     0.53573   0.31985   0.65967   0.00000  Uiso   1.00
C722   C     0.50009   0.27337   0.65413   0.00000  Uiso   1.00
C723   C     0.51206   0.23748   0.51887   0.00000  Uiso   1.00
C724   C     0.51894   0.22902   0.62969   0.00000  Uiso   1.00
C725   C     0.42619   0.10226   0.88956   0.00000  Uiso   1.00
C726   C     0.48101   0.10425   0.87028   0.00000  Uiso   1.00
C727   C     0.49983   0.05988   0.84584   0.00000  Uiso   1.00
C728   C     0.46416   0.01343   0.84033   0.00000  Uiso   1.00
C729   C     0.40937   0.01140   0.85882   0.00000  Uiso   1.00
C730   C     0.39005   0.05582   0.88276   0.00000  Uiso   1.00
C731   C     0.48798   0.09585   0.98110   0.00000  Uiso   1.00
C732   C     0.46065   0.25603   0.50441   0.00000  Uiso   1.00
C733   C     0.53939   0.07731   0.99556   0.00000  Uiso   1.00
C734   C     0.35606   0.31949   0.74664   0.00000  Uiso   1.00
C735   C     0.64393   0.01385   0.75335   0.00000  Uiso   1.00
C736   C     0.35372   0.16932   0.84110   0.00000  Uiso   1.00
H737   H     0.35816   0.09328   0.60020   0.00000  Uiso   1.00
H738   H     0.50406   0.20870   0.78614   0.00000  Uiso   1.00
H739   H     0.45406   0.29711   0.51197   0.00000  Uiso   1.00
H740   H     0.54599   0.03623   0.98800   0.00000  Uiso   1.00
H741   H     0.65242   0.27958   0.60308   0.00000  Uiso   1.00
H742   H     0.61810   0.02455   0.64564   0.00000  Uiso   1.00
H743   H     0.52100   0.02088   0.67843   0.00000  Uiso   1.00
H744   H     0.45772   0.27180   0.66852   0.00000  Uiso   1.00
H745   H     0.49086   0.19329   0.62535   0.00000  Uiso   1.00
H746   H     0.50912   0.13997   0.87460   0.00000  Uiso   1.00
H747   H     0.54218   0.06143   0.83143   0.00000  Uiso   1.00
H748   H     0.64186   0.24005   0.89981   0.00000  Uiso   1.00
H749   H     0.47885   0.31237   0.82157   0.00000  Uiso   1.00
H750   H     0.38177   0.30877   0.85440   0.00000  Uiso   1.00
H751   H     0.34753   0.05377   0.89696   0.00000  Uiso   1.00
H752   H     0.35987   0.28238   0.97130   0.00000  Uiso   1.00
H753   H     0.64017   0.05096   0.52869   0.00000  Uiso   1.00
H754   H     0.54516   0.26621   0.53334   0.00000  Uiso   1.00
H755   H     0.45489   0.06712   0.96663   0.00000  Uiso   1.00
H756   H     0.39872   0.00331   0.73988   0.00000  Uiso   1.00
H757   H     0.60127   0.33002   0.76011   0.00000  Uiso   1.00
H758   H     0.49594   0.12463   0.71386   0.00000  Uiso   1.00
N759   N     0.48029   0.15216   0.73740   0.00000  Uiso   1.00
N760   N     0.51971   0.18117   0.76261   0.00000  Uiso   1.00
O761   O     0.63052   0.24631   0.75310   0.00000  Uiso   1.00
O762   O     0.36948   0.08702   0.74691   0.00000  Uiso   1.00
O763   O     0.39155   0.23702   0.74502   0.00000  Uiso   1.00
O764   O     0.60845   0.09632   0.75499   0.00000  Uiso   1.00
O765   O     0.63662   0.17397   0.82247   0.00000  Uiso   1.00
O766   O     0.36338   0.15937   0.67753   0.00000  Uiso   1.00
O767   O     0.39764   0.16467   0.81439   0.00000  Uiso   1.00
O768   O     0.60236   0.16866   0.68561   0.00000  Uiso   1.00
Zn769  Zn    0.60366   0.17287   0.75540   0.00000  Uiso   1.00
Zn770  Zn    0.39634   0.16046   0.74461   0.00000  Uiso   1.00
C771   C     0.68175   0.26492   0.74842   0.00000  Uiso   1.00
C772   C     0.97961   0.16401   0.65890   0.00000  Uiso   1.00
C773   C     0.69694   0.17626   0.89369   0.00000  Uiso   1.00
C774   C     0.96973   0.15707   0.60631   0.00000  Uiso   1.00
C775   C     0.70517   0.24442   0.95760   0.00000  Uiso   1.00
C776   C     0.96153   0.08891   0.54239   0.00000  Uiso   1.00
C777   C     0.67559   0.22001   0.91709   0.00000  Uiso   1.00
C778   C     0.99109   0.11333   0.58291   0.00000  Uiso   1.00
C779   C     0.73944   0.14897   0.91667   0.00000  Uiso   1.00
C780   C     0.92724   0.18435   0.58333   0.00000  Uiso   1.00
C781   C     0.76778   0.17221   0.96010   0.00000  Uiso   1.00
C782   C     0.98492   0.06841   0.75158   0.00000  Uiso   1.00
C783   C     0.89891   0.16112   0.53988   0.00000  Uiso   1.00
C784   C     0.75440   0.22356   0.97576   0.00000  Uiso   1.00
C785   C     0.91230   0.10977   0.52422   0.00000  Uiso   1.00
C786   C     0.81365   0.15000   0.98492   0.00000  Uiso   1.00
C787   C     0.85306   0.18333   0.51505   0.00000  Uiso   1.00
C788   C     0.90711   0.23104   0.61044   0.00000  Uiso   1.00
C789   C     0.94323   0.27751   0.61726   0.00000  Uiso   1.00
C790   C     0.92386   0.32190   0.64121   0.00000  Uiso   1.00
C791   C     0.86906   0.31985   0.65967   0.00000  Uiso   1.00
C792   C     0.83342   0.27337   0.65413   0.00000  Uiso   1.00
C793   C     0.84540   0.23748   0.51887   0.00000  Uiso   1.00
C794   C     0.85228   0.22902   0.62969   0.00000  Uiso   1.00
C795   C     0.75952   0.10226   0.88956   0.00000  Uiso   1.00
C796   C     0.81434   0.10425   0.87028   0.00000  Uiso   1.00
C797   C     0.83316   0.05988   0.84584   0.00000  Uiso   1.00
C798   C     0.79749   0.01343   0.84033   0.00000  Uiso   1.00
C799   C     0.74270   0.01140   0.85882   0.00000  Uiso   1.00
C800   C     0.72338   0.05582   0.88276   0.00000  Uiso   1.00
C801   C     0.82132   0.09585   0.98110   0.00000  Uiso   1.00
C802   C     0.79399   0.25603   0.50441   0.00000  Uiso   1.00
C803   C     0.87273   0.07731   0.99556   0.00000  Uiso   1.00
C804   C     0.68940   0.31949   0.74664   0.00000  Uiso   1.00
C805   C     0.97727   0.01385   0.75335   0.00000  Uiso   1.00
C806   C     0.68706   0.16932   0.84110   0.00000  Uiso   1.00
H807   H     0.69149   0.09328   0.60020   0.00000  Uiso   1.00
H808   H     0.83739   0.20870   0.78614   0.00000  Uiso   1.00
H809   H     0.78739   0.29711   0.51197   0.00000  Uiso   1.00
H810   H     0.87933   0.03623   0.98800   0.00000  Uiso   1.00
H811   H     0.98576   0.27958   0.60308   0.00000  Uiso   1.00
H812   H     0.95143   0.02455   0.64564   0.00000  Uiso   1.00
H813   H     0.85433   0.02088   0.67843   0.00000  Uiso   1.00
H814   H     0.79106   0.27180   0.66852   0.00000  Uiso   1.00
H815   H     0.82419   0.19329   0.62535   0.00000  Uiso   1.00
H816   H     0.84245   0.13997   0.87460   0.00000  Uiso   1.00
H817   H     0.87551   0.06143   0.83143   0.00000  Uiso   1.00
H818   H     0.97519   0.24005   0.89981   0.00000  Uiso   1.00
H819   H     0.81219   0.31237   0.82157   0.00000  Uiso   1.00
H820   H     0.71511   0.30877   0.85440   0.00000  Uiso   1.00
H821   H     0.68086   0.05377   0.89696   0.00000  Uiso   1.00
H822   H     0.69320   0.28238   0.97130   0.00000  Uiso   1.00
H823   H     0.97351   0.05096   0.52869   0.00000  Uiso   1.00
H824   H     0.87849   0.26621   0.53334   0.00000  Uiso   1.00
H825   H     0.78823   0.06712   0.96663   0.00000  Uiso   1.00
H826   H     0.73206   0.00331   0.73988   0.00000  Uiso   1.00
H827   H     0.93461   0.33002   0.76011   0.00000  Uiso   1.00
H828   H     0.82927   0.12463   0.71386   0.00000  Uiso   1.00
N829   N     0.81362   0.15216   0.73740   0.00000  Uiso   1.00
N830   N     0.85305   0.18117   0.76261   0.00000  Uiso   1.00
O831   O     0.96386   0.24631   0.75310   0.00000  Uiso   1.00
O832   O     0.70281   0.08702   0.74691   0.00000  Uiso   1.00
O833   O     0.72488   0.23702   0.74502   0.00000  Uiso   1.00
O834   O     0.94178   0.09632   0.75499   0.00000  Uiso   1.00
O835   O     0.96995   0.17397   0.82247   0.00000  Uiso   1.00
O836   O     0.69672   0.15937   0.67753   0.00000  Uiso   1.00
O837   O     0.73098   0.16467   0.81439   0.00000  Uiso   1.00
O838   O     0.93569   0.16866   0.68561   0.00000  Uiso   1.00
Zn839  Zn    0.93700   0.17287   0.75540   0.00000  Uiso   1.00
Zn840  Zn    0.72967   0.16046   0.74461   0.00000  Uiso   1.00
C841   C     0.01508   0.59826   0.74842   0.00000  Uiso   1.00
C842   C     0.31294   0.49735   0.65890   0.00000  Uiso   1.00
C843   C     0.03027   0.50959   0.89369   0.00000  Uiso   1.00
C844   C     0.30306   0.49041   0.60631   0.00000  Uiso   1.00
C845   C     0.03851   0.57776   0.95760   0.00000  Uiso   1.00
C846   C     0.29486   0.42225   0.54239   0.00000  Uiso   1.00
C847   C     0.00893   0.55334   0.91709   0.00000  Uiso   1.00
C848   C     0.32442   0.44666   0.58291   0.00000  Uiso   1.00
C849   C     0.07277   0.48231   0.91667   0.00000  Uiso   1.00
C850   C     0.26057   0.51769   0.58333   0.00000  Uiso   1.00
C851   C     0.10112   0.50555   0.96010   0.00000  Uiso   1.00
C852   C     0.31825   0.40174   0.75158   0.00000  Uiso   1.00
C853   C     0.23225   0.49445   0.53988   0.00000  Uiso   1.00
C854   C     0.08773   0.55690   0.97576   0.00000  Uiso   1.00
C855   C     0.24564   0.44310   0.52422   0.00000  Uiso   1.00
C856   C     0.14698   0.48334   0.98492   0.00000  Uiso   1.00
C857   C     0.18639   0.51666   0.51505   0.00000  Uiso   1.00
C858   C     0.24045   0.56438   0.61044   0.00000  Uiso   1.00
C859   C     0.27656   0.61084   0.61726   0.00000  Uiso   1.00
C860   C     0.25720   0.65524   0.64121   0.00000  Uiso   1.00
C861   C     0.20240   0.65318   0.65967   0.00000  Uiso   1.00
C862   C     0.16675   0.60670   0.65413   0.00000  Uiso   1.00
C863   C     0.17873   0.57082   0.51887   0.00000  Uiso   1.00
C864   C     0.18561   0.56236   0.62969   0.00000  Uiso   1.00
C865   C     0.09286   0.43560   0.88956   0.00000  Uiso   1.00
C866   C     0.14768   0.43758   0.87028   0.00000  Uiso   1.00
C867   C     0.16649   0.39322   0.84584   0.00000  Uiso   1.00
C868   C     0.13082   0.34676   0.84033   0.00000  Uiso   1.00
C869   C     0.07604   0.34474   0.85882   0.00000  Uiso   1.00
C870   C     0.05671   0.38915   0.88276   0.00000  Uiso   1.00
C871   C     0.15465   0.42918   0.98110   0.00000  Uiso   1.00
C872   C     0.12732   0.58936   0.50441   0.00000  Uiso   1.00
C873   C     0.20606   0.41064   0.99556   0.00000  Uiso   1.00
C874   C     0.02273   0.65282   0.74664   0.00000  Uiso   1.00
C875   C     0.31060   0.34718   0.75335   0.00000  Uiso   1.00
C876   C     0.02039   0.50265   0.84110   0.00000  Uiso   1.00
H877   H     0.02482   0.42662   0.60020   0.00000  Uiso   1.00
H878   H     0.17073   0.54203   0.78614   0.00000  Uiso   1.00
H879   H     0.12073   0.63044   0.51197   0.00000  Uiso   1.00
H880   H     0.21266   0.36956   0.98800   0.00000  Uiso   1.00
H881   H     0.31909   0.61292   0.60308   0.00000  Uiso   1.00
H882   H     0.28477   0.35788   0.64564   0.00000  Uiso   1.00
H883   H     0.18767   0.35422   0.67843   0.00000  Uiso   1.00
H884   H     0.12439   0.60514   0.66852   0.00000  Uiso   1.00
H885   H     0.15752   0.52663   0.62535   0.00000  Uiso   1.00
H886   H     0.17578   0.47330   0.87460   0.00000  Uiso   1.00
H887   H     0.20885   0.39476   0.83143   0.00000  Uiso   1.00
H888   H     0.30852   0.57339   0.89981   0.00000  Uiso   1.00
H889   H     0.14552   0.64571   0.82157   0.00000  Uiso   1.00
H890   H     0.04844   0.64211   0.85440   0.00000  Uiso   1.00
H891   H     0.01420   0.38710   0.89696   0.00000  Uiso   1.00
H892   H     0.02654   0.61572   0.97130   0.00000  Uiso   1.00
H893   H     0.30684   0.38429   0.52869   0.00000  Uiso   1.00
H894   H     0.21182   0.59954   0.53334   0.00000  Uiso   1.00
H895   H     0.12156   0.40045   0.96663   0.00000  Uiso   1.00
H896   H     0.06539   0.33665   0.73988   0.00000  Uiso   1.00
H897   H     0.26794   0.66335   0.76011   0.00000  Uiso   1.00
H898   H     0.16261   0.45797   0.71386   0.00000  Uiso   1.00
N899   N     0.14695   0.48550   0.73740   0.00000  Uiso   1.00
N900   N     0.18638   0.51450   0.76261   0.00000  Uiso   1.00
O901   O     0.29719   0.57964   0.75310   0.00000  Uiso   1.00
O902   O     0.03614   0.42036   0.74691   0.00000  Uiso   1.00
O903   O     0.05822   0.57035   0.74502   0.00000  Uiso   1.00
O904   O     0.27512   0.42965   0.75499   0.00000  Uiso   1.00
O905   O     0.30328   0.50730   0.82247   0.00000  Uiso   1.00
O906   O     0.03005   0.49270   0.67753   0.00000  Uiso   1.00
O907   O     0.06431   0.49801   0.81439   0.00000  Uiso   1.00
O908   O     0.26902   0.50199   0.68561   0.00000  Uiso   1.00
Zn909  Zn    0.27033   0.50621   0.75540   0.00000  Uiso   1.00
Zn910  Zn    0.06300   0.49379   0.74461   0.00000  Uiso   1.00
C911   C     0.34842   0.59826   0.74842   0.00000  Uiso   1.00
C912   C     0.64628   0.49735   0.65890   0.00000  Uiso   1.00
C913   C     0.36361   0.50959   0.89369   0.00000  Uiso   1.00
C914   C     0.63640   0.49041   0.60631   0.00000  Uiso   1.00
C915   C     0.37184   0.57776   0.95760   0.00000  Uiso   1.00
C916   C     0.62819   0.42225   0.54239   0.00000  Uiso   1.00
C917   C     0.34226   0.55334   0.91709   0.00000  Uiso   1.00
C918   C     0.65776   0.44666   0.58291   0.00000  Uiso   1.00
C919   C     0.40610   0.48231   0.91667   0.00000  Uiso   1.00
C920   C     0.59390   0.51769   0.58333   0.00000  Uiso   1.00
C921   C     0.43445   0.50555   0.96010   0.00000  Uiso   1.00
C922   C     0.65158   0.40174   0.75158   0.00000  Uiso   1.00
C923   C     0.56558   0.49445   0.53988   0.00000  Uiso   1.00
C924   C     0.42107   0.55690   0.97576   0.00000  Uiso   1.00
C925   C     0.57897   0.44310   0.52422   0.00000  Uiso   1.00
C926   C     0.48032   0.48334   0.98492   0.00000  Uiso   1.00
C927   C     0.51972   0.51666   0.51505   0.00000  Uiso   1.00
C928   C     0.57378   0.56438   0.61044   0.00000  Uiso   1.00
C929   C     0.60989   0.61084   0.61726   0.00000  Uiso   1.00
C930   C     0.59053   0.65524   0.64121   0.00000  Uiso   1.00
C931   C     0.53573   0.65318   0.65967   0.00000  Uiso   1.00
C932   C     0.50009   0.60670   0.65413   0.00000  Uiso   1.00
C933   C     0.51206   0.57082   0.51887   0.00000  Uiso   1.00
C934   C     0.51894   0.56236   0.62969   0.00000  Uiso   1.00
C935   C     0.42619   0.43560   0.88956   0.00000  Uiso   1.00
C936   C     0.48101   0.43758   0.87028   0.00000  Uiso   1.00
C937   C     0.49983   0.39322   0.84584   0.00000  Uiso   1.00
C938   C     0.46416   0.34676   0.84033   0.00000  Uiso   1.00
C939   C     0.40937   0.34474   0.85882   0.00000  Uiso   1.00
C940   C     0.39005   0.38915   0.88276   0.00000  Uiso   1.00
C941   C     0.48798   0.42918   0.98110   0.00000  Uiso   1.00
C942   C     0.46065   0.58936   0.50441   0.00000  Uiso   1.00
C943   C     0.53939   0.41064   0.99556   0.00000  Uiso   1.00
C944   C     0.35606   0.65282   0.74664   0.00000  Uiso   1.00
C945   C     0.64393   0.34718   0.75335   0.00000  Uiso   1.00
C946   C     0.35372   0.50265   0.84110   0.00000  Uiso   1.00
H947   H     0.35816   0.42662   0.60020   0.00000  Uiso   1.00
H948   H     0.50406   0.54203   0.78614   0.00000  Uiso   1.00
H949   H     0.45406   0.63044   0.51197   0.00000  Uiso   1.00
H950   H     0.54599   0.36956   0.98800   0.00000  Uiso   1.00
H951   H     0.65242   0.61292   0.60308   0.00000  Uiso   1.00
H952   H     0.61810   0.35788   0.64564   0.00000  Uiso   1.00
H953   H     0.52100   0.35422   0.67843   0.00000  Uiso   1.00
H954   H     0.45772   0.60514   0.66852   0.00000  Uiso   1.00
H955   H     0.49086   0.52663   0.62535   0.00000  Uiso   1.00
H956   H     0.50912   0.47330   0.87460   0.00000  Uiso   1.00
H957   H     0.54218   0.39476   0.83143   0.00000  Uiso   1.00
H958   H     0.64186   0.57339   0.89981   0.00000  Uiso   1.00
H959   H     0.47885   0.64571   0.82157   0.00000  Uiso   1.00
H960   H     0.38177   0.64211   0.85440   0.00000  Uiso   1.00
H961   H     0.34753   0.38710   0.89696   0.00000  Uiso   1.00
H962   H     0.35987   0.61572   0.97130   0.00000  Uiso   1.00
H963   H     0.64017   0.38429   0.52869   0.00000  Uiso   1.00
H964   H     0.54516   0.59954   0.53334   0.00000  Uiso   1.00
H965   H     0.45489   0.40045   0.96663   0.00000  Uiso   1.00
H966   H     0.39872   0.33665   0.73988   0.00000  Uiso   1.00
H967   H     0.60127   0.66335   0.76011   0.00000  Uiso   1.00
H968   H     0.49594   0.45797   0.71386   0.00000  Uiso   1.00
N969   N     0.48029   0.48550   0.73740   0.00000  Uiso   1.00
N970   N     0.51971   0.51450   0.76261   0.00000  Uiso   1.00
O971   O     0.63052   0.57964   0.75310   0.00000  Uiso   1.00
O972   O     0.36948   0.42036   0.74691   0.00000  Uiso   1.00
O973   O     0.39155   0.57035   0.74502   0.00000  Uiso   1.00
O974   O     0.60845   0.42965   0.75499   0.00000  Uiso   1.00
O975   O     0.63662   0.50730   0.82247   0.00000  Uiso   1.00
O976   O     0.36338   0.49270   0.67753   0.00000  Uiso   1.00
O977   O     0.39764   0.49801   0.81439   0.00000  Uiso   1.00
O978   O     0.60236   0.50199   0.68561   0.00000  Uiso   1.00
Zn979  Zn    0.60366   0.50621   0.75540   0.00000  Uiso   1.00
Zn980  Zn    0.39634   0.49379   0.74461   0.00000  Uiso   1.00
C981   C     0.68175   0.59826   0.74842   0.00000  Uiso   1.00
C982   C     0.97961   0.49735   0.65890   0.00000  Uiso   1.00
C983   C     0.69694   0.50959   0.89369   0.00000  Uiso   1.00
C984   C     0.96973   0.49041   0.60631   0.00000  Uiso   1.00
C985   C     0.70517   0.57776   0.95760   0.00000  Uiso   1.00
C986   C     0.96153   0.42225   0.54239   0.00000  Uiso   1.00
C987   C     0.67559   0.55334   0.91709   0.00000  Uiso   1.00
C988   C     0.99109   0.44666   0.58291   0.00000  Uiso   1.00
C989   C     0.73944   0.48231   0.91667   0.00000  Uiso   1.00
C990   C     0.92724   0.51769   0.58333   0.00000  Uiso   1.00
C991   C     0.76778   0.50555   0.96010   0.00000  Uiso   1.00
C992   C     0.98492   0.40174   0.75158   0.00000  Uiso   1.00
C993   C     0.89891   0.49445   0.53988   0.00000  Uiso   1.00
C994   C     0.75440   0.55690   0.97576   0.00000  Uiso   1.00
C995   C     0.91230   0.44310   0.52422   0.00000  Uiso   1.00
C996   C     0.81365   0.48334   0.98492   0.00000  Uiso   1.00
C997   C     0.85306   0.51666   0.51505   0.00000  Uiso   1.00
C998   C     0.90711   0.56438   0.61044   0.00000  Uiso   1.00
C999   C     0.94323   0.61084   0.61726   0.00000  Uiso   1.00
C1000  C     0.92386   0.65524   0.64121   0.00000  Uiso   1.00
C1001  C     0.86906   0.65318   0.65967   0.00000  Uiso   1.00
C1002  C     0.83342   0.60670   0.65413   0.00000  Uiso   1.00
C1003  C     0.84540   0.57082   0.51887   0.00000  Uiso   1.00
C1004  C     0.85228   0.56236   0.62969   0.00000  Uiso   1.00
C1005  C     0.75952   0.43560   0.88956   0.00000  Uiso   1.00
C1006  C     0.81434   0.43758   0.87028   0.00000  Uiso   1.00
C1007  C     0.83316   0.39322   0.84584   0.00000  Uiso   1.00
C1008  C     0.79749   0.34676   0.84033   0.00000  Uiso   1.00
C1009  C     0.74270   0.34474   0.85882   0.00000  Uiso   1.00
C1010  C     0.72338   0.38915   0.88276   0.00000  Uiso   1.00
C1011  C     0.82132   0.42918   0.98110   0.00000  Uiso   1.00
C1012  C     0.79399   0.58936   0.50441   0.00000  Uiso   1.00
C1013  C     0.87273   0.41064   0.99556   0.00000  Uiso   1.00
C1014  C     0.68940   0.65282   0.74664   0.00000  Uiso   1.00
C1015  C     0.97727   0.34718   0.75335   0.00000  Uiso   1.00
C1016  C     0.68706   0.50265   0.84110   0.00000  Uiso   1.00
H1017  H     0.69149   0.42662   0.60020   0.00000  Uiso   1.00
H1018  H     0.83739   0.54203   0.78614   0.00000  Uiso   1.00
H1019  H     0.78739   0.63044   0.51197   0.00000  Uiso   1.00
H1020  H     0.87933   0.36956   0.98800   0.00000  Uiso   1.00
H1021  H     0.98576   0.61292   0.60308   0.00000  Uiso   1.00
H1022  H     0.95143   0.35788   0.64564   0.00000  Uiso   1.00
H1023  H     0.85433   0.35422   0.67843   0.00000  Uiso   1.00
H1024  H     0.79106   0.60514   0.66852   0.00000  Uiso   1.00
H1025  H     0.82419   0.52663   0.62535   0.00000  Uiso   1.00
H1026  H     0.84245   0.47330   0.87460   0.00000  Uiso   1.00
H1027  H     0.87551   0.39476   0.83143   0.00000  Uiso   1.00
H1028  H     0.97519   0.57339   0.89981   0.00000  Uiso   1.00
H1029  H     0.81219   0.64571   0.82157   0.00000  Uiso   1.00
H1030  H     0.71511   0.64211   0.85440   0.00000  Uiso   1.00
H1031  H     0.68086   0.38710   0.89696   0.00000  Uiso   1.00
H1032  H     0.69320   0.61572   0.97130   0.00000  Uiso   1.00
H1033  H     0.97351   0.38429   0.52869   0.00000  Uiso   1.00
H1034  H     0.87849   0.59954   0.53334   0.00000  Uiso   1.00
H1035  H     0.78823   0.40045   0.96663   0.00000  Uiso   1.00
H1036  H     0.73206   0.33665   0.73988   0.00000  Uiso   1.00
H1037  H     0.93461   0.66335   0.76011   0.00000  Uiso   1.00
H1038  H     0.82927   0.45797   0.71386   0.00000  Uiso   1.00
N1039  N     0.81362   0.48550   0.73740   0.00000  Uiso   1.00
N1040  N     0.85305   0.51450   0.76261   0.00000  Uiso   1.00
O1041  O     0.96386   0.57964   0.75310   0.00000  Uiso   1.00
O1042  O     0.70281   0.42036   0.74691   0.00000  Uiso   1.00
O1043  O     0.72488   0.57035   0.74502   0.00000  Uiso   1.00
O1044  O     0.94178   0.42965   0.75499   0.00000  Uiso   1.00
O1045  O     0.96995   0.50730   0.82247   0.00000  Uiso   1.00
O1046  O     0.69672   0.49270   0.67753   0.00000  Uiso   1.00
O1047  O     0.73098   0.49801   0.81439   0.00000  Uiso   1.00
O1048  O     0.93569   0.50199   0.68561   0.00000  Uiso   1.00
Zn1049 Zn    0.93700   0.50621   0.75540   0.00000  Uiso   1.00
Zn1050 Zn    0.72967   0.49379   0.74461   0.00000  Uiso   1.00
C1051  C     0.01508   0.93159   0.74842   0.00000  Uiso   1.00
C1052  C     0.31294   0.83068   0.65890   0.00000  Uiso   1.00
C1053  C     0.03027   0.84292   0.89369   0.00000  Uiso   1.00
C1054  C     0.30306   0.82374   0.60631   0.00000  Uiso   1.00
C1055  C     0.03851   0.91109   0.95760   0.00000  Uiso   1.00
C1056  C     0.29486   0.75558   0.54239   0.00000  Uiso   1.00
C1057  C     0.00893   0.88667   0.91709   0.00000  Uiso   1.00
C1058  C     0.32442   0.78000   0.58291   0.00000  Uiso   1.00
C1059  C     0.07277   0.81564   0.91667   0.00000  Uiso   1.00
C1060  C     0.26057   0.85102   0.58333   0.00000  Uiso   1.00
C1061  C     0.10112   0.83888   0.96010   0.00000  Uiso   1.00
C1062  C     0.31825   0.73508   0.75158   0.00000  Uiso   1.00
C1063  C     0.23225   0.82779   0.53988   0.00000  Uiso   1.00
C1064  C     0.08773   0.89023   0.97576   0.00000  Uiso   1.00
C1065  C     0.24564   0.77644   0.52422   0.00000  Uiso   1.00
C1066  C     0.14698   0.81667   0.98492   0.00000  Uiso   1.00
C1067  C     0.18639   0.85000   0.51505   0.00000  Uiso   1.00
C1068  C     0.24045   0.89771   0.61044   0.00000  Uiso   1.00
C1069  C     0.27656   0.94417   0.61726   0.00000  Uiso   1.00
C1070  C     0.25720   0.98857   0.64121   0.00000  Uiso   1.00
C1071  C     0.20240   0.98651   0.65967   0.00000  Uiso   1.00
C1072  C     0.16675   0.94004   0.65413   0.00000  Uiso   1.00
C1073  C     0.17873   0.90415   0.51887   0.00000  Uiso   1.00
C1074  C     0.18561   0.89569   0.62969   0.00000  Uiso   1.00
C1075  C     0.09286   0.76893   0.88956   0.00000  Uiso   1.00
C1076  C     0.14768   0.77092   0.87028   0.00000  Uiso   1.00
C1077  C     0.16649   0.72655   0.84584   0.00000  Uiso   1.00
C1078  C     0.13082   0.68009   0.84033   0.00000  Uiso   1.00
C1079  C     0.07604   0.67807   0.85882   0.00000  Uiso   1.00
C1080  C     0.05671   0.72248   0.88276   0.00000  Uiso   1.00
C1081  C     0.15465   0.76251   0.98110   0.00000  Uiso   1.00
C1082  C     0.12732   0.92269   0.50441   0.00000  Uiso   1.00
C1083  C     0.20606   0.74397   0.99556   0.00000  Uiso   1.00
C1084  C     0.02273   0.98615   0.74664   0.00000  Uiso   1.00
C1085  C     0.31060   0.68051   0.75335   0.00000  Uiso   1.00
C1086  C     0.02039   0.83599   0.84110   0.00000  Uiso   1.00
H1087  H     0.02482   0.75995   0.60020   0.00000  Uiso   1.00
H1088  H     0.17073   0.87537   0.78614   0.00000  Uiso   1.00
H1089  H     0.12073   0.96378   0.51197   0.00000  Uiso   1.00
H1090  H     0.21266   0.70289   0.98800   0.00000  Uiso   1.00
H1091  H     0.31909   0.94625   0.60308   0.00000  Uiso   1.00
H1092  H     0.28477   0.69121   0.64564   0.00000  Uiso   1.00
H1093  H     0.18767   0.68755   0.67843   0.00000  Uiso   1.00
H1094  H     0.12439   0.93847   0.66852   0.00000  Uiso   1.00
H1095  H     0.15752   0.85996   0.62535   0.00000  Uiso   1.00
H1096  H     0.17578   0.80664   0.87460   0.00000  Uiso   1.00
H1097  H     0.20885   0.72809   0.83143   0.00000  Uiso   1.00
H1098  H     0.30852   0.90672   0.89981   0.00000  Uiso   1.00
H1099  H     0.14552   0.97904   0.82157   0.00000  Uiso   1.00
H1100  H     0.04844   0.97544   0.85440   0.00000  Uiso   1.00
H1101  H     0.01420   0.72043   0.89696   0.00000  Uiso   1.00
H1102  H     0.02654   0.94905   0.97130   0.00000  Uiso   1.00
H1103  H     0.30684   0.71762   0.52869   0.00000  Uiso   1.00
H1104  H     0.21182   0.93287   0.53334   0.00000  Uiso   1.00
H1105  H     0.12156   0.73379   0.96663   0.00000  Uiso   1.00
H1106  H     0.06539   0.66998   0.73988   0.00000  Uiso   1.00
H1107  H     0.26794   0.99668   0.76011   0.00000  Uiso   1.00
H1108  H     0.16261   0.79130   0.71386   0.00000  Uiso   1.00
N1109  N     0.14695   0.81883   0.73740   0.00000  Uiso   1.00
N1110  N     0.18638   0.84784   0.76261   0.00000  Uiso   1.00
O1111  O     0.29719   0.91298   0.75310   0.00000  Uiso   1.00
O1112  O     0.03614   0.75369   0.74691   0.00000  Uiso   1.00
O1113  O     0.05822   0.90368   0.74502   0.00000  Uiso   1.00
O1114  O     0.27512   0.76298   0.75499   0.00000  Uiso   1.00
O1115  O     0.30328   0.84063   0.82247   0.00000  Uiso   1.00
O1116  O     0.03005   0.82603   0.67753   0.00000  Uiso   1.00
O1117  O     0.06431   0.83134   0.81439   0.00000  Uiso   1.00
O1118  O     0.26902   0.83533   0.68561   0.00000  Uiso   1.00
Zn1119 Zn    0.27033   0.83954   0.75540   0.00000  Uiso   1.00
Zn1120 Zn    0.06300   0.82713   0.74461   0.00000  Uiso   1.00
C1121  C     0.34842   0.93159   0.74842   0.00000  Uiso   1.00
C1122  C     0.64628   0.83068   0.65890   0.00000  Uiso   1.00
C1123  C     0.36361   0.84292   0.89369   0.00000  Uiso   1.00
C1124  C     0.63640   0.82374   0.60631   0.00000  Uiso   1.00
C1125  C     0.37184   0.91109   0.95760   0.00000  Uiso   1.00
C1126  C     0.62819   0.75558   0.54239   0.00000  Uiso   1.00
C1127  C     0.34226   0.88667   0.91709   0.00000  Uiso   1.00
C1128  C     0.65776   0.78000   0.58291   0.00000  Uiso   1.00
C1129  C     0.40610   0.81564   0.91667   0.00000  Uiso   1.00
C1130  C     0.59390   0.85102   0.58333   0.00000  Uiso   1.00
C1131  C     0.43445   0.83888   0.96010   0.00000  Uiso   1.00
C1132  C     0.65158   0.73508   0.75158   0.00000  Uiso   1.00
C1133  C     0.56558   0.82779   0.53988   0.00000  Uiso   1.00
C1134  C     0.42107   0.89023   0.97576   0.00000  Uiso   1.00
C1135  C     0.57897   0.77644   0.52422   0.00000  Uiso   1.00
C1136  C     0.48032   0.81667   0.98492   0.00000  Uiso   1.00
C1137  C     0.51972   0.85000   0.51505   0.00000  Uiso   1.00
C1138  C     0.57378   0.89771   0.61044   0.00000  Uiso   1.00
C1139  C     0.60989   0.94417   0.61726   0.00000  Uiso   1.00
C1140  C     0.59053   0.98857   0.64121   0.00000  Uiso   1.00
C1141  C     0.53573   0.98651   0.65967   0.00000  Uiso   1.00
C1142  C     0.50009   0.94004   0.65413   0.00000  Uiso   1.00
C1143  C     0.51206   0.90415   0.51887   0.00000  Uiso   1.00
C1144  C     0.51894   0.89569   0.62969   0.00000  Uiso   1.00
C1145  C     0.42619   0.76893   0.88956   0.00000  Uiso   1.00
C1146  C     0.48101   0.77092   0.87028   0.00000  Uiso   1.00
C1147  C     0.49983   0.72655   0.84584   0.00000  Uiso   1.00
C1148  C     0.46416   0.68009   0.84033   0.00000  Uiso   1.00
C1149  C     0.40937   0.67807   0.85882   0.00000  Uiso   1.00
C1150  C     0.39005   0.72248   0.88276   0.00000  Uiso   1.00
C1151  C     0.48798   0.76251   0.98110   0.00000  Uiso   1.00
C1152  C     0.46065   0.92269   0.50441   0.00000  Uiso   1.00
C1153  C     0.53939   0.74397   0.99556   0.00000  Uiso   1.00
C1154  C     0.35606   0.98615   0.74664   0.00000  Uiso   1.00
C1155  C     0.64393   0.68051   0.75335   0.00000  Uiso   1.00
C1156  C     0.35372   0.83599   0.84110   0.00000  Uiso   1.00
H1157  H     0.35816   0.75995   0.60020   0.00000  Uiso   1.00
H1158  H     0.50406   0.87537   0.78614   0.00000  Uiso   1.00
H1159  H     0.45406   0.96378   0.51197   0.00000  Uiso   1.00
H1160  H     0.54599   0.70289   0.98800   0.00000  Uiso   1.00
H1161  H     0.65242   0.94625   0.60308   0.00000  Uiso   1.00
H1162  H     0.61810   0.69121   0.64564   0.00000  Uiso   1.00
H1163  H     0.52100   0.68755   0.67843   0.00000  Uiso   1.00
H1164  H     0.45772   0.93847   0.66852   0.00000  Uiso   1.00
H1165  H     0.49086   0.85996   0.62535   0.00000  Uiso   1.00
H1166  H     0.50912   0.80664   0.87460   0.00000  Uiso   1.00
H1167  H     0.54218   0.72809   0.83143   0.00000  Uiso   1.00
H1168  H     0.64186   0.90672   0.89981   0.00000  Uiso   1.00
H1169  H     0.47885   0.97904   0.82157   0.00000  Uiso   1.00
H1170  H     0.38177   0.97544   0.85440   0.00000  Uiso   1.00
H1171  H     0.34753   0.72043   0.89696   0.00000  Uiso   1.00
H1172  H     0.35987   0.94905   0.97130   0.00000  Uiso   1.00
H1173  H     0.64017   0.71762   0.52869   0.00000  Uiso   1.00
H1174  H     0.54516   0.93287   0.53334   0.00000  Uiso   1.00
H1175  H     0.45489   0.73379   0.96663   0.00000  Uiso   1.00
H1176  H     0.39872   0.66998   0.73988   0.00000  Uiso   1.00
H1177  H     0.60127   0.99668   0.76011   0.00000  Uiso   1.00
H1178  H     0.49594   0.79130   0.71386   0.00000  Uiso   1.00
N1179  N     0.48029   0.81883   0.73740   0.00000  Uiso   1.00
N1180  N     0.51971   0.84784   0.76261   0.00000  Uiso   1.00
O1181  O     0.63052   0.91298   0.75310   0.00000  Uiso   1.00
O1182  O     0.36948   0.75369   0.74691   0.00000  Uiso   1.00
O1183  O     0.39155   0.90368   0.74502   0.00000  Uiso   1.00
O1184  O     0.60845   0.76298   0.75499   0.00000  Uiso   1.00
O1185  O     0.63662   0.84063   0.82247   0.00000  Uiso   1.00
O1186  O     0.36338   0.82603   0.67753   0.00000  Uiso   1.00
O1187  O     0.39764   0.83134   0.81439   0.00000  Uiso   1.00
O1188  O     0.60236   0.83533   0.68561   0.00000  Uiso   1.00
Zn1189 Zn    0.60366   0.83954   0.75540   0.00000  Uiso   1.00
Zn1190 Zn    0.39634   0.82713   0.74461   0.00000  Uiso   1.00
C1191  C     0.68175   0.93159   0.74842   0.00000  Uiso   1.00
C1192  C     0.97961   0.83068   0.65890   0.00000  Uiso   1.00
C1193  C     0.69694   0.84292   0.89369   0.00000  Uiso   1.00
C1194  C     0.96973   0.82374   0.60631   0.00000  Uiso   1.00
C1195  C     0.70517   0.91109   0.95760   0.00000  Uiso   1.00
C1196  C     0.96153   0.75558   0.54239   0.00000  Uiso   1.00
C1197  C     0.67559   0.88667   0.91709   0.00000  Uiso   1.00
C1198  C     0.99109   0.78000   0.58291   0.00000  Uiso   1.00
C1199  C     0.73944   0.81564   0.91667   0.00000  Uiso   1.00
C1200  C     0.92724   0.85102   0.58333   0.00000  Uiso   1.00
C1201  C     0.76778   0.83888   0.96010   0.00000  Uiso   1.00
C1202  C     0.98492   0.73508   0.75158   0.00000  Uiso   1.00
C1203  C     0.89891   0.82779   0.53988   0.00000  Uiso   1.00
C1204  C     0.75440   0.89023   0.97576   0.00000  Uiso   1.00
C1205  C     0.91230   0.77644   0.52422   0.00000  Uiso   1.00
C1206  C     0.81365   0.81667   0.98492   0.00000  Uiso   1.00
C1207  C     0.85306   0.85000   0.51505   0.00000  Uiso   1.00
C1208  C     0.90711   0.89771   0.61044   0.00000  Uiso   1.00
C1209  C     0.94323   0.94417   0.61726   0.00000  Uiso   1.00
C1210  C     0.92386   0.98857   0.64121   0.00000  Uiso   1.00
C1211  C     0.86906   0.98651   0.65967   0.00000  Uiso   1.00
C1212  C     0.83342   0.94004   0.65413   0.00000  Uiso   1.00
C1213  C     0.84540   0.90415   0.51887   0.00000  Uiso   1.00
C1214  C     0.85228   0.89569   0.62969   0.00000  Uiso   1.00
C1215  C     0.75952   0.76893   0.88956   0.00000  Uiso   1.00
C1216  C     0.81434   0.77092   0.87028   0.00000  Uiso   1.00
C1217  C     0.83316   0.72655   0.84584   0.00000  Uiso   1.00
C1218  C     0.79749   0.68009   0.84033   0.00000  Uiso   1.00
C1219  C     0.74270   0.67807   0.85882   0.00000  Uiso   1.00
C1220  C     0.72338   0.72248   0.88276   0.00000  Uiso   1.00
C1221  C     0.82132   0.76251   0.98110   0.00000  Uiso   1.00
C1222  C     0.79399   0.92269   0.50441   0.00000  Uiso   1.00
C1223  C     0.87273   0.74397   0.99556   0.00000  Uiso   1.00
C1224  C     0.68940   0.98615   0.74664   0.00000  Uiso   1.00
C1225  C     0.97727   0.68051   0.75335   0.00000  Uiso   1.00
C1226  C     0.68706   0.83599   0.84110   0.00000  Uiso   1.00
H1227  H     0.69149   0.75995   0.60020   0.00000  Uiso   1.00
H1228  H     0.83739   0.87537   0.78614   0.00000  Uiso   1.00
H1229  H     0.78739   0.96378   0.51197   0.00000  Uiso   1.00
H1230  H     0.87933   0.70289   0.98800   0.00000  Uiso   1.00
H1231  H     0.98576   0.94625   0.60308   0.00000  Uiso   1.00
H1232  H     0.95143   0.69121   0.64564   0.00000  Uiso   1.00
H1233  H     0.85433   0.68755   0.67843   0.00000  Uiso   1.00
H1234  H     0.79106   0.93847   0.66852   0.00000  Uiso   1.00
H1235  H     0.82419   0.85996   0.62535   0.00000  Uiso   1.00
H1236  H     0.84245   0.80664   0.87460   0.00000  Uiso   1.00
H1237  H     0.87551   0.72809   0.83143   0.00000  Uiso   1.00
H1238  H     0.97519   0.90672   0.89981   0.00000  Uiso   1.00
H1239  H     0.81219   0.97904   0.82157   0.00000  Uiso   1.00
H1240  H     0.71511   0.97544   0.85440   0.00000  Uiso   1.00
H1241  H     0.68086   0.72043   0.89696   0.00000  Uiso   1.00
H1242  H     0.69320   0.94905   0.97130   0.00000  Uiso   1.00
H1243  H     0.97351   0.71762   0.52869   0.00000  Uiso   1.00
H1244  H     0.87849   0.93287   0.53334   0.00000  Uiso   1.00
H1245  H     0.78823   0.73379   0.96663   0.00000  Uiso   1.00
H1246  H     0.73206   0.66998   0.73988   0.00000  Uiso   1.00
H1247  H     0.93461   0.99668   0.76011   0.00000  Uiso   1.00
H1248  H     0.82927   0.79130   0.71386   0.00000  Uiso   1.00
N1249  N     0.81362   0.81883   0.73740   0.00000  Uiso   1.00
N1250  N     0.85305   0.84784   0.76261   0.00000  Uiso   1.00
O1251  O     0.96386   0.91298   0.75310   0.00000  Uiso   1.00
O1252  O     0.70281   0.75369   0.74691   0.00000  Uiso   1.00
O1253  O     0.72488   0.90368   0.74502   0.00000  Uiso   1.00
O1254  O     0.94178   0.76298   0.75499   0.00000  Uiso   1.00
O1255  O     0.96995   0.84063   0.82247   0.00000  Uiso   1.00
O1256  O     0.69672   0.82603   0.67753   0.00000  Uiso   1.00
O1257  O     0.73098   0.83134   0.81439   0.00000  Uiso   1.00
O1258  O     0.93569   0.83533   0.68561   0.00000  Uiso   1.00
Zn1259 Zn    0.93700   0.83954   0.75540   0.00000  Uiso   1.00
Zn1260 Zn    0.72967   0.82713   0.74461   0.00000  Uiso   1.00
loop_
_geom_bond_atom_site_label_1
_geom_bond_atom_site_label_2
_geom_bond_distance
_geom_bond_site_symmetry_2
_ccdc_geom_bond_type
C1     C34     1.396   .     S
C1     O63     1.287   .     A
C1     O201    1.272   1_455 S
C2     C4      1.453   .     S
C2     O68     1.296   .     A
C2     O136    1.289   .     S
C3     C9      1.409   .     A
C3     C36     1.453   .     S
C3     C7      1.398   .     A
C4     C10     1.409   .     A
C4     C8      1.398   .     A
C5     H52     1.084   .     S
C5     C14     1.396   .     A
C5     C7      1.383   .     A
C6     C15     1.396   .     A
C6     H53     1.084   .     S
C6     C8      1.383   .     A
C7     H188    1.084   1_455 S
C8     H107    1.084   .     S
C9     C25     1.492   .     S
C9     C11     1.423   .     A
C10    C18     1.492   .     S
C10    C13     1.423   .     A
C11    C14     1.423   .     A
C11    C16     1.423   .     A
C12    C35     1.396   .     S
C12    O64     1.287   .     A
C12    O132    1.272   .     S
C13    C17     1.423   .     A
C13    C15     1.423   .     A
C14    C662    1.390   .     S
C15    C663    1.390   1_554 S
C16    C31     1.410   .     A
C16    C647    1.420   .     S
C17    C23     1.409   .     A
C17    C646    1.420   1_554 S
C18    C24     1.408   .     A
C18    C19     1.405   .     A
C19    C20     1.398   .     A
C19    H41     1.083   .     S
C20    C21     1.398   .     A
C20    H252    1.082   .     S
C21    C22     1.398   .     A
C21    H253    1.083   .     S
C22    H44     1.082   .     S
C22    C24     1.398   .     A
C23    C32     1.383   .     A
C23    H54     1.077   .     S
C24    H45     1.083   .     S
C25    C30     1.405   .     A
C25    C26     1.408   .     A
C26    C27     1.398   .     A
C26    H46     1.083   .     S
C27    H47     1.082   .     S
C27    C28     1.398   .     A
C28    C29     1.398   .     A
C28    H469    1.083   1_545 S
C29    C30     1.398   .     A
C29    H470    1.082   1_545 S
C30    H51     1.083   .     S
C31    C33     1.383   .     A
C31    H55     1.077   .     S
C32    H39     1.085   .     S
C32    C644    1.390   1_554 S
C33    H40     1.085   .     S
C33    C645    1.390   .     S
C34    C385    1.339   1_455 S
C34    H266    1.088   .     S
C35    C524    1.339   1_545 S
C35    H477    1.088   1_545 S
C36    O67     1.296   .     A
C36    O205    1.289   1_455 S
H37    C148    1.084   1_455 S
H38    N60     1.029   .     S
H42    C440    1.082   1_545 S
H43    C441    1.083   1_545 S
H48    C77     1.084   .     S
H49    C238    1.083   .     S
H50    C239    1.082   .     S
H56    C454    1.088   1_545 S
H57    C245    1.088   .     S
H58    N59     1.029   .     S
N59    N60     1.296   .     D
N59    Zn70    2.014   .     S
N60    Zn69    2.014   .     S
O61    Zn69    1.939   .     S
O61    C71     1.272   .     S
O62    Zn70    1.939   .     S
O62    C152    1.272   1_455 S
O63    Zn70    1.969   .     S
O64    Zn69    1.969   .     S
O65    Zn69    1.968   .     S
O65    C106    1.289   .     S
O66    Zn70    1.968   .     S
O66    C142    1.289   1_455 S
O67    Zn70    1.911   .     S
O68    Zn69    1.911   .     S
C71    C104    1.396   .     S
C71    O133    1.287   .     A
C72    C74     1.453   .     S
C72    O138    1.296   .     A
C72    O206    1.289   .     S
C73    C79     1.409   .     A
C73    C106    1.453   .     S
C73    C77     1.398   .     A
C74    C80     1.409   .     A
C74    C78     1.398   .     A
C75    H122    1.084   .     S
C75    C84     1.396   .     A
C75    C77     1.383   .     A
C76    C85     1.396   .     A
C76    H123    1.084   .     S
C76    C78     1.383   .     A
C78    H177    1.084   .     S
C79    C95     1.492   .     S
C79    C81     1.423   .     A
C80    C88     1.492   .     S
C80    C83     1.423   .     A
C81    C84     1.423   .     A
C81    C86     1.423   .     A
C82    C105    1.396   .     S
C82    O134    1.287   .     A
C82    O202    1.272   .     S
C83    C87     1.423   .     A
C83    C85     1.423   .     A
C84    C732    1.390   .     S
C85    C733    1.390   1_554 S
C86    C101    1.410   .     A
C86    C717    1.420   .     S
C87    C93     1.409   .     A
C87    C716    1.420   1_554 S
C88    C94     1.408   .     A
C88    C89     1.405   .     A
C89    C90     1.398   .     A
C89    H111    1.083   .     S
C90    C91     1.398   .     A
C90    H322    1.082   .     S
C91    C92     1.398   .     A
C91    H323    1.083   .     S
C92    H114    1.082   .     S
C92    C94     1.398   .     A
C93    C102    1.383   .     A
C93    H124    1.077   .     S
C94    H115    1.083   .     S
C95    C100    1.405   .     A
C95    C96     1.408   .     A
C96    C97     1.398   .     A
C96    H116    1.083   .     S
C97    H117    1.082   .     S
C97    C98     1.398   .     A
C98    C99     1.398   .     A
C98    H539    1.083   1_545 S
C99    C100    1.398   .     A
C99    H540    1.082   1_545 S
C100   H121    1.083   .     S
C101   C103    1.383   .     A
C101   H125    1.077   .     S
C102   H109    1.085   .     S
C102   C714    1.390   1_554 S
C103   H110    1.085   .     S
C103   C715    1.390   .     S
C104   C245    1.339   .     S
C104   H336    1.088   .     S
C105   C594    1.339   1_545 S
C105   H547    1.088   1_545 S
C106   O137    1.296   .     A
H108   N130    1.029   .     S
H112   C510    1.082   1_545 S
H113   C511    1.083   1_545 S
H118   C147    1.084   .     S
H119   C308    1.083   .     S
H120   C309    1.082   .     S
H126   C524    1.088   1_545 S
H127   C315    1.088   .     S
H128   N129    1.029   .     S
N129   N130    1.296   .     D
N129   Zn140   2.014   .     S
N130   Zn139   2.014   .     S
O131   Zn139   1.939   .     S
O131   C141    1.272   .     S
O132   Zn140   1.939   .     S
O133   Zn140   1.969   .     S
O134   Zn139   1.969   .     S
O135   Zn139   1.968   .     S
O135   C176    1.289   .     S
O136   Zn140   1.968   .     S
O137   Zn140   1.911   .     S
O138   Zn139   1.911   .     S
C141   C174    1.396   .     S
C141   O203    1.287   .     A
C142   C144    1.453   .     S
C142   O208    1.296   .     A
C142   O66     1.289   1_655 S
C143   C149    1.409   .     A
C143   C176    1.453   .     S
C143   C147    1.398   .     A
C144   C150    1.409   .     A
C144   C148    1.398   .     A
C145   H192    1.084   .     S
C145   C154    1.396   .     A
C145   C147    1.383   .     A
C146   C155    1.396   .     A
C146   H193    1.084   .     S
C146   C148    1.383   .     A
C148   H37     1.084   1_655 S
C149   C165    1.492   .     S
C149   C151    1.423   .     A
C150   C158    1.492   .     S
C150   C153    1.423   .     A
C151   C154    1.423   .     A
C151   C156    1.423   .     A
C152   C175    1.396   .     S
C152   O204    1.287   .     A
C152   O62     1.272   1_655 S
C153   C157    1.423   .     A
C153   C155    1.423   .     A
C154   C802    1.390   .     S
C155   C803    1.390   1_554 S
C156   C171    1.410   .     A
C156   C787    1.420   .     S
C157   C163    1.409   .     A
C157   C786    1.420   1_554 S
C158   C164    1.408   .     A
C158   C159    1.405   .     A
C159   C160    1.398   .     A
C159   H181    1.083   .     S
C160   C161    1.398   .     A
C160   H392    1.082   .     S
C161   C162    1.398   .     A
C161   H393    1.083   .     S
C162   H184    1.082   .     S
C162   C164    1.398   .     A
C163   C172    1.383   .     A
C163   H194    1.077   .     S
C164   H185    1.083   .     S
C165   C170    1.405   .     A
C165   C166    1.408   .     A
C166   C167    1.398   .     A
C166   H186    1.083   .     S
C167   H187    1.082   .     S
C167   C168    1.398   .     A
C168   C169    1.398   .     A
C168   H609    1.083   1_545 S
C169   C170    1.398   .     A
C169   H610    1.082   1_545 S
C170   H191    1.083   .     S
C171   C173    1.383   .     A
C171   H195    1.077   .     S
C172   H179    1.085   .     S
C172   C784    1.390   1_554 S
C173   H180    1.085   .     S
C173   C785    1.390   .     S
C174   C315    1.339   .     S
C174   H406    1.088   .     S
C175   C454    1.339   1_645 S
C175   H617    1.088   1_545 S
C176   O207    1.296   .     A
H178   N200    1.029   .     S
H182   C580    1.082   1_545 S
H183   C581    1.083   1_545 S
H188   C7      1.084   1_655 S
H189   C378    1.083   .     S
H190   C379    1.082   .     S
H196   C594    1.088   1_545 S
H197   C385    1.088   .     S
H198   N199    1.029   .     S
N199   N200    1.296   .     D
N199   Zn210   2.014   .     S
N200   Zn209   2.014   .     S
O201   Zn209   1.939   .     S
O201   C1      1.272   1_655 S
O202   Zn210   1.939   .     S
O203   Zn210   1.969   .     S
O204   Zn209   1.969   .     S
O205   Zn209   1.968   .     S
O205   C36     1.289   1_655 S
O206   Zn210   1.968   .     S
O207   Zn210   1.911   .     S
O208   Zn209   1.911   .     S
C211   C244    1.396   .     S
C211   O273    1.287   .     A
C211   O411    1.272   1_455 S
C212   C214    1.453   .     S
C212   O278    1.296   .     A
C212   O346    1.289   .     S
C213   C219    1.409   .     A
C213   C246    1.453   .     S
C213   C217    1.398   .     A
C214   C220    1.409   .     A
C214   C218    1.398   .     A
C215   H262    1.084   .     S
C215   C224    1.396   .     A
C215   C217    1.383   .     A
C216   C225    1.396   .     A
C216   H263    1.084   .     S
C216   C218    1.383   .     A
C217   H398    1.084   1_455 S
C218   H317    1.084   .     S
C219   C235    1.492   .     S
C219   C221    1.423   .     A
C220   C228    1.492   .     S
C220   C223    1.423   .     A
C221   C224    1.423   .     A
C221   C226    1.423   .     A
C222   C245    1.396   .     S
C222   O274    1.287   .     A
C222   O342    1.272   .     S
C223   C227    1.423   .     A
C223   C225    1.423   .     A
C224   C872    1.390   .     S
C225   C873    1.390   1_554 S
C226   C241    1.410   .     A
C226   C857    1.420   .     S
C227   C233    1.409   .     A
C227   C856    1.420   1_554 S
C228   C234    1.408   .     A
C228   C229    1.405   .     A
C229   C230    1.398   .     A
C229   H251    1.083   .     S
C230   C231    1.398   .     A
C230   H462    1.082   .     S
C231   C232    1.398   .     A
C231   H463    1.083   .     S
C232   H254    1.082   .     S
C232   C234    1.398   .     A
C233   C242    1.383   .     A
C233   H264    1.077   .     S
C234   H255    1.083   .     S
C235   C240    1.405   .     A
C235   C236    1.408   .     A
C236   C237    1.398   .     A
C236   H256    1.083   .     S
C237   H257    1.082   .     S
C237   C238    1.398   .     A
C238   C239    1.398   .     A
C239   C240    1.398   .     A
C240   H261    1.083   .     S
C241   C243    1.383   .     A
C241   H265    1.077   .     S
C242   H249    1.085   .     S
C242   C854    1.390   1_554 S
C243   H250    1.085   .     S
C243   C855    1.390   .     S
C244   C595    1.339   1_455 S
C244   H476    1.088   .     S
C246   O277    1.296   .     A
C246   O415    1.289   1_455 S
H247   C358    1.084   1_455 S
H248   N270    1.029   .     S
H258   C287    1.084   .     S
H259   C448    1.083   .     S
H260   C449    1.082   .     S
H267   C455    1.088   .     S
H268   N269    1.029   .     S
N269   N270    1.296   .     D
N269   Zn280   2.014   .     S
N270   Zn279   2.014   .     S
O271   Zn279   1.939   .     S
O271   C281    1.272   .     S
O272   Zn280   1.939   .     S
O272   C362    1.272   1_455 S
O273   Zn280   1.969   .     S
O274   Zn279   1.969   .     S
O275   Zn279   1.968   .     S
O275   C316    1.289   .     S
O276   Zn280   1.968   .     S
O276   C352    1.289   1_455 S
O277   Zn280   1.911   .     S
O278   Zn279   1.911   .     S
C281   C314    1.396   .     S
C281   O343    1.287   .     A
C282   C284    1.453   .     S
C282   O348    1.296   .     A
C282   O416    1.289   .     S
C283   C289    1.409   .     A
C283   C316    1.453   .     S
C283   C287    1.398   .     A
C284   C290    1.409   .     A
C284   C288    1.398   .     A
C285   H332    1.084   .     S
C285   C294    1.396   .     A
C285   C287    1.383   .     A
C286   C295    1.396   .     A
C286   H333    1.084   .     S
C286   C288    1.383   .     A
C288   H387    1.084   .     S
C289   C305    1.492   .     S
C289   C291    1.423   .     A
C290   C298    1.492   .     S
C290   C293    1.423   .     A
C291   C294    1.423   .     A
C291   C296    1.423   .     A
C292   C315    1.396   .     S
C292   O344    1.287   .     A
C292   O412    1.272   .     S
C293   C297    1.423   .     A
C293   C295    1.423   .     A
C294   C942    1.390   .     S
C295   C943    1.390   1_554 S
C296   C311    1.410   .     A
C296   C927    1.420   .     S
C297   C303    1.409   .     A
C297   C926    1.420   1_554 S
C298   C304    1.408   .     A
C298   C299    1.405   .     A
C299   C300    1.398   .     A
C299   H321    1.083   .     S
C300   C301    1.398   .     A
C300   H532    1.082   .     S
C301   C302    1.398   .     A
C301   H533    1.083   .     S
C302   H324    1.082   .     S
C302   C304    1.398   .     A
C303   C312    1.383   .     A
C303   H334    1.077   .     S
C304   H325    1.083   .     S
C305   C310    1.405   .     A
C305   C306    1.408   .     A
C306   C307    1.398   .     A
C306   H326    1.083   .     S
C307   H327    1.082   .     S
C307   C308    1.398   .     A
C308   C309    1.398   .     A
C309   C310    1.398   .     A
C310   H331    1.083   .     S
C311   C313    1.383   .     A
C311   H335    1.077   .     S
C312   H319    1.085   .     S
C312   C924    1.390   1_554 S
C313   H320    1.085   .     S
C313   C925    1.390   .     S
C314   C455    1.339   .     S
C314   H546    1.088   .     S
C316   O347    1.296   .     A
H318   N340    1.029   .     S
H328   C357    1.084   .     S
H329   C518    1.083   .     S
H330   C519    1.082   .     S
H337   C525    1.088   .     S
H338   N339    1.029   .     S
N339   N340    1.296   .     D
N339   Zn350   2.014   .     S
N340   Zn349   2.014   .     S
O341   Zn349   1.939   .     S
O341   C351    1.272   .     S
O342   Zn350   1.939   .     S
O343   Zn350   1.969   .     S
O344   Zn349   1.969   .     S
O345   Zn349   1.968   .     S
O345   C386    1.289   .     S
O346   Zn350   1.968   .     S
O347   Zn350   1.911   .     S
O348   Zn349   1.911   .     S
C351   C384    1.396   .     S
C351   O413    1.287   .     A
C352   C354    1.453   .     S
C352   O418    1.296   .     A
C352   O276    1.289   1_655 S
C353   C359    1.409   .     A
C353   C386    1.453   .     S
C353   C357    1.398   .     A
C354   C360    1.409   .     A
C354   C358    1.398   .     A
C355   H402    1.084   .     S
C355   C364    1.396   .     A
C355   C357    1.383   .     A
C356   C365    1.396   .     A
C356   H403    1.084   .     S
C356   C358    1.383   .     A
C358   H247    1.084   1_655 S
C359   C375    1.492   .     S
C359   C361    1.423   .     A
C360   C368    1.492   .     S
C360   C363    1.423   .     A
C361   C364    1.423   .     A
C361   C366    1.423   .     A
C362   C385    1.396   .     S
C362   O414    1.287   .     A
C362   O272    1.272   1_655 S
C363   C367    1.423   .     A
C363   C365    1.423   .     A
C364   C1012   1.390   .     S
C365   C1013   1.390   1_554 S
C366   C381    1.410   .     A
C366   C997    1.420   .     S
C367   C373    1.409   .     A
C367   C996    1.420   1_554 S
C368   C374    1.408   .     A
C368   C369    1.405   .     A
C369   C370    1.398   .     A
C369   H391    1.083   .     S
C370   C371    1.398   .     A
C370   H602    1.082   .     S
C371   C372    1.398   .     A
C371   H603    1.083   .     S
C372   H394    1.082   .     S
C372   C374    1.398   .     A
C373   C382    1.383   .     A
C373   H404    1.077   .     S
C374   H395    1.083   .     S
C375   C380    1.405   .     A
C375   C376    1.408   .     A
C376   C377    1.398   .     A
C376   H396    1.083   .     S
C377   H397    1.082   .     S
C377   C378    1.398   .     A
C378   C379    1.398   .     A
C379   C380    1.398   .     A
C380   H401    1.083   .     S
C381   C383    1.383   .     A
C381   H405    1.077   .     S
C382   H389    1.085   .     S
C382   C994    1.390   1_554 S
C383   H390    1.085   .     S
C383   C995    1.390   .     S
C384   C525    1.339   .     S
C384   H616    1.088   .     S
C385   C34     1.339   1_655 S
C386   O417    1.296   .     A
H388   N410    1.029   .     S
H398   C217    1.084   1_655 S
H399   C588    1.083   .     S
H400   C589    1.082   .     S
H407   C595    1.088   .     S
H408   N409    1.029   .     S
N409   N410    1.296   .     D
N409   Zn420   2.014   .     S
N410   Zn419   2.014   .     S
O411   Zn419   1.939   .     S
O411   C211    1.272   1_655 S
O412   Zn420   1.939   .     S
O413   Zn420   1.969   .     S
O414   Zn419   1.969   .     S
O415   Zn419   1.968   .     S
O415   C246    1.289   1_655 S
O416   Zn420   1.968   .     S
O417   Zn420   1.911   .     S
O418   Zn419   1.911   .     S
C421   C454    1.396   .     S
C421   O483    1.287   .     A
C421   O621    1.272   1_455 S
C422   C424    1.453   .     S
C422   O488    1.296   .     A
C422   O556    1.289   .     S
C423   C429    1.409   .     A
C423   C456    1.453   .     S
C423   C427    1.398   .     A
C424   C430    1.409   .     A
C424   C428    1.398   .     A
C425   H472    1.084   .     S
C425   C434    1.396   .     A
C425   C427    1.383   .     A
C426   C435    1.396   .     A
C426   H473    1.084   .     S
C426   C428    1.383   .     A
C427   H608    1.084   1_455 S
C428   H527    1.084   .     S
C429   C445    1.492   .     S
C429   C431    1.423   .     A
C430   C438    1.492   .     S
C430   C433    1.423   .     A
C431   C434    1.423   .     A
C431   C436    1.423   .     A
C432   C455    1.396   .     S
C432   O484    1.287   .     A
C432   O552    1.272   .     S
C433   C437    1.423   .     A
C433   C435    1.423   .     A
C434   C1082   1.390   .     S
C435   C1083   1.390   1_554 S
C436   C451    1.410   .     A
C436   C1067   1.420   .     S
C437   C443    1.409   .     A
C437   C1066   1.420   1_554 S
C438   C444    1.408   .     A
C438   C439    1.405   .     A
C439   C440    1.398   .     A
C439   H461    1.083   .     S
C440   C441    1.398   .     A
C440   H42     1.082   1_565 S
C441   C442    1.398   .     A
C441   H43     1.083   1_565 S
C442   H464    1.082   .     S
C442   C444    1.398   .     A
C443   C452    1.383   .     A
C443   H474    1.077   .     S
C444   H465    1.083   .     S
C445   C450    1.405   .     A
C445   C446    1.408   .     A
C446   C447    1.398   .     A
C446   H466    1.083   .     S
C447   H467    1.082   .     S
C447   C448    1.398   .     A
C448   C449    1.398   .     A
C449   C450    1.398   .     A
C450   H471    1.083   .     S
C451   C453    1.383   .     A
C451   H475    1.077   .     S
C452   H459    1.085   .     S
C452   C1064   1.390   1_554 S
C453   H460    1.085   .     S
C453   C1065   1.390   .     S
C454   C175    1.339   1_465 S
C454   H56     1.088   1_565 S
C456   O487    1.296   .     A
C456   O625    1.289   1_455 S
H457   C568    1.084   1_455 S
H458   N480    1.029   .     S
H468   C497    1.084   .     S
H469   C28     1.083   1_565 S
H470   C29     1.082   1_565 S
H477   C35     1.088   1_565 S
H478   N479    1.029   .     S
N479   N480    1.296   .     D
N479   Zn490   2.014   .     S
N480   Zn489   2.014   .     S
O481   Zn489   1.939   .     S
O481   C491    1.272   .     S
O482   Zn490   1.939   .     S
O482   C572    1.272   1_455 S
O483   Zn490   1.969   .     S
O484   Zn489   1.969   .     S
O485   Zn489   1.968   .     S
O485   C526    1.289   .     S
O486   Zn490   1.968   .     S
O486   C562    1.289   1_455 S
O487   Zn490   1.911   .     S
O488   Zn489   1.911   .     S
C491   C524    1.396   .     S
C491   O553    1.287   .     A
C492   C494    1.453   .     S
C492   O558    1.296   .     A
C492   O626    1.289   .     S
C493   C499    1.409   .     A
C493   C526    1.453   .     S
C493   C497    1.398   .     A
C494   C500    1.409   .     A
C494   C498    1.398   .     A
C495   H542    1.084   .     S
C495   C504    1.396   .     A
C495   C497    1.383   .     A
C496   C505    1.396   .     A
C496   H543    1.084   .     S
C496   C498    1.383   .     A
C498   H597    1.084   .     S
C499   C515    1.492   .     S
C499   C501    1.423   .     A
C500   C508    1.492   .     S
C500   C503    1.423   .     A
C501   C504    1.423   .     A
C501   C506    1.423   .     A
C502   C525    1.396   .     S
C502   O554    1.287   .     A
C502   O622    1.272   .     S
C503   C507    1.423   .     A
C503   C505    1.423   .     A
C504   C1152   1.390   .     S
C505   C1153   1.390   1_554 S
C506   C521    1.410   .     A
C506   C1137   1.420   .     S
C507   C513    1.409   .     A
C507   C1136   1.420   1_554 S
C508   C514    1.408   .     A
C508   C509    1.405   .     A
C509   C510    1.398   .     A
C509   H531    1.083   .     S
C510   C511    1.398   .     A
C510   H112    1.082   1_565 S
C511   C512    1.398   .     A
C511   H113    1.083   1_565 S
C512   H534    1.082   .     S
C512   C514    1.398   .     A
C513   C522    1.383   .     A
C513   H544    1.077   .     S
C514   H535    1.083   .     S
C515   C520    1.405   .     A
C515   C516    1.408   .     A
C516   C517    1.398   .     A
C516   H536    1.083   .     S
C517   H537    1.082   .     S
C517   C518    1.398   .     A
C518   C519    1.398   .     A
C519   C520    1.398   .     A
C520   H541    1.083   .     S
C521   C523    1.383   .     A
C521   H545    1.077   .     S
C522   H529    1.085   .     S
C522   C1134   1.390   1_554 S
C523   H530    1.085   .     S
C523   C1135   1.390   .     S
C524   C35     1.339   1_565 S
C524   H126    1.088   1_565 S
C526   O557    1.296   .     A
H528   N550    1.029   .     S
H538   C567    1.084   .     S
H539   C98     1.083   1_565 S
H540   C99     1.082   1_565 S
H547   C105    1.088   1_565 S
H548   N549    1.029   .     S
N549   N550    1.296   .     D
N549   Zn560   2.014   .     S
N550   Zn559   2.014   .     S
O551   Zn559   1.939   .     S
O551   C561    1.272   .     S
O552   Zn560   1.939   .     S
O553   Zn560   1.969   .     S
O554   Zn559   1.969   .     S
O555   Zn559   1.968   .     S
O555   C596    1.289   .     S
O556   Zn560   1.968   .     S
O557   Zn560   1.911   .     S
O558   Zn559   1.911   .     S
C561   C594    1.396   .     S
C561   O623    1.287   .     A
C562   C564    1.453   .     S
C562   O628    1.296   .     A
C562   O486    1.289   1_655 S
C563   C569    1.409   .     A
C563   C596    1.453   .     S
C563   C567    1.398   .     A
C564   C570    1.409   .     A
C564   C568    1.398   .     A
C565   H612    1.084   .     S
C565   C574    1.396   .     A
C565   C567    1.383   .     A
C566   C575    1.396   .     A
C566   H613    1.084   .     S
C566   C568    1.383   .     A
C568   H457    1.084   1_655 S
C569   C585    1.492   .     S
C569   C571    1.423   .     A
C570   C578    1.492   .     S
C570   C573    1.423   .     A
C571   C574    1.423   .     A
C571   C576    1.423   .     A
C572   C595    1.396   .     S
C572   O624    1.287   .     A
C572   O482    1.272   1_655 S
C573   C577    1.423   .     A
C573   C575    1.423   .     A
C574   C1222   1.390   .     S
C575   C1223   1.390   1_554 S
C576   C591    1.410   .     A
C576   C1207   1.420   .     S
C577   C583    1.409   .     A
C577   C1206   1.420   1_554 S
C578   C584    1.408   .     A
C578   C579    1.405   .     A
C579   C580    1.398   .     A
C579   H601    1.083   .     S
C580   C581    1.398   .     A
C580   H182    1.082   1_565 S
C581   C582    1.398   .     A
C581   H183    1.083   1_565 S
C582   H604    1.082   .     S
C582   C584    1.398   .     A
C583   C592    1.383   .     A
C583   H614    1.077   .     S
C584   H605    1.083   .     S
C585   C590    1.405   .     A
C585   C586    1.408   .     A
C586   C587    1.398   .     A
C586   H606    1.083   .     S
C587   H607    1.082   .     S
C587   C588    1.398   .     A
C588   C589    1.398   .     A
C589   C590    1.398   .     A
C590   H611    1.083   .     S
C591   C593    1.383   .     A
C591   H615    1.077   .     S
C592   H599    1.085   .     S
C592   C1204   1.390   1_554 S
C593   H600    1.085   .     S
C593   C1205   1.390   .     S
C594   C105    1.339   1_565 S
C594   H196    1.088   1_565 S
C595   C244    1.339   1_655 S
C596   O627    1.296   .     A
H598   N620    1.029   .     S
H608   C427    1.084   1_655 S
H609   C168    1.083   1_565 S
H610   C169    1.082   1_565 S
H617   C175    1.088   1_565 S
H618   N619    1.029   .     S
N619   N620    1.296   .     D
N619   Zn630   2.014   .     S
N620   Zn629   2.014   .     S
O621   Zn629   1.939   .     S
O621   C421    1.272   1_655 S
O622   Zn630   1.939   .     S
O623   Zn630   1.969   .     S
O624   Zn629   1.969   .     S
O625   Zn629   1.968   .     S
O625   C456    1.289   1_655 S
O626   Zn630   1.968   .     S
O627   Zn630   1.911   .     S
O628   Zn629   1.911   .     S
C631   C664    1.396   .     S
C631   O693    1.287   .     A
C631   O831    1.272   1_455 S
C632   C634    1.453   .     S
C632   O698    1.296   .     A
C632   O766    1.289   .     S
C633   C639    1.409   .     A
C633   C666    1.453   .     S
C633   C637    1.398   .     A
C634   C640    1.409   .     A
C634   C638    1.398   .     A
C635   H682    1.084   .     S
C635   C644    1.396   .     A
C635   C637    1.383   .     A
C636   C645    1.396   .     A
C636   H683    1.084   .     S
C636   C638    1.383   .     A
C637   H818    1.084   1_455 S
C638   H737    1.084   .     S
C639   C655    1.492   .     S
C639   C641    1.423   .     A
C640   C648    1.492   .     S
C640   C643    1.423   .     A
C641   C644    1.423   .     A
C641   C646    1.423   .     A
C642   C665    1.396   .     S
C642   O694    1.287   .     A
C642   O762    1.272   .     S
C643   C647    1.423   .     A
C643   C645    1.423   .     A
C644   C32     1.390   1_556 S
C646   C661    1.410   .     A
C646   C17     1.420   1_556 S
C647   C653    1.409   .     A
C648   C654    1.408   .     A
C648   C649    1.405   .     A
C649   C650    1.398   .     A
C649   H671    1.083   .     S
C650   C651    1.398   .     A
C650   H882    1.082   .     S
C651   C652    1.398   .     A
C651   H883    1.083   .     S
C652   H674    1.082   .     S
C652   C654    1.398   .     A
C653   C662    1.383   .     A
C653   H684    1.077   .     S
C654   H675    1.083   .     S
C655   C660    1.405   .     A
C655   C656    1.408   .     A
C656   C657    1.398   .     A
C656   H676    1.083   .     S
C657   H677    1.082   .     S
C657   C658    1.398   .     A
C658   C659    1.398   .     A
C658   H1099   1.083   1_545 S
C659   C660    1.398   .     A
C659   H1100   1.082   1_545 S
C660   H681    1.083   .     S
C661   C663    1.383   .     A
C661   H685    1.077   .     S
C662   H669    1.085   .     S
C663   H670    1.085   .     S
C663   C15     1.390   1_556 S
C664   C1015   1.339   1_455 S
C664   H896    1.088   .     S
C665   C1154   1.339   1_545 S
C665   H1107   1.088   1_545 S
C666   O697    1.296   .     A
C666   O835    1.289   1_455 S
H667   C778    1.084   1_455 S
H668   N690    1.029   .     S
H672   C1070   1.082   1_545 S
H673   C1071   1.083   1_545 S
H678   C707    1.084   .     S
H679   C868    1.083   .     S
H680   C869    1.082   .     S
H686   C1084   1.088   1_545 S
H687   C875    1.088   .     S
H688   N689    1.029   .     S
N689   N690    1.296   .     D
N689   Zn700   2.014   .     S
N690   Zn699   2.014   .     S
O691   Zn699   1.939   .     S
O691   C701    1.272   .     S
O692   Zn700   1.939   .     S
O692   C782    1.272   1_455 S
O693   Zn700   1.969   .     S
O694   Zn699   1.969   .     S
O695   Zn699   1.968   .     S
O695   C736    1.289   .     S
O696   Zn700   1.968   .     S
O696   C772    1.289   1_455 S
O697   Zn700   1.911   .     S
O698   Zn699   1.911   .     S
C701   C734    1.396   .     S
C701   O763    1.287   .     A
C702   C704    1.453   .     S
C702   O768    1.296   .     A
C702   O836    1.289   .     S
C703   C709    1.409   .     A
C703   C736    1.453   .     S
C703   C707    1.398   .     A
C704   C710    1.409   .     A
C704   C708    1.398   .     A
C705   H752    1.084   .     S
C705   C714    1.396   .     A
C705   C707    1.383   .     A
C706   C715    1.396   .     A
C706   H753    1.084   .     S
C706   C708    1.383   .     A
C708   H807    1.084   .     S
C709   C725    1.492   .     S
C709   C711    1.423   .     A
C710   C718    1.492   .     S
C710   C713    1.423   .     A
C711   C714    1.423   .     A
C711   C716    1.423   .     A
C712   C735    1.396   .     S
C712   O764    1.287   .     A
C712   O832    1.272   .     S
C713   C717    1.423   .     A
C713   C715    1.423   .     A
C714   C102    1.390   1_556 S
C716   C731    1.410   .     A
C716   C87     1.420   1_556 S
C717   C723    1.409   .     A
C718   C724    1.408   .     A
C718   C719    1.405   .     A
C719   C720    1.398   .     A
C719   H741    1.083   .     S
C720   C721    1.398   .     A
C720   H952    1.082   .     S
C721   C722    1.398   .     A
C721   H953    1.083   .     S
C722   H744    1.082   .     S
C722   C724    1.398   .     A
C723   C732    1.383   .     A
C723   H754    1.077   .     S
C724   H745    1.083   .     S
C725   C730    1.405   .     A
C725   C726    1.408   .     A
C726   C727    1.398   .     A
C726   H746    1.083   .     S
C727   H747    1.082   .     S
C727   C728    1.398   .     A
C728   C729    1.398   .     A
C728   H1169   1.083   1_545 S
C729   C730    1.398   .     A
C729   H1170   1.082   1_545 S
C730   H751    1.083   .     S
C731   C733    1.383   .     A
C731   H755    1.077   .     S
C732   H739    1.085   .     S
C733   H740    1.085   .     S
C733   C85     1.390   1_556 S
C734   C875    1.339   .     S
C734   H966    1.088   .     S
C735   C1224   1.339   1_545 S
C735   H1177   1.088   1_545 S
C736   O767    1.296   .     A
H738   N760    1.029   .     S
H742   C1140   1.082   1_545 S
H743   C1141   1.083   1_545 S
H748   C777    1.084   .     S
H749   C938    1.083   .     S
H750   C939    1.082   .     S
H756   C1154   1.088   1_545 S
H757   C945    1.088   .     S
H758   N759    1.029   .     S
N759   N760    1.296   .     D
N759   Zn770   2.014   .     S
N760   Zn769   2.014   .     S
O761   Zn769   1.939   .     S
O761   C771    1.272   .     S
O762   Zn770   1.939   .     S
O763   Zn770   1.969   .     S
O764   Zn769   1.969   .     S
O765   Zn769   1.968   .     S
O765   C806    1.289   .     S
O766   Zn770   1.968   .     S
O767   Zn770   1.911   .     S
O768   Zn769   1.911   .     S
C771   C804    1.396   .     S
C771   O833    1.287   .     A
C772   C774    1.453   .     S
C772   O838    1.296   .     A
C772   O696    1.289   1_655 S
C773   C779    1.409   .     A
C773   C806    1.453   .     S
C773   C777    1.398   .     A
C774   C780    1.409   .     A
C774   C778    1.398   .     A
C775   H822    1.084   .     S
C775   C784    1.396   .     A
C775   C777    1.383   .     A
C776   C785    1.396   .     A
C776   H823    1.084   .     S
C776   C778    1.383   .     A
C778   H667    1.084   1_655 S
C779   C795    1.492   .     S
C779   C781    1.423   .     A
C780   C788    1.492   .     S
C780   C783    1.423   .     A
C781   C784    1.423   .     A
C781   C786    1.423   .     A
C782   C805    1.396   .     S
C782   O834    1.287   .     A
C782   O692    1.272   1_655 S
C783   C787    1.423   .     A
C783   C785    1.423   .     A
C784   C172    1.390   1_556 S
C786   C801    1.410   .     A
C786   C157    1.420   1_556 S
C787   C793    1.409   .     A
C788   C794    1.408   .     A
C788   C789    1.405   .     A
C789   C790    1.398   .     A
C789   H811    1.083   .     S
C790   C791    1.398   .     A
C790   H1022   1.082   .     S
C791   C792    1.398   .     A
C791   H1023   1.083   .     S
C792   H814    1.082   .     S
C792   C794    1.398   .     A
C793   C802    1.383   .     A
C793   H824    1.077   .     S
C794   H815    1.083   .     S
C795   C800    1.405   .     A
C795   C796    1.408   .     A
C796   C797    1.398   .     A
C796   H816    1.083   .     S
C797   H817    1.082   .     S
C797   C798    1.398   .     A
C798   C799    1.398   .     A
C798   H1239   1.083   1_545 S
C799   C800    1.398   .     A
C799   H1240   1.082   1_545 S
C800   H821    1.083   .     S
C801   C803    1.383   .     A
C801   H825    1.077   .     S
C802   H809    1.085   .     S
C803   H810    1.085   .     S
C803   C155    1.390   1_556 S
C804   C945    1.339   .     S
C804   H1036   1.088   .     S
C805   C1084   1.339   1_645 S
C805   H1247   1.088   1_545 S
C806   O837    1.296   .     A
H808   N830    1.029   .     S
H812   C1210   1.082   1_545 S
H813   C1211   1.083   1_545 S
H818   C637    1.084   1_655 S
H819   C1008   1.083   .     S
H820   C1009   1.082   .     S
H826   C1224   1.088   1_545 S
H827   C1015   1.088   .     S
H828   N829    1.029   .     S
N829   N830    1.296   .     D
N829   Zn840   2.014   .     S
N830   Zn839   2.014   .     S
O831   Zn839   1.939   .     S
O831   C631    1.272   1_655 S
O832   Zn840   1.939   .     S
O833   Zn840   1.969   .     S
O834   Zn839   1.969   .     S
O835   Zn839   1.968   .     S
O835   C666    1.289   1_655 S
O836   Zn840   1.968   .     S
O837   Zn840   1.911   .     S
O838   Zn839   1.911   .     S
C841   C874    1.396   .     S
C841   O903    1.287   .     A
C841   O1041   1.272   1_455 S
C842   C844    1.453   .     S
C842   O908    1.296   .     A
C842   O976    1.289   .     S
C843   C849    1.409   .     A
C843   C876    1.453   .     S
C843   C847    1.398   .     A
C844   C850    1.409   .     A
C844   C848    1.398   .     A
C845   H892    1.084   .     S
C845   C854    1.396   .     A
C845   C847    1.383   .     A
C846   C855    1.396   .     A
C846   H893    1.084   .     S
C846   C848    1.383   .     A
C847   H1028   1.084   1_455 S
C848   H947    1.084   .     S
C849   C865    1.492   .     S
C849   C851    1.423   .     A
C850   C858    1.492   .     S
C850   C853    1.423   .     A
C851   C854    1.423   .     A
C851   C856    1.423   .     A
C852   C875    1.396   .     S
C852   O904    1.287   .     A
C852   O972    1.272   .     S
C853   C857    1.423   .     A
C853   C855    1.423   .     A
C854   C242    1.390   1_556 S
C856   C871    1.410   .     A
C856   C227    1.420   1_556 S
C857   C863    1.409   .     A
C858   C864    1.408   .     A
C858   C859    1.405   .     A
C859   C860    1.398   .     A
C859   H881    1.083   .     S
C860   C861    1.398   .     A
C860   H1092   1.082   .     S
C861   C862    1.398   .     A
C861   H1093   1.083   .     S
C862   H884    1.082   .     S
C862   C864    1.398   .     A
C863   C872    1.383   .     A
C863   H894    1.077   .     S
C864   H885    1.083   .     S
C865   C870    1.405   .     A
C865   C866    1.408   .     A
C866   C867    1.398   .     A
C866   H886    1.083   .     S
C867   H887    1.082   .     S
C867   C868    1.398   .     A
C868   C869    1.398   .     A
C869   C870    1.398   .     A
C870   H891    1.083   .     S
C871   C873    1.383   .     A
C871   H895    1.077   .     S
C872   H879    1.085   .     S
C873   H880    1.085   .     S
C873   C225    1.390   1_556 S
C874   C1225   1.339   1_455 S
C874   H1106   1.088   .     S
C876   O907    1.296   .     A
C876   O1045   1.289   1_455 S
H877   C988    1.084   1_455 S
H878   N900    1.029   .     S
H888   C917    1.084   .     S
H889   C1078   1.083   .     S
H890   C1079   1.082   .     S
H897   C1085   1.088   .     S
H898   N899    1.029   .     S
N899   N900    1.296   .     D
N899   Zn910   2.014   .     S
N900   Zn909   2.014   .     S
O901   Zn909   1.939   .     S
O901   C911    1.272   .     S
O902   Zn910   1.939   .     S
O902   C992    1.272   1_455 S
O903   Zn910   1.969   .     S
O904   Zn909   1.969   .     S
O905   Zn909   1.968   .     S
O905   C946    1.289   .     S
O906   Zn910   1.968   .     S
O906   C982    1.289   1_455 S
O907   Zn910   1.911   .     S
O908   Zn909   1.911   .     S
C911   C944    1.396   .     S
C911   O973    1.287   .     A
C912   C914    1.453   .     S
C912   O978    1.296   .     A
C912   O1046   1.289   .     S
C913   C919    1.409   .     A
C913   C946    1.453   .     S
C913   C917    1.398   .     A
C914   C920    1.409   .     A
C914   C918    1.398   .     A
C915   H962    1.084   .     S
C915   C924    1.396   .     A
C915   C917    1.383   .     A
C916   C925    1.396   .     A
C916   H963    1.084   .     S
C916   C918    1.383   .     A
C918   H1017   1.084   .     S
C919   C935    1.492   .     S
C919   C921    1.423   .     A
C920   C928    1.492   .     S
C920   C923    1.423   .     A
C921   C924    1.423   .     A
C921   C926    1.423   .     A
C922   C945    1.396   .     S
C922   O974    1.287   .     A
C922   O1042   1.272   .     S
C923   C927    1.423   .     A
C923   C925    1.423   .     A
C924   C312    1.390   1_556 S
C926   C941    1.410   .     A
C926   C297    1.420   1_556 S
C927   C933    1.409   .     A
C928   C934    1.408   .     A
C928   C929    1.405   .     A
C929   C930    1.398   .     A
C929   H951    1.083   .     S
C930   C931    1.398   .     A
C930   H1162   1.082   .     S
C931   C932    1.398   .     A
C931   H1163   1.083   .     S
C932   H954    1.082   .     S
C932   C934    1.398   .     A
C933   C942    1.383   .     A
C933   H964    1.077   .     S
C934   H955    1.083   .     S
C935   C940    1.405   .     A
C935   C936    1.408   .     A
C936   C937    1.398   .     A
C936   H956    1.083   .     S
C937   H957    1.082   .     S
C937   C938    1.398   .     A
C938   C939    1.398   .     A
C939   C940    1.398   .     A
C940   H961    1.083   .     S
C941   C943    1.383   .     A
C941   H965    1.077   .     S
C942   H949    1.085   .     S
C943   H950    1.085   .     S
C943   C295    1.390   1_556 S
C944   C1085   1.339   .     S
C944   H1176   1.088   .     S
C946   O977    1.296   .     A
H948   N970    1.029   .     S
H958   C987    1.084   .     S
H959   C1148   1.083   .     S
H960   C1149   1.082   .     S
H967   C1155   1.088   .     S
H968   N969    1.029   .     S
N969   N970    1.296   .     D
N969   Zn980   2.014   .     S
N970   Zn979   2.014   .     S
O971   Zn979   1.939   .     S
O971   C981    1.272   .     S
O972   Zn980   1.939   .     S
O973   Zn980   1.969   .     S
O974   Zn979   1.969   .     S
O975   Zn979   1.968   .     S
O975   C1016   1.289   .     S
O976   Zn980   1.968   .     S
O977   Zn980   1.911   .     S
O978   Zn979   1.911   .     S
C981   C1014   1.396   .     S
C981   O1043   1.287   .     A
C982   C984    1.453   .     S
C982   O1048   1.296   .     A
C982   O906    1.289   1_655 S
C983   C989    1.409   .     A
C983   C1016   1.453   .     S
C983   C987    1.398   .     A
C984   C990    1.409   .     A
C984   C988    1.398   .     A
C985   H1032   1.084   .     S
C985   C994    1.396   .     A
C985   C987    1.383   .     A
C986   C995    1.396   .     A
C986   H1033   1.084   .     S
C986   C988    1.383   .     A
C988   H877    1.084   1_655 S
C989   C1005   1.492   .     S
C989   C991    1.423   .     A
C990   C998    1.492   .     S
C990   C993    1.423   .     A
C991   C994    1.423   .     A
C991   C996    1.423   .     A
C992   C1015   1.396   .     S
C992   O1044   1.287   .     A
C992   O902    1.272   1_655 S
C993   C997    1.423   .     A
C993   C995    1.423   .     A
C994   C382    1.390   1_556 S
C996   C1011   1.410   .     A
C996   C367    1.420   1_556 S
C997   C1003   1.409   .     A
C998   C1004   1.408   .     A
C998   C999    1.405   .     A
C999   C1000   1.398   .     A
C999   H1021   1.083   .     S
C1000  C1001   1.398   .     A
C1000  H1232   1.082   .     S
C1001  C1002   1.398   .     A
C1001  H1233   1.083   .     S
C1002  H1024   1.082   .     S
C1002  C1004   1.398   .     A
C1003  C1012   1.383   .     A
C1003  H1034   1.077   .     S
C1004  H1025   1.083   .     S
C1005  C1010   1.405   .     A
C1005  C1006   1.408   .     A
C1006  C1007   1.398   .     A
C1006  H1026   1.083   .     S
C1007  H1027   1.082   .     S
C1007  C1008   1.398   .     A
C1008  C1009   1.398   .     A
C1009  C1010   1.398   .     A
C1010  H1031   1.083   .     S
C1011  C1013   1.383   .     A
C1011  H1035   1.077   .     S
C1012  H1019   1.085   .     S
C1013  H1020   1.085   .     S
C1013  C365    1.390   1_556 S
C1014  C1155   1.339   .     S
C1014  H1246   1.088   .     S
C1015  C664    1.339   1_655 S
C1016  O1047   1.296   .     A
H1018  N1040   1.029   .     S
H1028  C847    1.084   1_655 S
H1029  C1218   1.083   .     S
H1030  C1219   1.082   .     S
H1037  C1225   1.088   .     S
H1038  N1039   1.029   .     S
N1039  N1040   1.296   .     D
N1039  Zn1050  2.014   .     S
N1040  Zn1049  2.014   .     S
O1041  Zn1049  1.939   .     S
O1041  C841    1.272   1_655 S
O1042  Zn1050  1.939   .     S
O1043  Zn1050  1.969   .     S
O1044  Zn1049  1.969   .     S
O1045  Zn1049  1.968   .     S
O1045  C876    1.289   1_655 S
O1046  Zn1050  1.968   .     S
O1047  Zn1050  1.911   .     S
O1048  Zn1049  1.911   .     S
C1051  C1084   1.396   .     S
C1051  O1113   1.287   .     A
C1051  O1251   1.272   1_455 S
C1052  C1054   1.453   .     S
C1052  O1118   1.296   .     A
C1052  O1186   1.289   .     S
C1053  C1059   1.409   .     A
C1053  C1086   1.453   .     S
C1053  C1057   1.398   .     A
C1054  C1060   1.409   .     A
C1054  C1058   1.398   .     A
C1055  H1102   1.084   .     S
C1055  C1064   1.396   .     A
C1055  C1057   1.383   .     A
C1056  C1065   1.396   .     A
C1056  H1103   1.084   .     S
C1056  C1058   1.383   .     A
C1057  H1238   1.084   1_455 S
C1058  H1157   1.084   .     S
C1059  C1075   1.492   .     S
C1059  C1061   1.423   .     A
C1060  C1068   1.492   .     S
C1060  C1063   1.423   .     A
C1061  C1064   1.423   .     A
C1061  C1066   1.423   .     A
C1062  C1085   1.396   .     S
C1062  O1114   1.287   .     A
C1062  O1182   1.272   .     S
C1063  C1067   1.423   .     A
C1063  C1065   1.423   .     A
C1064  C452    1.390   1_556 S
C1066  C1081   1.410   .     A
C1066  C437    1.420   1_556 S
C1067  C1073   1.409   .     A
C1068  C1074   1.408   .     A
C1068  C1069   1.405   .     A
C1069  C1070   1.398   .     A
C1069  H1091   1.083   .     S
C1070  C1071   1.398   .     A
C1070  H672    1.082   1_565 S
C1071  C1072   1.398   .     A
C1071  H673    1.083   1_565 S
C1072  H1094   1.082   .     S
C1072  C1074   1.398   .     A
C1073  C1082   1.383   .     A
C1073  H1104   1.077   .     S
C1074  H1095   1.083   .     S
C1075  C1080   1.405   .     A
C1075  C1076   1.408   .     A
C1076  C1077   1.398   .     A
C1076  H1096   1.083   .     S
C1077  H1097   1.082   .     S
C1077  C1078   1.398   .     A
C1078  C1079   1.398   .     A
C1079  C1080   1.398   .     A
C1080  H1101   1.083   .     S
C1081  C1083   1.383   .     A
C1081  H1105   1.077   .     S
C1082  H1089   1.085   .     S
C1083  H1090   1.085   .     S
C1083  C435    1.390   1_556 S
C1084  C805    1.339   1_465 S
C1084  H686    1.088   1_565 S
C1086  O1117   1.296   .     A
C1086  O1255   1.289   1_455 S
H1087  C1198   1.084   1_455 S
H1088  N1110   1.029   .     S
H1098  C1127   1.084   .     S
H1099  C658    1.083   1_565 S
H1100  C659    1.082   1_565 S
H1107  C665    1.088   1_565 S
H1108  N1109   1.029   .     S
N1109  N1110   1.296   .     D
N1109  Zn1120  2.014   .     S
N1110  Zn1119  2.014   .     S
O1111  Zn1119  1.939   .     S
O1111  C1121   1.272   .     S
O1112  Zn1120  1.939   .     S
O1112  C1202   1.272   1_455 S
O1113  Zn1120  1.969   .     S
O1114  Zn1119  1.969   .     S
O1115  Zn1119  1.968   .     S
O1115  C1156   1.289   .     S
O1116  Zn1120  1.968   .     S
O1116  C1192   1.289   1_455 S
O1117  Zn1120  1.911   .     S
O1118  Zn1119  1.911   .     S
C1121  C1154   1.396   .     S
C1121  O1183   1.287   .     A
C1122  C1124   1.453   .     S
C1122  O1188   1.296   .     A
C1122  O1256   1.289   .     S
C1123  C1129   1.409   .     A
C1123  C1156   1.453   .     S
C1123  C1127   1.398   .     A
C1124  C1130   1.409   .     A
C1124  C1128   1.398   .     A
C1125  H1172   1.084   .     S
C1125  C1134   1.396   .     A
C1125  C1127   1.383   .     A
C1126  C1135   1.396   .     A
C1126  H1173   1.084   .     S
C1126  C1128   1.383   .     A
C1128  H1227   1.084   .     S
C1129  C1145   1.492   .     S
C1129  C1131   1.423   .     A
C1130  C1138   1.492   .     S
C1130  C1133   1.423   .     A
C1131  C1134   1.423   .     A
C1131  C1136   1.423   .     A
C1132  C1155   1.396   .     S
C1132  O1184   1.287   .     A
C1132  O1252   1.272   .     S
C1133  C1137   1.423   .     A
C1133  C1135   1.423   .     A
C1134  C522    1.390   1_556 S
C1136  C1151   1.410   .     A
C1136  C507    1.420   1_556 S
C1137  C1143   1.409   .     A
C1138  C1144   1.408   .     A
C1138  C1139   1.405   .     A
C1139  C1140   1.398   .     A
C1139  H1161   1.083   .     S
C1140  C1141   1.398   .     A
C1140  H742    1.082   1_565 S
C1141  C1142   1.398   .     A
C1141  H743    1.083   1_565 S
C1142  H1164   1.082   .     S
C1142  C1144   1.398   .     A
C1143  C1152   1.383   .     A
C1143  H1174   1.077   .     S
C1144  H1165   1.083   .     S
C1145  C1150   1.405   .     A
C1145  C1146   1.408   .     A
C1146  C1147   1.398   .     A
C1146  H1166   1.083   .     S
C1147  H1167   1.082   .     S
C1147  C1148   1.398   .     A
C1148  C1149   1.398   .     A
C1149  C1150   1.398   .     A
C1150  H1171   1.083   .     S
C1151  C1153   1.383   .     A
C1151  H1175   1.077   .     S
C1152  H1159   1.085   .     S
C1153  H1160   1.085   .     S
C1153  C505    1.390   1_556 S
C1154  C665    1.339   1_565 S
C1154  H756    1.088   1_565 S
C1156  O1187   1.296   .     A
H1158  N1180   1.029   .     S
H1168  C1197   1.084   .     S
H1169  C728    1.083   1_565 S
H1170  C729    1.082   1_565 S
H1177  C735    1.088   1_565 S
H1178  N1179   1.029   .     S
N1179  N1180   1.296   .     D
N1179  Zn1190  2.014   .     S
N1180  Zn1189  2.014   .     S
O1181  Zn1189  1.939   .     S
O1181  C1191   1.272   .     S
O1182  Zn1190  1.939   .     S
O1183  Zn1190  1.969   .     S
O1184  Zn1189  1.969   .     S
O1185  Zn1189  1.968   .     S
O1185  C1226   1.289   .     S
O1186  Zn1190  1.968   .     S
O1187  Zn1190  1.911   .     S
O1188  Zn1189  1.911   .     S
C1191  C1224   1.396   .     S
C1191  O1253   1.287   .     A
C1192  C1194   1.453   .     S
C1192  O1258   1.296   .     A
C1192  O1116   1.289   1_655 S
C1193  C1199   1.409   .     A
C1193  C1226   1.453   .     S
C1193  C1197   1.398   .     A
C1194  C1200   1.409   .     A
C1194  C1198   1.398   .     A
C1195  H1242   1.084   .     S
C1195  C1204   1.396   .     A
C1195  C1197   1.383   .     A
C1196  C1205   1.396   .     A
C1196  H1243   1.084   .     S
C1196  C1198   1.383   .     A
C1198  H1087   1.084   1_655 S
C1199  C1215   1.492   .     S
C1199  C1201   1.423   .     A
C1200  C1208   1.492   .     S
C1200  C1203   1.423   .     A
C1201  C1204   1.423   .     A
C1201  C1206   1.423   .     A
C1202  C1225   1.396   .     S
C1202  O1254   1.287   .     A
C1202  O1112   1.272   1_655 S
C1203  C1207   1.423   .     A
C1203  C1205   1.423   .     A
C1204  C592    1.390   1_556 S
C1206  C1221   1.410   .     A
C1206  C577    1.420   1_556 S
C1207  C1213   1.409   .     A
C1208  C1214   1.408   .     A
C1208  C1209   1.405   .     A
C1209  C1210   1.398   .     A
C1209  H1231   1.083   .     S
C1210  C1211   1.398   .     A
C1210  H812    1.082   1_565 S
C1211  C1212   1.398   .     A
C1211  H813    1.083   1_565 S
C1212  H1234   1.082   .     S
C1212  C1214   1.398   .     A
C1213  C1222   1.383   .     A
C1213  H1244   1.077   .     S
C1214  H1235   1.083   .     S
C1215  C1220   1.405   .     A
C1215  C1216   1.408   .     A
C1216  C1217   1.398   .     A
C1216  H1236   1.083   .     S
C1217  H1237   1.082   .     S
C1217  C1218   1.398   .     A
C1218  C1219   1.398   .     A
C1219  C1220   1.398   .     A
C1220  H1241   1.083   .     S
C1221  C1223   1.383   .     A
C1221  H1245   1.077   .     S
C1222  H1229   1.085   .     S
C1223  H1230   1.085   .     S
C1223  C575    1.390   1_556 S
C1224  C735    1.339   1_565 S
C1224  H826    1.088   1_565 S
C1225  C874    1.339   1_655 S
C1226  O1257   1.296   .     A
H1228  N1250   1.029   .     S
H1238  C1057   1.084   1_655 S
H1239  C798    1.083   1_565 S
H1240  C799    1.082   1_565 S
H1247  C805    1.088   1_565 S
H1248  N1249   1.029   .     S
N1249  N1250   1.296   .     D
N1249  Zn1260  2.014   .     S
N1250  Zn1259  2.014   .     S
O1251  Zn1259  1.939   .     S
O1251  C1051   1.272   1_655 S
O1252  Zn1260  1.939   .     S
O1253  Zn1260  1.969   .     S
O1254  Zn1259  1.969   .     S
O1255  Zn1259  1.968   .     S
O1255  C1086   1.289   1_655 S
O1256  Zn1260  1.968   .     S
O1257  Zn1260  1.911   .     S
O1258  Zn1259  1.911   .     S
