data_str_m3_o10_o16_pcu_sym.3
_audit_creation_date              2020-01-03
_audit_creation_method            'Materials Studio'
_symmetry_space_group_name_H-M    'P1'
_symmetry_Int_Tables_number       1
_symmetry_cell_setting            triclinic
loop_
_symmetry_equiv_pos_as_xyz
  x,y,z
_cell_length_a                    23.4481
_cell_length_b                    25.7995
_cell_length_c                    24.3873
_cell_angle_alpha                 91.6606
_cell_angle_beta                  101.3884
_cell_angle_gamma                 94.4751
loop_
_atom_site_label
_atom_site_type_symbol
_atom_site_fract_x
_atom_site_fract_y
_atom_site_fract_z
_atom_site_U_iso_or_equiv
_atom_site_adp_type
_atom_site_occupancy
O1     O     0.29769   0.24629   0.25358   0.00000  Uiso   1.00
O2     O     0.05742   0.23704   0.24423   0.00000  Uiso   1.00
C3     C     0.01570   0.26497   0.25164   0.00000  Uiso   1.00
O4     O     0.31490   0.17358   0.33380   0.00000  Uiso   1.00
O5     O     0.07463   0.16433   0.32446   0.00000  Uiso   1.00
C6     C     0.03545   0.16791   0.35504   0.00000  Uiso   1.00
Zn7    Zn    0.27119   0.17284   0.25624   0.00000  Uiso   1.00
Zn8    Zn    0.06214   0.16049   0.24377   0.00000  Uiso   1.00
O9     O     0.27592   0.09629   0.25577   0.00000  Uiso   1.00
O10    O     0.03565   0.08704   0.24643   0.00000  Uiso   1.00
O11    O     0.25870   0.16901   0.17554   0.00000  Uiso   1.00
O12    O     0.01843   0.15976   0.16620   0.00000  Uiso   1.00
C13    C     0.31896   0.06858   0.25358   0.00000  Uiso   1.00
C14    C     0.29739   0.16301   0.14509   0.00000  Uiso   1.00
C15    C     0.27267   0.09851   0.00309   0.00000  Uiso   1.00
H16    H     0.00952   0.10197   0.07441   0.00000  Uiso   1.00
H17    H     0.29293   0.06978   0.48211   0.00000  Uiso   1.00
C18    C     0.27668   0.15281   0.08583   0.00000  Uiso   1.00
C19    C     0.02419   0.19730   0.44892   0.00000  Uiso   1.00
C20    C     0.04782   0.20699   0.00535   0.00000  Uiso   1.00
C21    C     0.10203   0.19011   0.02798   0.00000  Uiso   1.00
C22    C     0.13274   0.16148   0.49431   0.00000  Uiso   1.00
C23    C     0.10422   0.14490   0.43986   0.00000  Uiso   1.00
C24    C     0.19068   0.14883   0.01287   0.00000  Uiso   1.00
C25    C     0.21665   0.11391   0.48060   0.00000  Uiso   1.00
C26    C     0.18471   0.09369   0.42828   0.00000  Uiso   1.00
C27    C     0.12814   0.10741   0.40996   0.00000  Uiso   1.00
C28    C     0.22390   0.17111   0.06266   0.00000  Uiso   1.00
C29    C     0.30194   0.11713   0.05597   0.00000  Uiso   1.00
C30    C     0.05328   0.16783   0.41563   0.00000  Uiso   1.00
H31    H     0.20855   0.20151   0.08589   0.00000  Uiso   1.00
H32    H     0.31754   0.21422   0.43097   0.00000  Uiso   1.00
H33    H     0.11811   0.19902   0.07206   0.00000  Uiso   1.00
H34    H     0.02504   0.22920   0.03125   0.00000  Uiso   1.00
H35    H     0.10333   0.08941   0.37094   0.00000  Uiso   1.00
C36    C     0.02355   0.31981   0.25392   0.00000  Uiso   1.00
H37    H     0.06231   0.00321   0.24054   0.00000  Uiso   1.00
C38    C     0.31378   0.01505   0.26413   0.00000  Uiso   1.00
N39    N     0.14493   0.15223   0.23543   0.00000  Uiso   1.00
H40    H     0.15676   0.12534   0.20866   0.00000  Uiso   1.00
N41    N     0.18840   0.18110   0.26458   0.00000  Uiso   1.00
H42    H     0.17659   0.20796   0.29139   0.00000  Uiso   1.00
N43    N     0.26551   0.32843   0.28826   0.00000  Uiso   1.00
O44    O     0.21223   0.00303   0.26484   0.00000  Uiso   1.00
O45    O     0.27516   0.30504   0.33540   0.00000  Uiso   1.00
C46    C     0.20919   0.06115   0.38923   0.00000  Uiso   1.00
H47    H     0.18104   0.03115   0.36260   0.00000  Uiso   1.00
O48    O     0.25951   0.07001   0.38345   0.00000  Uiso   1.00
O49    O     0.63102   0.24629   0.25358   0.00000  Uiso   1.00
O50    O     0.39075   0.23704   0.24423   0.00000  Uiso   1.00
C51    C     0.34903   0.26497   0.25164   0.00000  Uiso   1.00
O52    O     0.64823   0.17358   0.33380   0.00000  Uiso   1.00
O53    O     0.40796   0.16433   0.32446   0.00000  Uiso   1.00
C54    C     0.36878   0.16791   0.35504   0.00000  Uiso   1.00
Zn55   Zn    0.60453   0.17284   0.25624   0.00000  Uiso   1.00
Zn56   Zn    0.39547   0.16049   0.24377   0.00000  Uiso   1.00
O57    O     0.60925   0.09629   0.25577   0.00000  Uiso   1.00
O58    O     0.36898   0.08704   0.24643   0.00000  Uiso   1.00
O59    O     0.59204   0.16901   0.17554   0.00000  Uiso   1.00
O60    O     0.35177   0.15976   0.16620   0.00000  Uiso   1.00
C61    C     0.65229   0.06858   0.25358   0.00000  Uiso   1.00
C62    C     0.63073   0.16301   0.14509   0.00000  Uiso   1.00
C63    C     0.60600   0.09851   0.00309   0.00000  Uiso   1.00
H64    H     0.34285   0.10197   0.07441   0.00000  Uiso   1.00
H65    H     0.62626   0.06978   0.48211   0.00000  Uiso   1.00
C66    C     0.61001   0.15281   0.08583   0.00000  Uiso   1.00
C67    C     0.35752   0.19730   0.44892   0.00000  Uiso   1.00
C68    C     0.38115   0.20699   0.00535   0.00000  Uiso   1.00
C69    C     0.43537   0.19011   0.02798   0.00000  Uiso   1.00
C70    C     0.46607   0.16148   0.49431   0.00000  Uiso   1.00
C71    C     0.43756   0.14490   0.43986   0.00000  Uiso   1.00
C72    C     0.52401   0.14883   0.01287   0.00000  Uiso   1.00
C73    C     0.54998   0.11391   0.48060   0.00000  Uiso   1.00
C74    C     0.51804   0.09369   0.42828   0.00000  Uiso   1.00
C75    C     0.46147   0.10741   0.40996   0.00000  Uiso   1.00
C76    C     0.55723   0.17111   0.06266   0.00000  Uiso   1.00
C77    C     0.63527   0.11713   0.05597   0.00000  Uiso   1.00
C78    C     0.38662   0.16783   0.41563   0.00000  Uiso   1.00
H79    H     0.54189   0.20151   0.08589   0.00000  Uiso   1.00
H80    H     0.65088   0.21422   0.43097   0.00000  Uiso   1.00
H81    H     0.45144   0.19902   0.07206   0.00000  Uiso   1.00
H82    H     0.35838   0.22920   0.03125   0.00000  Uiso   1.00
H83    H     0.43667   0.08941   0.37094   0.00000  Uiso   1.00
C84    C     0.35688   0.31981   0.25392   0.00000  Uiso   1.00
H85    H     0.39564   0.00321   0.24054   0.00000  Uiso   1.00
C86    C     0.64712   0.01505   0.26413   0.00000  Uiso   1.00
N87    N     0.47827   0.15223   0.23543   0.00000  Uiso   1.00
H88    H     0.49009   0.12534   0.20866   0.00000  Uiso   1.00
N89    N     0.52173   0.18110   0.26458   0.00000  Uiso   1.00
H90    H     0.50993   0.20796   0.29139   0.00000  Uiso   1.00
N91    N     0.59884   0.32843   0.28826   0.00000  Uiso   1.00
O92    O     0.54556   0.00303   0.26484   0.00000  Uiso   1.00
O93    O     0.60849   0.30504   0.33540   0.00000  Uiso   1.00
C94    C     0.54252   0.06115   0.38923   0.00000  Uiso   1.00
H95    H     0.51438   0.03115   0.36260   0.00000  Uiso   1.00
O96    O     0.59285   0.07001   0.38345   0.00000  Uiso   1.00
O97    O     0.96435   0.24629   0.25358   0.00000  Uiso   1.00
O98    O     0.72408   0.23704   0.24423   0.00000  Uiso   1.00
C99    C     0.68237   0.26497   0.25164   0.00000  Uiso   1.00
O100   O     0.98157   0.17358   0.33380   0.00000  Uiso   1.00
O101   O     0.74130   0.16433   0.32446   0.00000  Uiso   1.00
C102   C     0.70211   0.16791   0.35504   0.00000  Uiso   1.00
Zn103  Zn    0.93786   0.17284   0.25624   0.00000  Uiso   1.00
Zn104  Zn    0.72881   0.16049   0.24377   0.00000  Uiso   1.00
O105   O     0.94258   0.09629   0.25577   0.00000  Uiso   1.00
O106   O     0.70231   0.08704   0.24643   0.00000  Uiso   1.00
O107   O     0.92537   0.16901   0.17554   0.00000  Uiso   1.00
O108   O     0.68510   0.15976   0.16620   0.00000  Uiso   1.00
C109   C     0.98562   0.06858   0.25358   0.00000  Uiso   1.00
C110   C     0.96406   0.16301   0.14509   0.00000  Uiso   1.00
C111   C     0.93934   0.09851   0.00309   0.00000  Uiso   1.00
H112   H     0.67618   0.10197   0.07441   0.00000  Uiso   1.00
H113   H     0.95960   0.06978   0.48211   0.00000  Uiso   1.00
C114   C     0.94334   0.15281   0.08583   0.00000  Uiso   1.00
C115   C     0.69086   0.19730   0.44892   0.00000  Uiso   1.00
C116   C     0.71449   0.20699   0.00535   0.00000  Uiso   1.00
C117   C     0.76870   0.19011   0.02798   0.00000  Uiso   1.00
C118   C     0.79941   0.16148   0.49431   0.00000  Uiso   1.00
C119   C     0.77089   0.14490   0.43986   0.00000  Uiso   1.00
C120   C     0.85734   0.14883   0.01287   0.00000  Uiso   1.00
C121   C     0.88331   0.11391   0.48060   0.00000  Uiso   1.00
C122   C     0.85137   0.09369   0.42828   0.00000  Uiso   1.00
C123   C     0.79481   0.10741   0.40996   0.00000  Uiso   1.00
C124   C     0.89056   0.17111   0.06266   0.00000  Uiso   1.00
C125   C     0.96860   0.11713   0.05597   0.00000  Uiso   1.00
C126   C     0.71995   0.16783   0.41563   0.00000  Uiso   1.00
H127   H     0.87522   0.20151   0.08589   0.00000  Uiso   1.00
H128   H     0.98421   0.21422   0.43097   0.00000  Uiso   1.00
H129   H     0.78477   0.19902   0.07206   0.00000  Uiso   1.00
H130   H     0.69171   0.22920   0.03125   0.00000  Uiso   1.00
H131   H     0.77000   0.08941   0.37094   0.00000  Uiso   1.00
C132   C     0.69022   0.31981   0.25392   0.00000  Uiso   1.00
H133   H     0.72897   0.00321   0.24054   0.00000  Uiso   1.00
C134   C     0.98045   0.01505   0.26413   0.00000  Uiso   1.00
N135   N     0.81160   0.15223   0.23543   0.00000  Uiso   1.00
H136   H     0.82343   0.12534   0.20866   0.00000  Uiso   1.00
N137   N     0.85507   0.18110   0.26458   0.00000  Uiso   1.00
H138   H     0.84326   0.20796   0.29139   0.00000  Uiso   1.00
N139   N     0.93217   0.32843   0.28826   0.00000  Uiso   1.00
O140   O     0.87890   0.00303   0.26484   0.00000  Uiso   1.00
O141   O     0.94182   0.30504   0.33540   0.00000  Uiso   1.00
C142   C     0.87585   0.06115   0.38923   0.00000  Uiso   1.00
H143   H     0.84771   0.03115   0.36260   0.00000  Uiso   1.00
O144   O     0.92618   0.07001   0.38345   0.00000  Uiso   1.00
O145   O     0.29769   0.57963   0.25358   0.00000  Uiso   1.00
O146   O     0.05742   0.57038   0.24423   0.00000  Uiso   1.00
C147   C     0.01570   0.59830   0.25164   0.00000  Uiso   1.00
O148   O     0.31490   0.50691   0.33380   0.00000  Uiso   1.00
O149   O     0.07463   0.49766   0.32446   0.00000  Uiso   1.00
C150   C     0.03545   0.50124   0.35504   0.00000  Uiso   1.00
Zn151  Zn    0.27119   0.50618   0.25624   0.00000  Uiso   1.00
Zn152  Zn    0.06214   0.49382   0.24377   0.00000  Uiso   1.00
O153   O     0.27592   0.42962   0.25577   0.00000  Uiso   1.00
O154   O     0.03565   0.42037   0.24643   0.00000  Uiso   1.00
O155   O     0.25870   0.50234   0.17554   0.00000  Uiso   1.00
O156   O     0.01843   0.49309   0.16620   0.00000  Uiso   1.00
C157   C     0.31896   0.40191   0.25358   0.00000  Uiso   1.00
C158   C     0.29739   0.49635   0.14509   0.00000  Uiso   1.00
C159   C     0.27267   0.43184   0.00309   0.00000  Uiso   1.00
H160   H     0.00952   0.43530   0.07441   0.00000  Uiso   1.00
H161   H     0.29293   0.40312   0.48211   0.00000  Uiso   1.00
C162   C     0.27668   0.48615   0.08583   0.00000  Uiso   1.00
C163   C     0.02419   0.53063   0.44892   0.00000  Uiso   1.00
C164   C     0.04782   0.54032   0.00535   0.00000  Uiso   1.00
C165   C     0.10203   0.52344   0.02798   0.00000  Uiso   1.00
C166   C     0.13274   0.49481   0.49431   0.00000  Uiso   1.00
C167   C     0.10422   0.47823   0.43986   0.00000  Uiso   1.00
C168   C     0.19068   0.48217   0.01287   0.00000  Uiso   1.00
C169   C     0.21665   0.44724   0.48060   0.00000  Uiso   1.00
C170   C     0.18471   0.42703   0.42828   0.00000  Uiso   1.00
C171   C     0.12814   0.44074   0.40996   0.00000  Uiso   1.00
C172   C     0.22390   0.50445   0.06266   0.00000  Uiso   1.00
C173   C     0.30194   0.45046   0.05597   0.00000  Uiso   1.00
C174   C     0.05328   0.50116   0.41563   0.00000  Uiso   1.00
H175   H     0.20855   0.53485   0.08589   0.00000  Uiso   1.00
H176   H     0.31754   0.54755   0.43097   0.00000  Uiso   1.00
H177   H     0.11811   0.53235   0.07206   0.00000  Uiso   1.00
H178   H     0.02504   0.56253   0.03125   0.00000  Uiso   1.00
H179   H     0.10333   0.42274   0.37094   0.00000  Uiso   1.00
C180   C     0.02355   0.65314   0.25392   0.00000  Uiso   1.00
H181   H     0.06231   0.33654   0.24054   0.00000  Uiso   1.00
C182   C     0.31378   0.34839   0.26413   0.00000  Uiso   1.00
N183   N     0.14493   0.48556   0.23543   0.00000  Uiso   1.00
H184   H     0.15676   0.45867   0.20866   0.00000  Uiso   1.00
N185   N     0.18840   0.51444   0.26458   0.00000  Uiso   1.00
H186   H     0.17659   0.54130   0.29139   0.00000  Uiso   1.00
N187   N     0.26551   0.66177   0.28826   0.00000  Uiso   1.00
O188   O     0.21223   0.33636   0.26484   0.00000  Uiso   1.00
O189   O     0.27516   0.63837   0.33540   0.00000  Uiso   1.00
C190   C     0.20919   0.39449   0.38923   0.00000  Uiso   1.00
H191   H     0.18104   0.36448   0.36260   0.00000  Uiso   1.00
O192   O     0.25951   0.40334   0.38345   0.00000  Uiso   1.00
O193   O     0.63102   0.57963   0.25358   0.00000  Uiso   1.00
O194   O     0.39075   0.57038   0.24423   0.00000  Uiso   1.00
C195   C     0.34903   0.59830   0.25164   0.00000  Uiso   1.00
O196   O     0.64823   0.50691   0.33380   0.00000  Uiso   1.00
O197   O     0.40796   0.49766   0.32446   0.00000  Uiso   1.00
C198   C     0.36878   0.50124   0.35504   0.00000  Uiso   1.00
Zn199  Zn    0.60453   0.50618   0.25624   0.00000  Uiso   1.00
Zn200  Zn    0.39547   0.49382   0.24377   0.00000  Uiso   1.00
O201   O     0.60925   0.42962   0.25577   0.00000  Uiso   1.00
O202   O     0.36898   0.42037   0.24643   0.00000  Uiso   1.00
O203   O     0.59204   0.50234   0.17554   0.00000  Uiso   1.00
O204   O     0.35177   0.49309   0.16620   0.00000  Uiso   1.00
C205   C     0.65229   0.40191   0.25358   0.00000  Uiso   1.00
C206   C     0.63073   0.49635   0.14509   0.00000  Uiso   1.00
C207   C     0.60600   0.43184   0.00309   0.00000  Uiso   1.00
H208   H     0.34285   0.43530   0.07441   0.00000  Uiso   1.00
H209   H     0.62626   0.40312   0.48211   0.00000  Uiso   1.00
C210   C     0.61001   0.48615   0.08583   0.00000  Uiso   1.00
C211   C     0.35752   0.53063   0.44892   0.00000  Uiso   1.00
C212   C     0.38115   0.54032   0.00535   0.00000  Uiso   1.00
C213   C     0.43537   0.52344   0.02798   0.00000  Uiso   1.00
C214   C     0.46607   0.49481   0.49431   0.00000  Uiso   1.00
C215   C     0.43756   0.47823   0.43986   0.00000  Uiso   1.00
C216   C     0.52401   0.48217   0.01287   0.00000  Uiso   1.00
C217   C     0.54998   0.44724   0.48060   0.00000  Uiso   1.00
C218   C     0.51804   0.42703   0.42828   0.00000  Uiso   1.00
C219   C     0.46147   0.44074   0.40996   0.00000  Uiso   1.00
C220   C     0.55723   0.50445   0.06266   0.00000  Uiso   1.00
C221   C     0.63527   0.45046   0.05597   0.00000  Uiso   1.00
C222   C     0.38662   0.50116   0.41563   0.00000  Uiso   1.00
H223   H     0.54189   0.53485   0.08589   0.00000  Uiso   1.00
H224   H     0.65088   0.54755   0.43097   0.00000  Uiso   1.00
H225   H     0.45144   0.53235   0.07206   0.00000  Uiso   1.00
H226   H     0.35838   0.56253   0.03125   0.00000  Uiso   1.00
H227   H     0.43667   0.42274   0.37094   0.00000  Uiso   1.00
C228   C     0.35688   0.65314   0.25392   0.00000  Uiso   1.00
H229   H     0.39564   0.33654   0.24054   0.00000  Uiso   1.00
C230   C     0.64712   0.34839   0.26413   0.00000  Uiso   1.00
N231   N     0.47827   0.48556   0.23543   0.00000  Uiso   1.00
H232   H     0.49009   0.45867   0.20866   0.00000  Uiso   1.00
N233   N     0.52173   0.51444   0.26458   0.00000  Uiso   1.00
H234   H     0.50993   0.54130   0.29139   0.00000  Uiso   1.00
N235   N     0.59884   0.66177   0.28826   0.00000  Uiso   1.00
O236   O     0.54556   0.33636   0.26484   0.00000  Uiso   1.00
O237   O     0.60849   0.63837   0.33540   0.00000  Uiso   1.00
C238   C     0.54252   0.39449   0.38923   0.00000  Uiso   1.00
H239   H     0.51438   0.36448   0.36260   0.00000  Uiso   1.00
O240   O     0.59285   0.40334   0.38345   0.00000  Uiso   1.00
O241   O     0.96435   0.57963   0.25358   0.00000  Uiso   1.00
O242   O     0.72408   0.57038   0.24423   0.00000  Uiso   1.00
C243   C     0.68237   0.59830   0.25164   0.00000  Uiso   1.00
O244   O     0.98157   0.50691   0.33380   0.00000  Uiso   1.00
O245   O     0.74130   0.49766   0.32446   0.00000  Uiso   1.00
C246   C     0.70211   0.50124   0.35504   0.00000  Uiso   1.00
Zn247  Zn    0.93786   0.50618   0.25624   0.00000  Uiso   1.00
Zn248  Zn    0.72881   0.49382   0.24377   0.00000  Uiso   1.00
O249   O     0.94258   0.42962   0.25577   0.00000  Uiso   1.00
O250   O     0.70231   0.42037   0.24643   0.00000  Uiso   1.00
O251   O     0.92537   0.50234   0.17554   0.00000  Uiso   1.00
O252   O     0.68510   0.49309   0.16620   0.00000  Uiso   1.00
C253   C     0.98562   0.40191   0.25358   0.00000  Uiso   1.00
C254   C     0.96406   0.49635   0.14509   0.00000  Uiso   1.00
C255   C     0.93934   0.43184   0.00309   0.00000  Uiso   1.00
H256   H     0.67618   0.43530   0.07441   0.00000  Uiso   1.00
H257   H     0.95960   0.40312   0.48211   0.00000  Uiso   1.00
C258   C     0.94334   0.48615   0.08583   0.00000  Uiso   1.00
C259   C     0.69086   0.53063   0.44892   0.00000  Uiso   1.00
C260   C     0.71449   0.54032   0.00535   0.00000  Uiso   1.00
C261   C     0.76870   0.52344   0.02798   0.00000  Uiso   1.00
C262   C     0.79941   0.49481   0.49431   0.00000  Uiso   1.00
C263   C     0.77089   0.47823   0.43986   0.00000  Uiso   1.00
C264   C     0.85734   0.48217   0.01287   0.00000  Uiso   1.00
C265   C     0.88331   0.44724   0.48060   0.00000  Uiso   1.00
C266   C     0.85137   0.42703   0.42828   0.00000  Uiso   1.00
C267   C     0.79481   0.44074   0.40996   0.00000  Uiso   1.00
C268   C     0.89056   0.50445   0.06266   0.00000  Uiso   1.00
C269   C     0.96860   0.45046   0.05597   0.00000  Uiso   1.00
C270   C     0.71995   0.50116   0.41563   0.00000  Uiso   1.00
H271   H     0.87522   0.53485   0.08589   0.00000  Uiso   1.00
H272   H     0.98421   0.54755   0.43097   0.00000  Uiso   1.00
H273   H     0.78477   0.53235   0.07206   0.00000  Uiso   1.00
H274   H     0.69171   0.56253   0.03125   0.00000  Uiso   1.00
H275   H     0.77000   0.42274   0.37094   0.00000  Uiso   1.00
C276   C     0.69022   0.65314   0.25392   0.00000  Uiso   1.00
H277   H     0.72897   0.33654   0.24054   0.00000  Uiso   1.00
C278   C     0.98045   0.34839   0.26413   0.00000  Uiso   1.00
N279   N     0.81160   0.48556   0.23543   0.00000  Uiso   1.00
H280   H     0.82343   0.45867   0.20866   0.00000  Uiso   1.00
N281   N     0.85507   0.51444   0.26458   0.00000  Uiso   1.00
H282   H     0.84326   0.54130   0.29139   0.00000  Uiso   1.00
N283   N     0.93217   0.66177   0.28826   0.00000  Uiso   1.00
O284   O     0.87890   0.33636   0.26484   0.00000  Uiso   1.00
O285   O     0.94182   0.63837   0.33540   0.00000  Uiso   1.00
C286   C     0.87585   0.39449   0.38923   0.00000  Uiso   1.00
H287   H     0.84771   0.36448   0.36260   0.00000  Uiso   1.00
O288   O     0.92618   0.40334   0.38345   0.00000  Uiso   1.00
O289   O     0.29769   0.91296   0.25358   0.00000  Uiso   1.00
O290   O     0.05742   0.90371   0.24423   0.00000  Uiso   1.00
C291   C     0.01570   0.93163   0.25164   0.00000  Uiso   1.00
O292   O     0.31490   0.84024   0.33380   0.00000  Uiso   1.00
O293   O     0.07463   0.83099   0.32446   0.00000  Uiso   1.00
C294   C     0.03545   0.83458   0.35504   0.00000  Uiso   1.00
Zn295  Zn    0.27119   0.83951   0.25624   0.00000  Uiso   1.00
Zn296  Zn    0.06214   0.82716   0.24377   0.00000  Uiso   1.00
O297   O     0.27592   0.76296   0.25577   0.00000  Uiso   1.00
O298   O     0.03565   0.75371   0.24643   0.00000  Uiso   1.00
O299   O     0.25870   0.83567   0.17554   0.00000  Uiso   1.00
O300   O     0.01843   0.82642   0.16620   0.00000  Uiso   1.00
C301   C     0.31896   0.73524   0.25358   0.00000  Uiso   1.00
C302   C     0.29739   0.82968   0.14509   0.00000  Uiso   1.00
C303   C     0.27267   0.76518   0.00309   0.00000  Uiso   1.00
H304   H     0.00952   0.76863   0.07441   0.00000  Uiso   1.00
H305   H     0.29293   0.73645   0.48211   0.00000  Uiso   1.00
C306   C     0.27668   0.81948   0.08583   0.00000  Uiso   1.00
C307   C     0.02419   0.86396   0.44892   0.00000  Uiso   1.00
C308   C     0.04782   0.87366   0.00535   0.00000  Uiso   1.00
C309   C     0.10203   0.85678   0.02798   0.00000  Uiso   1.00
C310   C     0.13274   0.82815   0.49431   0.00000  Uiso   1.00
C311   C     0.10422   0.81156   0.43986   0.00000  Uiso   1.00
C312   C     0.19068   0.81550   0.01287   0.00000  Uiso   1.00
C313   C     0.21665   0.78058   0.48060   0.00000  Uiso   1.00
C314   C     0.18471   0.76036   0.42828   0.00000  Uiso   1.00
C315   C     0.12814   0.77408   0.40996   0.00000  Uiso   1.00
C316   C     0.22390   0.83778   0.06266   0.00000  Uiso   1.00
C317   C     0.30194   0.78379   0.05597   0.00000  Uiso   1.00
C318   C     0.05328   0.83449   0.41563   0.00000  Uiso   1.00
H319   H     0.20855   0.86818   0.08589   0.00000  Uiso   1.00
H320   H     0.31754   0.88088   0.43097   0.00000  Uiso   1.00
H321   H     0.11811   0.86569   0.07206   0.00000  Uiso   1.00
H322   H     0.02504   0.89586   0.03125   0.00000  Uiso   1.00
H323   H     0.10333   0.75608   0.37094   0.00000  Uiso   1.00
C324   C     0.02355   0.98648   0.25392   0.00000  Uiso   1.00
H325   H     0.06231   0.66987   0.24054   0.00000  Uiso   1.00
C326   C     0.31378   0.68172   0.26413   0.00000  Uiso   1.00
N327   N     0.14493   0.81890   0.23543   0.00000  Uiso   1.00
H328   H     0.15676   0.79201   0.20866   0.00000  Uiso   1.00
N329   N     0.18840   0.84777   0.26458   0.00000  Uiso   1.00
H330   H     0.17659   0.87463   0.29139   0.00000  Uiso   1.00
N331   N     0.26551   0.99510   0.28826   0.00000  Uiso   1.00
O332   O     0.21223   0.66969   0.26484   0.00000  Uiso   1.00
O333   O     0.27516   0.97170   0.33540   0.00000  Uiso   1.00
C334   C     0.20919   0.72782   0.38923   0.00000  Uiso   1.00
H335   H     0.18104   0.69782   0.36260   0.00000  Uiso   1.00
O336   O     0.25951   0.73668   0.38345   0.00000  Uiso   1.00
O337   O     0.63102   0.91296   0.25358   0.00000  Uiso   1.00
O338   O     0.39075   0.90371   0.24423   0.00000  Uiso   1.00
C339   C     0.34903   0.93163   0.25164   0.00000  Uiso   1.00
O340   O     0.64823   0.84024   0.33380   0.00000  Uiso   1.00
O341   O     0.40796   0.83099   0.32446   0.00000  Uiso   1.00
C342   C     0.36878   0.83458   0.35504   0.00000  Uiso   1.00
Zn343  Zn    0.60453   0.83951   0.25624   0.00000  Uiso   1.00
Zn344  Zn    0.39547   0.82716   0.24377   0.00000  Uiso   1.00
O345   O     0.60925   0.76296   0.25577   0.00000  Uiso   1.00
O346   O     0.36898   0.75371   0.24643   0.00000  Uiso   1.00
O347   O     0.59204   0.83567   0.17554   0.00000  Uiso   1.00
O348   O     0.35177   0.82642   0.16620   0.00000  Uiso   1.00
C349   C     0.65229   0.73524   0.25358   0.00000  Uiso   1.00
C350   C     0.63073   0.82968   0.14509   0.00000  Uiso   1.00
C351   C     0.60600   0.76518   0.00309   0.00000  Uiso   1.00
H352   H     0.34285   0.76863   0.07441   0.00000  Uiso   1.00
H353   H     0.62626   0.73645   0.48211   0.00000  Uiso   1.00
C354   C     0.61001   0.81948   0.08583   0.00000  Uiso   1.00
C355   C     0.35752   0.86396   0.44892   0.00000  Uiso   1.00
C356   C     0.38115   0.87366   0.00535   0.00000  Uiso   1.00
C357   C     0.43537   0.85678   0.02798   0.00000  Uiso   1.00
C358   C     0.46607   0.82815   0.49431   0.00000  Uiso   1.00
C359   C     0.43756   0.81156   0.43986   0.00000  Uiso   1.00
C360   C     0.52401   0.81550   0.01287   0.00000  Uiso   1.00
C361   C     0.54998   0.78058   0.48060   0.00000  Uiso   1.00
C362   C     0.51804   0.76036   0.42828   0.00000  Uiso   1.00
C363   C     0.46147   0.77408   0.40996   0.00000  Uiso   1.00
C364   C     0.55723   0.83778   0.06266   0.00000  Uiso   1.00
C365   C     0.63527   0.78379   0.05597   0.00000  Uiso   1.00
C366   C     0.38662   0.83449   0.41563   0.00000  Uiso   1.00
H367   H     0.54189   0.86818   0.08589   0.00000  Uiso   1.00
H368   H     0.65088   0.88088   0.43097   0.00000  Uiso   1.00
H369   H     0.45144   0.86569   0.07206   0.00000  Uiso   1.00
H370   H     0.35838   0.89586   0.03125   0.00000  Uiso   1.00
H371   H     0.43667   0.75608   0.37094   0.00000  Uiso   1.00
C372   C     0.35688   0.98648   0.25392   0.00000  Uiso   1.00
H373   H     0.39564   0.66987   0.24054   0.00000  Uiso   1.00
C374   C     0.64712   0.68172   0.26413   0.00000  Uiso   1.00
N375   N     0.47827   0.81890   0.23543   0.00000  Uiso   1.00
H376   H     0.49009   0.79201   0.20866   0.00000  Uiso   1.00
N377   N     0.52173   0.84777   0.26458   0.00000  Uiso   1.00
H378   H     0.50993   0.87463   0.29139   0.00000  Uiso   1.00
N379   N     0.59884   0.99510   0.28826   0.00000  Uiso   1.00
O380   O     0.54556   0.66969   0.26484   0.00000  Uiso   1.00
O381   O     0.60849   0.97170   0.33540   0.00000  Uiso   1.00
C382   C     0.54252   0.72782   0.38923   0.00000  Uiso   1.00
H383   H     0.51438   0.69782   0.36260   0.00000  Uiso   1.00
O384   O     0.59285   0.73668   0.38345   0.00000  Uiso   1.00
O385   O     0.96435   0.91296   0.25358   0.00000  Uiso   1.00
O386   O     0.72408   0.90371   0.24423   0.00000  Uiso   1.00
C387   C     0.68237   0.93163   0.25164   0.00000  Uiso   1.00
O388   O     0.98157   0.84024   0.33380   0.00000  Uiso   1.00
O389   O     0.74130   0.83099   0.32446   0.00000  Uiso   1.00
C390   C     0.70211   0.83458   0.35504   0.00000  Uiso   1.00
Zn391  Zn    0.93786   0.83951   0.25624   0.00000  Uiso   1.00
Zn392  Zn    0.72881   0.82716   0.24377   0.00000  Uiso   1.00
O393   O     0.94258   0.76296   0.25577   0.00000  Uiso   1.00
O394   O     0.70231   0.75371   0.24643   0.00000  Uiso   1.00
O395   O     0.92537   0.83567   0.17554   0.00000  Uiso   1.00
O396   O     0.68510   0.82642   0.16620   0.00000  Uiso   1.00
C397   C     0.98562   0.73524   0.25358   0.00000  Uiso   1.00
C398   C     0.96406   0.82968   0.14509   0.00000  Uiso   1.00
C399   C     0.93934   0.76518   0.00309   0.00000  Uiso   1.00
H400   H     0.67618   0.76863   0.07441   0.00000  Uiso   1.00
H401   H     0.95960   0.73645   0.48211   0.00000  Uiso   1.00
C402   C     0.94334   0.81948   0.08583   0.00000  Uiso   1.00
C403   C     0.69086   0.86396   0.44892   0.00000  Uiso   1.00
C404   C     0.71449   0.87366   0.00535   0.00000  Uiso   1.00
C405   C     0.76870   0.85678   0.02798   0.00000  Uiso   1.00
C406   C     0.79941   0.82815   0.49431   0.00000  Uiso   1.00
C407   C     0.77089   0.81156   0.43986   0.00000  Uiso   1.00
C408   C     0.85734   0.81550   0.01287   0.00000  Uiso   1.00
C409   C     0.88331   0.78058   0.48060   0.00000  Uiso   1.00
C410   C     0.85137   0.76036   0.42828   0.00000  Uiso   1.00
C411   C     0.79481   0.77408   0.40996   0.00000  Uiso   1.00
C412   C     0.89056   0.83778   0.06266   0.00000  Uiso   1.00
C413   C     0.96860   0.78379   0.05597   0.00000  Uiso   1.00
C414   C     0.71995   0.83449   0.41563   0.00000  Uiso   1.00
H415   H     0.87522   0.86818   0.08589   0.00000  Uiso   1.00
H416   H     0.98421   0.88088   0.43097   0.00000  Uiso   1.00
H417   H     0.78477   0.86569   0.07206   0.00000  Uiso   1.00
H418   H     0.69171   0.89586   0.03125   0.00000  Uiso   1.00
H419   H     0.77000   0.75608   0.37094   0.00000  Uiso   1.00
C420   C     0.69022   0.98648   0.25392   0.00000  Uiso   1.00
H421   H     0.72897   0.66987   0.24054   0.00000  Uiso   1.00
C422   C     0.98045   0.68172   0.26413   0.00000  Uiso   1.00
N423   N     0.81160   0.81890   0.23543   0.00000  Uiso   1.00
H424   H     0.82343   0.79201   0.20866   0.00000  Uiso   1.00
N425   N     0.85507   0.84777   0.26458   0.00000  Uiso   1.00
H426   H     0.84326   0.87463   0.29139   0.00000  Uiso   1.00
N427   N     0.93217   0.99510   0.28826   0.00000  Uiso   1.00
O428   O     0.87890   0.66969   0.26484   0.00000  Uiso   1.00
O429   O     0.94182   0.97170   0.33540   0.00000  Uiso   1.00
C430   C     0.87585   0.72782   0.38923   0.00000  Uiso   1.00
H431   H     0.84771   0.69782   0.36260   0.00000  Uiso   1.00
O432   O     0.92618   0.73668   0.38345   0.00000  Uiso   1.00
O433   O     0.29769   0.24629   0.75358   0.00000  Uiso   1.00
O434   O     0.05742   0.23704   0.74423   0.00000  Uiso   1.00
C435   C     0.01570   0.26497   0.75164   0.00000  Uiso   1.00
O436   O     0.31490   0.17358   0.83380   0.00000  Uiso   1.00
O437   O     0.07463   0.16433   0.82446   0.00000  Uiso   1.00
C438   C     0.03545   0.16791   0.85504   0.00000  Uiso   1.00
Zn439  Zn    0.27119   0.17284   0.75624   0.00000  Uiso   1.00
Zn440  Zn    0.06214   0.16049   0.74377   0.00000  Uiso   1.00
O441   O     0.27592   0.09629   0.75577   0.00000  Uiso   1.00
O442   O     0.03565   0.08704   0.74643   0.00000  Uiso   1.00
O443   O     0.25870   0.16901   0.67554   0.00000  Uiso   1.00
O444   O     0.01843   0.15976   0.66620   0.00000  Uiso   1.00
C445   C     0.31896   0.06858   0.75358   0.00000  Uiso   1.00
C446   C     0.29739   0.16301   0.64509   0.00000  Uiso   1.00
C447   C     0.27267   0.09851   0.50309   0.00000  Uiso   1.00
H448   H     0.00952   0.10197   0.57441   0.00000  Uiso   1.00
H449   H     0.29293   0.06978   0.98211   0.00000  Uiso   1.00
C450   C     0.27668   0.15281   0.58583   0.00000  Uiso   1.00
C451   C     0.02419   0.19730   0.94892   0.00000  Uiso   1.00
C452   C     0.04782   0.20699   0.50535   0.00000  Uiso   1.00
C453   C     0.10203   0.19011   0.52798   0.00000  Uiso   1.00
C454   C     0.13274   0.16148   0.99431   0.00000  Uiso   1.00
C455   C     0.10422   0.14490   0.93986   0.00000  Uiso   1.00
C456   C     0.19068   0.14883   0.51287   0.00000  Uiso   1.00
C457   C     0.21665   0.11391   0.98060   0.00000  Uiso   1.00
C458   C     0.18471   0.09369   0.92828   0.00000  Uiso   1.00
C459   C     0.12814   0.10741   0.90996   0.00000  Uiso   1.00
C460   C     0.22390   0.17111   0.56266   0.00000  Uiso   1.00
C461   C     0.30194   0.11713   0.55597   0.00000  Uiso   1.00
C462   C     0.05328   0.16783   0.91563   0.00000  Uiso   1.00
H463   H     0.20855   0.20151   0.58589   0.00000  Uiso   1.00
H464   H     0.31754   0.21422   0.93097   0.00000  Uiso   1.00
H465   H     0.11811   0.19902   0.57206   0.00000  Uiso   1.00
H466   H     0.02504   0.22920   0.53125   0.00000  Uiso   1.00
H467   H     0.10333   0.08941   0.87094   0.00000  Uiso   1.00
C468   C     0.02355   0.31981   0.75392   0.00000  Uiso   1.00
H469   H     0.06231   0.00321   0.74054   0.00000  Uiso   1.00
C470   C     0.31378   0.01505   0.76413   0.00000  Uiso   1.00
N471   N     0.14493   0.15223   0.73543   0.00000  Uiso   1.00
H472   H     0.15676   0.12534   0.70866   0.00000  Uiso   1.00
N473   N     0.18840   0.18110   0.76458   0.00000  Uiso   1.00
H474   H     0.17659   0.20796   0.79139   0.00000  Uiso   1.00
N475   N     0.26551   0.32843   0.78826   0.00000  Uiso   1.00
O476   O     0.21223   0.00303   0.76484   0.00000  Uiso   1.00
O477   O     0.27516   0.30504   0.83540   0.00000  Uiso   1.00
C478   C     0.20919   0.06115   0.88923   0.00000  Uiso   1.00
H479   H     0.18104   0.03115   0.86260   0.00000  Uiso   1.00
O480   O     0.25951   0.07001   0.88345   0.00000  Uiso   1.00
O481   O     0.63102   0.24629   0.75358   0.00000  Uiso   1.00
O482   O     0.39075   0.23704   0.74423   0.00000  Uiso   1.00
C483   C     0.34903   0.26497   0.75164   0.00000  Uiso   1.00
O484   O     0.64823   0.17358   0.83380   0.00000  Uiso   1.00
O485   O     0.40796   0.16433   0.82446   0.00000  Uiso   1.00
C486   C     0.36878   0.16791   0.85504   0.00000  Uiso   1.00
Zn487  Zn    0.60453   0.17284   0.75624   0.00000  Uiso   1.00
Zn488  Zn    0.39547   0.16049   0.74377   0.00000  Uiso   1.00
O489   O     0.60925   0.09629   0.75577   0.00000  Uiso   1.00
O490   O     0.36898   0.08704   0.74643   0.00000  Uiso   1.00
O491   O     0.59204   0.16901   0.67554   0.00000  Uiso   1.00
O492   O     0.35177   0.15976   0.66620   0.00000  Uiso   1.00
C493   C     0.65229   0.06858   0.75358   0.00000  Uiso   1.00
C494   C     0.63073   0.16301   0.64509   0.00000  Uiso   1.00
C495   C     0.60600   0.09851   0.50309   0.00000  Uiso   1.00
H496   H     0.34285   0.10197   0.57441   0.00000  Uiso   1.00
H497   H     0.62626   0.06978   0.98211   0.00000  Uiso   1.00
C498   C     0.61001   0.15281   0.58583   0.00000  Uiso   1.00
C499   C     0.35752   0.19730   0.94892   0.00000  Uiso   1.00
C500   C     0.38115   0.20699   0.50535   0.00000  Uiso   1.00
C501   C     0.43537   0.19011   0.52798   0.00000  Uiso   1.00
C502   C     0.46607   0.16148   0.99431   0.00000  Uiso   1.00
C503   C     0.43756   0.14490   0.93986   0.00000  Uiso   1.00
C504   C     0.52401   0.14883   0.51287   0.00000  Uiso   1.00
C505   C     0.54998   0.11391   0.98060   0.00000  Uiso   1.00
C506   C     0.51804   0.09369   0.92828   0.00000  Uiso   1.00
C507   C     0.46147   0.10741   0.90996   0.00000  Uiso   1.00
C508   C     0.55723   0.17111   0.56266   0.00000  Uiso   1.00
C509   C     0.63527   0.11713   0.55597   0.00000  Uiso   1.00
C510   C     0.38662   0.16783   0.91563   0.00000  Uiso   1.00
H511   H     0.54189   0.20151   0.58589   0.00000  Uiso   1.00
H512   H     0.65088   0.21422   0.93097   0.00000  Uiso   1.00
H513   H     0.45144   0.19902   0.57206   0.00000  Uiso   1.00
H514   H     0.35838   0.22920   0.53125   0.00000  Uiso   1.00
H515   H     0.43667   0.08941   0.87094   0.00000  Uiso   1.00
C516   C     0.35688   0.31981   0.75392   0.00000  Uiso   1.00
H517   H     0.39564   0.00321   0.74054   0.00000  Uiso   1.00
C518   C     0.64712   0.01505   0.76413   0.00000  Uiso   1.00
N519   N     0.47827   0.15223   0.73543   0.00000  Uiso   1.00
H520   H     0.49009   0.12534   0.70866   0.00000  Uiso   1.00
N521   N     0.52173   0.18110   0.76458   0.00000  Uiso   1.00
H522   H     0.50993   0.20796   0.79139   0.00000  Uiso   1.00
N523   N     0.59884   0.32843   0.78826   0.00000  Uiso   1.00
O524   O     0.54556   0.00303   0.76484   0.00000  Uiso   1.00
O525   O     0.60849   0.30504   0.83540   0.00000  Uiso   1.00
C526   C     0.54252   0.06115   0.88923   0.00000  Uiso   1.00
H527   H     0.51438   0.03115   0.86260   0.00000  Uiso   1.00
O528   O     0.59285   0.07001   0.88345   0.00000  Uiso   1.00
O529   O     0.96435   0.24629   0.75358   0.00000  Uiso   1.00
O530   O     0.72408   0.23704   0.74423   0.00000  Uiso   1.00
C531   C     0.68237   0.26497   0.75164   0.00000  Uiso   1.00
O532   O     0.98157   0.17358   0.83380   0.00000  Uiso   1.00
O533   O     0.74130   0.16433   0.82446   0.00000  Uiso   1.00
C534   C     0.70211   0.16791   0.85504   0.00000  Uiso   1.00
Zn535  Zn    0.93786   0.17284   0.75624   0.00000  Uiso   1.00
Zn536  Zn    0.72881   0.16049   0.74377   0.00000  Uiso   1.00
O537   O     0.94258   0.09629   0.75577   0.00000  Uiso   1.00
O538   O     0.70231   0.08704   0.74643   0.00000  Uiso   1.00
O539   O     0.92537   0.16901   0.67554   0.00000  Uiso   1.00
O540   O     0.68510   0.15976   0.66620   0.00000  Uiso   1.00
C541   C     0.98562   0.06858   0.75358   0.00000  Uiso   1.00
C542   C     0.96406   0.16301   0.64509   0.00000  Uiso   1.00
C543   C     0.93934   0.09851   0.50309   0.00000  Uiso   1.00
H544   H     0.67618   0.10197   0.57441   0.00000  Uiso   1.00
H545   H     0.95960   0.06978   0.98211   0.00000  Uiso   1.00
C546   C     0.94334   0.15281   0.58583   0.00000  Uiso   1.00
C547   C     0.69086   0.19730   0.94892   0.00000  Uiso   1.00
C548   C     0.71449   0.20699   0.50535   0.00000  Uiso   1.00
C549   C     0.76870   0.19011   0.52798   0.00000  Uiso   1.00
C550   C     0.79941   0.16148   0.99431   0.00000  Uiso   1.00
C551   C     0.77089   0.14490   0.93986   0.00000  Uiso   1.00
C552   C     0.85734   0.14883   0.51287   0.00000  Uiso   1.00
C553   C     0.88331   0.11391   0.98060   0.00000  Uiso   1.00
C554   C     0.85137   0.09369   0.92828   0.00000  Uiso   1.00
C555   C     0.79481   0.10741   0.90996   0.00000  Uiso   1.00
C556   C     0.89056   0.17111   0.56266   0.00000  Uiso   1.00
C557   C     0.96860   0.11713   0.55597   0.00000  Uiso   1.00
C558   C     0.71995   0.16783   0.91563   0.00000  Uiso   1.00
H559   H     0.87522   0.20151   0.58589   0.00000  Uiso   1.00
H560   H     0.98421   0.21422   0.93097   0.00000  Uiso   1.00
H561   H     0.78477   0.19902   0.57206   0.00000  Uiso   1.00
H562   H     0.69171   0.22920   0.53125   0.00000  Uiso   1.00
H563   H     0.77000   0.08941   0.87094   0.00000  Uiso   1.00
C564   C     0.69022   0.31981   0.75392   0.00000  Uiso   1.00
H565   H     0.72897   0.00321   0.74054   0.00000  Uiso   1.00
C566   C     0.98045   0.01505   0.76413   0.00000  Uiso   1.00
N567   N     0.81160   0.15223   0.73543   0.00000  Uiso   1.00
H568   H     0.82343   0.12534   0.70866   0.00000  Uiso   1.00
N569   N     0.85507   0.18110   0.76458   0.00000  Uiso   1.00
H570   H     0.84326   0.20796   0.79139   0.00000  Uiso   1.00
N571   N     0.93217   0.32843   0.78826   0.00000  Uiso   1.00
O572   O     0.87890   0.00303   0.76484   0.00000  Uiso   1.00
O573   O     0.94182   0.30504   0.83540   0.00000  Uiso   1.00
C574   C     0.87585   0.06115   0.88923   0.00000  Uiso   1.00
H575   H     0.84771   0.03115   0.86260   0.00000  Uiso   1.00
O576   O     0.92618   0.07001   0.88345   0.00000  Uiso   1.00
O577   O     0.29769   0.57963   0.75358   0.00000  Uiso   1.00
O578   O     0.05742   0.57038   0.74423   0.00000  Uiso   1.00
C579   C     0.01570   0.59830   0.75164   0.00000  Uiso   1.00
O580   O     0.31490   0.50691   0.83380   0.00000  Uiso   1.00
O581   O     0.07463   0.49766   0.82446   0.00000  Uiso   1.00
C582   C     0.03545   0.50124   0.85504   0.00000  Uiso   1.00
Zn583  Zn    0.27119   0.50618   0.75624   0.00000  Uiso   1.00
Zn584  Zn    0.06214   0.49382   0.74377   0.00000  Uiso   1.00
O585   O     0.27592   0.42962   0.75577   0.00000  Uiso   1.00
O586   O     0.03565   0.42037   0.74643   0.00000  Uiso   1.00
O587   O     0.25870   0.50234   0.67554   0.00000  Uiso   1.00
O588   O     0.01843   0.49309   0.66620   0.00000  Uiso   1.00
C589   C     0.31896   0.40191   0.75358   0.00000  Uiso   1.00
C590   C     0.29739   0.49635   0.64509   0.00000  Uiso   1.00
C591   C     0.27267   0.43184   0.50309   0.00000  Uiso   1.00
H592   H     0.00952   0.43530   0.57441   0.00000  Uiso   1.00
H593   H     0.29293   0.40312   0.98211   0.00000  Uiso   1.00
C594   C     0.27668   0.48615   0.58583   0.00000  Uiso   1.00
C595   C     0.02419   0.53063   0.94892   0.00000  Uiso   1.00
C596   C     0.04782   0.54032   0.50535   0.00000  Uiso   1.00
C597   C     0.10203   0.52344   0.52798   0.00000  Uiso   1.00
C598   C     0.13274   0.49481   0.99431   0.00000  Uiso   1.00
C599   C     0.10422   0.47823   0.93986   0.00000  Uiso   1.00
C600   C     0.19068   0.48217   0.51287   0.00000  Uiso   1.00
C601   C     0.21665   0.44724   0.98060   0.00000  Uiso   1.00
C602   C     0.18471   0.42703   0.92828   0.00000  Uiso   1.00
C603   C     0.12814   0.44074   0.90996   0.00000  Uiso   1.00
C604   C     0.22390   0.50445   0.56266   0.00000  Uiso   1.00
C605   C     0.30194   0.45046   0.55597   0.00000  Uiso   1.00
C606   C     0.05328   0.50116   0.91563   0.00000  Uiso   1.00
H607   H     0.20855   0.53485   0.58589   0.00000  Uiso   1.00
H608   H     0.31754   0.54755   0.93097   0.00000  Uiso   1.00
H609   H     0.11811   0.53235   0.57206   0.00000  Uiso   1.00
H610   H     0.02504   0.56253   0.53125   0.00000  Uiso   1.00
H611   H     0.10333   0.42274   0.87094   0.00000  Uiso   1.00
C612   C     0.02355   0.65314   0.75392   0.00000  Uiso   1.00
H613   H     0.06231   0.33654   0.74054   0.00000  Uiso   1.00
C614   C     0.31378   0.34839   0.76413   0.00000  Uiso   1.00
N615   N     0.14493   0.48556   0.73543   0.00000  Uiso   1.00
H616   H     0.15676   0.45867   0.70866   0.00000  Uiso   1.00
N617   N     0.18840   0.51444   0.76458   0.00000  Uiso   1.00
H618   H     0.17659   0.54130   0.79139   0.00000  Uiso   1.00
N619   N     0.26551   0.66177   0.78826   0.00000  Uiso   1.00
O620   O     0.21223   0.33636   0.76484   0.00000  Uiso   1.00
O621   O     0.27516   0.63837   0.83540   0.00000  Uiso   1.00
C622   C     0.20919   0.39449   0.88923   0.00000  Uiso   1.00
H623   H     0.18104   0.36448   0.86260   0.00000  Uiso   1.00
O624   O     0.25951   0.40334   0.88345   0.00000  Uiso   1.00
O625   O     0.63102   0.57963   0.75358   0.00000  Uiso   1.00
O626   O     0.39075   0.57038   0.74423   0.00000  Uiso   1.00
C627   C     0.34903   0.59830   0.75164   0.00000  Uiso   1.00
O628   O     0.64823   0.50691   0.83380   0.00000  Uiso   1.00
O629   O     0.40796   0.49766   0.82446   0.00000  Uiso   1.00
C630   C     0.36878   0.50124   0.85504   0.00000  Uiso   1.00
Zn631  Zn    0.60453   0.50618   0.75624   0.00000  Uiso   1.00
Zn632  Zn    0.39547   0.49382   0.74377   0.00000  Uiso   1.00
O633   O     0.60925   0.42962   0.75577   0.00000  Uiso   1.00
O634   O     0.36898   0.42037   0.74643   0.00000  Uiso   1.00
O635   O     0.59204   0.50234   0.67554   0.00000  Uiso   1.00
O636   O     0.35177   0.49309   0.66620   0.00000  Uiso   1.00
C637   C     0.65229   0.40191   0.75358   0.00000  Uiso   1.00
C638   C     0.63073   0.49635   0.64509   0.00000  Uiso   1.00
C639   C     0.60600   0.43184   0.50309   0.00000  Uiso   1.00
H640   H     0.34285   0.43530   0.57441   0.00000  Uiso   1.00
H641   H     0.62626   0.40312   0.98211   0.00000  Uiso   1.00
C642   C     0.61001   0.48615   0.58583   0.00000  Uiso   1.00
C643   C     0.35752   0.53063   0.94892   0.00000  Uiso   1.00
C644   C     0.38115   0.54032   0.50535   0.00000  Uiso   1.00
C645   C     0.43537   0.52344   0.52798   0.00000  Uiso   1.00
C646   C     0.46607   0.49481   0.99431   0.00000  Uiso   1.00
C647   C     0.43756   0.47823   0.93986   0.00000  Uiso   1.00
C648   C     0.52401   0.48217   0.51287   0.00000  Uiso   1.00
C649   C     0.54998   0.44724   0.98060   0.00000  Uiso   1.00
C650   C     0.51804   0.42703   0.92828   0.00000  Uiso   1.00
C651   C     0.46147   0.44074   0.90996   0.00000  Uiso   1.00
C652   C     0.55723   0.50445   0.56266   0.00000  Uiso   1.00
C653   C     0.63527   0.45046   0.55597   0.00000  Uiso   1.00
C654   C     0.38662   0.50116   0.91563   0.00000  Uiso   1.00
H655   H     0.54189   0.53485   0.58589   0.00000  Uiso   1.00
H656   H     0.65088   0.54755   0.93097   0.00000  Uiso   1.00
H657   H     0.45144   0.53235   0.57206   0.00000  Uiso   1.00
H658   H     0.35838   0.56253   0.53125   0.00000  Uiso   1.00
H659   H     0.43667   0.42274   0.87094   0.00000  Uiso   1.00
C660   C     0.35688   0.65314   0.75392   0.00000  Uiso   1.00
H661   H     0.39564   0.33654   0.74054   0.00000  Uiso   1.00
C662   C     0.64712   0.34839   0.76413   0.00000  Uiso   1.00
N663   N     0.47827   0.48556   0.73543   0.00000  Uiso   1.00
H664   H     0.49009   0.45867   0.70866   0.00000  Uiso   1.00
N665   N     0.52173   0.51444   0.76458   0.00000  Uiso   1.00
H666   H     0.50993   0.54130   0.79139   0.00000  Uiso   1.00
N667   N     0.59884   0.66177   0.78826   0.00000  Uiso   1.00
O668   O     0.54556   0.33636   0.76484   0.00000  Uiso   1.00
O669   O     0.60849   0.63837   0.83540   0.00000  Uiso   1.00
C670   C     0.54252   0.39449   0.88923   0.00000  Uiso   1.00
H671   H     0.51438   0.36448   0.86260   0.00000  Uiso   1.00
O672   O     0.59285   0.40334   0.88345   0.00000  Uiso   1.00
O673   O     0.96435   0.57963   0.75358   0.00000  Uiso   1.00
O674   O     0.72408   0.57038   0.74423   0.00000  Uiso   1.00
C675   C     0.68237   0.59830   0.75164   0.00000  Uiso   1.00
O676   O     0.98157   0.50691   0.83380   0.00000  Uiso   1.00
O677   O     0.74130   0.49766   0.82446   0.00000  Uiso   1.00
C678   C     0.70211   0.50124   0.85504   0.00000  Uiso   1.00
Zn679  Zn    0.93786   0.50618   0.75624   0.00000  Uiso   1.00
Zn680  Zn    0.72881   0.49382   0.74377   0.00000  Uiso   1.00
O681   O     0.94258   0.42962   0.75577   0.00000  Uiso   1.00
O682   O     0.70231   0.42037   0.74643   0.00000  Uiso   1.00
O683   O     0.92537   0.50234   0.67554   0.00000  Uiso   1.00
O684   O     0.68510   0.49309   0.66620   0.00000  Uiso   1.00
C685   C     0.98562   0.40191   0.75358   0.00000  Uiso   1.00
C686   C     0.96406   0.49635   0.64509   0.00000  Uiso   1.00
C687   C     0.93934   0.43184   0.50309   0.00000  Uiso   1.00
H688   H     0.67618   0.43530   0.57441   0.00000  Uiso   1.00
H689   H     0.95960   0.40312   0.98211   0.00000  Uiso   1.00
C690   C     0.94334   0.48615   0.58583   0.00000  Uiso   1.00
C691   C     0.69086   0.53063   0.94892   0.00000  Uiso   1.00
C692   C     0.71449   0.54032   0.50535   0.00000  Uiso   1.00
C693   C     0.76870   0.52344   0.52798   0.00000  Uiso   1.00
C694   C     0.79941   0.49481   0.99431   0.00000  Uiso   1.00
C695   C     0.77089   0.47823   0.93986   0.00000  Uiso   1.00
C696   C     0.85734   0.48217   0.51287   0.00000  Uiso   1.00
C697   C     0.88331   0.44724   0.98060   0.00000  Uiso   1.00
C698   C     0.85137   0.42703   0.92828   0.00000  Uiso   1.00
C699   C     0.79481   0.44074   0.90996   0.00000  Uiso   1.00
C700   C     0.89056   0.50445   0.56266   0.00000  Uiso   1.00
C701   C     0.96860   0.45046   0.55597   0.00000  Uiso   1.00
C702   C     0.71995   0.50116   0.91563   0.00000  Uiso   1.00
H703   H     0.87522   0.53485   0.58589   0.00000  Uiso   1.00
H704   H     0.98421   0.54755   0.93097   0.00000  Uiso   1.00
H705   H     0.78477   0.53235   0.57206   0.00000  Uiso   1.00
H706   H     0.69171   0.56253   0.53125   0.00000  Uiso   1.00
H707   H     0.77000   0.42274   0.87094   0.00000  Uiso   1.00
C708   C     0.69022   0.65314   0.75392   0.00000  Uiso   1.00
H709   H     0.72897   0.33654   0.74054   0.00000  Uiso   1.00
C710   C     0.98045   0.34839   0.76413   0.00000  Uiso   1.00
N711   N     0.81160   0.48556   0.73543   0.00000  Uiso   1.00
H712   H     0.82343   0.45867   0.70866   0.00000  Uiso   1.00
N713   N     0.85507   0.51444   0.76458   0.00000  Uiso   1.00
H714   H     0.84326   0.54130   0.79139   0.00000  Uiso   1.00
N715   N     0.93217   0.66177   0.78826   0.00000  Uiso   1.00
O716   O     0.87890   0.33636   0.76484   0.00000  Uiso   1.00
O717   O     0.94182   0.63837   0.83540   0.00000  Uiso   1.00
C718   C     0.87585   0.39449   0.88923   0.00000  Uiso   1.00
H719   H     0.84771   0.36448   0.86260   0.00000  Uiso   1.00
O720   O     0.92618   0.40334   0.88345   0.00000  Uiso   1.00
O721   O     0.29769   0.91296   0.75358   0.00000  Uiso   1.00
O722   O     0.05742   0.90371   0.74423   0.00000  Uiso   1.00
C723   C     0.01570   0.93163   0.75164   0.00000  Uiso   1.00
O724   O     0.31490   0.84024   0.83380   0.00000  Uiso   1.00
O725   O     0.07463   0.83099   0.82446   0.00000  Uiso   1.00
C726   C     0.03545   0.83458   0.85504   0.00000  Uiso   1.00
Zn727  Zn    0.27119   0.83951   0.75624   0.00000  Uiso   1.00
Zn728  Zn    0.06214   0.82716   0.74377   0.00000  Uiso   1.00
O729   O     0.27592   0.76296   0.75577   0.00000  Uiso   1.00
O730   O     0.03565   0.75371   0.74643   0.00000  Uiso   1.00
O731   O     0.25870   0.83567   0.67554   0.00000  Uiso   1.00
O732   O     0.01843   0.82642   0.66620   0.00000  Uiso   1.00
C733   C     0.31896   0.73524   0.75358   0.00000  Uiso   1.00
C734   C     0.29739   0.82968   0.64509   0.00000  Uiso   1.00
C735   C     0.27267   0.76518   0.50309   0.00000  Uiso   1.00
H736   H     0.00952   0.76863   0.57441   0.00000  Uiso   1.00
H737   H     0.29293   0.73645   0.98211   0.00000  Uiso   1.00
C738   C     0.27668   0.81948   0.58583   0.00000  Uiso   1.00
C739   C     0.02419   0.86396   0.94892   0.00000  Uiso   1.00
C740   C     0.04782   0.87366   0.50535   0.00000  Uiso   1.00
C741   C     0.10203   0.85678   0.52798   0.00000  Uiso   1.00
C742   C     0.13274   0.82815   0.99431   0.00000  Uiso   1.00
C743   C     0.10422   0.81156   0.93986   0.00000  Uiso   1.00
C744   C     0.19068   0.81550   0.51287   0.00000  Uiso   1.00
C745   C     0.21665   0.78058   0.98060   0.00000  Uiso   1.00
C746   C     0.18471   0.76036   0.92828   0.00000  Uiso   1.00
C747   C     0.12814   0.77408   0.90996   0.00000  Uiso   1.00
C748   C     0.22390   0.83778   0.56266   0.00000  Uiso   1.00
C749   C     0.30194   0.78379   0.55597   0.00000  Uiso   1.00
C750   C     0.05328   0.83449   0.91563   0.00000  Uiso   1.00
H751   H     0.20855   0.86818   0.58589   0.00000  Uiso   1.00
H752   H     0.31754   0.88088   0.93097   0.00000  Uiso   1.00
H753   H     0.11811   0.86569   0.57206   0.00000  Uiso   1.00
H754   H     0.02504   0.89586   0.53125   0.00000  Uiso   1.00
H755   H     0.10333   0.75608   0.87094   0.00000  Uiso   1.00
C756   C     0.02355   0.98648   0.75392   0.00000  Uiso   1.00
H757   H     0.06231   0.66987   0.74054   0.00000  Uiso   1.00
C758   C     0.31378   0.68172   0.76413   0.00000  Uiso   1.00
N759   N     0.14493   0.81890   0.73543   0.00000  Uiso   1.00
H760   H     0.15676   0.79201   0.70866   0.00000  Uiso   1.00
N761   N     0.18840   0.84777   0.76458   0.00000  Uiso   1.00
H762   H     0.17659   0.87463   0.79139   0.00000  Uiso   1.00
N763   N     0.26551   0.99510   0.78826   0.00000  Uiso   1.00
O764   O     0.21223   0.66969   0.76484   0.00000  Uiso   1.00
O765   O     0.27516   0.97170   0.83540   0.00000  Uiso   1.00
C766   C     0.20919   0.72782   0.88923   0.00000  Uiso   1.00
H767   H     0.18104   0.69782   0.86260   0.00000  Uiso   1.00
O768   O     0.25951   0.73668   0.88345   0.00000  Uiso   1.00
O769   O     0.63102   0.91296   0.75358   0.00000  Uiso   1.00
O770   O     0.39075   0.90371   0.74423   0.00000  Uiso   1.00
C771   C     0.34903   0.93163   0.75164   0.00000  Uiso   1.00
O772   O     0.64823   0.84024   0.83380   0.00000  Uiso   1.00
O773   O     0.40796   0.83099   0.82446   0.00000  Uiso   1.00
C774   C     0.36878   0.83458   0.85504   0.00000  Uiso   1.00
Zn775  Zn    0.60453   0.83951   0.75624   0.00000  Uiso   1.00
Zn776  Zn    0.39547   0.82716   0.74377   0.00000  Uiso   1.00
O777   O     0.60925   0.76296   0.75577   0.00000  Uiso   1.00
O778   O     0.36898   0.75371   0.74643   0.00000  Uiso   1.00
O779   O     0.59204   0.83567   0.67554   0.00000  Uiso   1.00
O780   O     0.35177   0.82642   0.66620   0.00000  Uiso   1.00
C781   C     0.65229   0.73524   0.75358   0.00000  Uiso   1.00
C782   C     0.63073   0.82968   0.64509   0.00000  Uiso   1.00
C783   C     0.60600   0.76518   0.50309   0.00000  Uiso   1.00
H784   H     0.34285   0.76863   0.57441   0.00000  Uiso   1.00
H785   H     0.62626   0.73645   0.98211   0.00000  Uiso   1.00
C786   C     0.61001   0.81948   0.58583   0.00000  Uiso   1.00
C787   C     0.35752   0.86396   0.94892   0.00000  Uiso   1.00
C788   C     0.38115   0.87366   0.50535   0.00000  Uiso   1.00
C789   C     0.43537   0.85678   0.52798   0.00000  Uiso   1.00
C790   C     0.46607   0.82815   0.99431   0.00000  Uiso   1.00
C791   C     0.43756   0.81156   0.93986   0.00000  Uiso   1.00
C792   C     0.52401   0.81550   0.51287   0.00000  Uiso   1.00
C793   C     0.54998   0.78058   0.98060   0.00000  Uiso   1.00
C794   C     0.51804   0.76036   0.92828   0.00000  Uiso   1.00
C795   C     0.46147   0.77408   0.90996   0.00000  Uiso   1.00
C796   C     0.55723   0.83778   0.56266   0.00000  Uiso   1.00
C797   C     0.63527   0.78379   0.55597   0.00000  Uiso   1.00
C798   C     0.38662   0.83449   0.91563   0.00000  Uiso   1.00
H799   H     0.54189   0.86818   0.58589   0.00000  Uiso   1.00
H800   H     0.65088   0.88088   0.93097   0.00000  Uiso   1.00
H801   H     0.45144   0.86569   0.57206   0.00000  Uiso   1.00
H802   H     0.35838   0.89586   0.53125   0.00000  Uiso   1.00
H803   H     0.43667   0.75608   0.87094   0.00000  Uiso   1.00
C804   C     0.35688   0.98648   0.75392   0.00000  Uiso   1.00
H805   H     0.39564   0.66987   0.74054   0.00000  Uiso   1.00
C806   C     0.64712   0.68172   0.76413   0.00000  Uiso   1.00
N807   N     0.47827   0.81890   0.73543   0.00000  Uiso   1.00
H808   H     0.49009   0.79201   0.70866   0.00000  Uiso   1.00
N809   N     0.52173   0.84777   0.76458   0.00000  Uiso   1.00
H810   H     0.50993   0.87463   0.79139   0.00000  Uiso   1.00
N811   N     0.59884   0.99510   0.78826   0.00000  Uiso   1.00
O812   O     0.54556   0.66969   0.76484   0.00000  Uiso   1.00
O813   O     0.60849   0.97170   0.83540   0.00000  Uiso   1.00
C814   C     0.54252   0.72782   0.88923   0.00000  Uiso   1.00
H815   H     0.51438   0.69782   0.86260   0.00000  Uiso   1.00
O816   O     0.59285   0.73668   0.88345   0.00000  Uiso   1.00
O817   O     0.96435   0.91296   0.75358   0.00000  Uiso   1.00
O818   O     0.72408   0.90371   0.74423   0.00000  Uiso   1.00
C819   C     0.68237   0.93163   0.75164   0.00000  Uiso   1.00
O820   O     0.98157   0.84024   0.83380   0.00000  Uiso   1.00
O821   O     0.74130   0.83099   0.82446   0.00000  Uiso   1.00
C822   C     0.70211   0.83458   0.85504   0.00000  Uiso   1.00
Zn823  Zn    0.93786   0.83951   0.75624   0.00000  Uiso   1.00
Zn824  Zn    0.72881   0.82716   0.74377   0.00000  Uiso   1.00
O825   O     0.94258   0.76296   0.75577   0.00000  Uiso   1.00
O826   O     0.70231   0.75371   0.74643   0.00000  Uiso   1.00
O827   O     0.92537   0.83567   0.67554   0.00000  Uiso   1.00
O828   O     0.68510   0.82642   0.66620   0.00000  Uiso   1.00
C829   C     0.98562   0.73524   0.75358   0.00000  Uiso   1.00
C830   C     0.96406   0.82968   0.64509   0.00000  Uiso   1.00
C831   C     0.93934   0.76518   0.50309   0.00000  Uiso   1.00
H832   H     0.67618   0.76863   0.57441   0.00000  Uiso   1.00
H833   H     0.95960   0.73645   0.98211   0.00000  Uiso   1.00
C834   C     0.94334   0.81948   0.58583   0.00000  Uiso   1.00
C835   C     0.69086   0.86396   0.94892   0.00000  Uiso   1.00
C836   C     0.71449   0.87366   0.50535   0.00000  Uiso   1.00
C837   C     0.76870   0.85678   0.52798   0.00000  Uiso   1.00
C838   C     0.79941   0.82815   0.99431   0.00000  Uiso   1.00
C839   C     0.77089   0.81156   0.93986   0.00000  Uiso   1.00
C840   C     0.85734   0.81550   0.51287   0.00000  Uiso   1.00
C841   C     0.88331   0.78058   0.98060   0.00000  Uiso   1.00
C842   C     0.85137   0.76036   0.92828   0.00000  Uiso   1.00
C843   C     0.79481   0.77408   0.90996   0.00000  Uiso   1.00
C844   C     0.89056   0.83778   0.56266   0.00000  Uiso   1.00
C845   C     0.96860   0.78379   0.55597   0.00000  Uiso   1.00
C846   C     0.71995   0.83449   0.91563   0.00000  Uiso   1.00
H847   H     0.87522   0.86818   0.58589   0.00000  Uiso   1.00
H848   H     0.98421   0.88088   0.93097   0.00000  Uiso   1.00
H849   H     0.78477   0.86569   0.57206   0.00000  Uiso   1.00
H850   H     0.69171   0.89586   0.53125   0.00000  Uiso   1.00
H851   H     0.77000   0.75608   0.87094   0.00000  Uiso   1.00
C852   C     0.69022   0.98648   0.75392   0.00000  Uiso   1.00
H853   H     0.72897   0.66987   0.74054   0.00000  Uiso   1.00
C854   C     0.98045   0.68172   0.76413   0.00000  Uiso   1.00
N855   N     0.81160   0.81890   0.73543   0.00000  Uiso   1.00
H856   H     0.82343   0.79201   0.70866   0.00000  Uiso   1.00
N857   N     0.85507   0.84777   0.76458   0.00000  Uiso   1.00
H858   H     0.84326   0.87463   0.79139   0.00000  Uiso   1.00
N859   N     0.93217   0.99510   0.78826   0.00000  Uiso   1.00
O860   O     0.87890   0.66969   0.76484   0.00000  Uiso   1.00
O861   O     0.94182   0.97170   0.83540   0.00000  Uiso   1.00
C862   C     0.87585   0.72782   0.88923   0.00000  Uiso   1.00
H863   H     0.84771   0.69782   0.86260   0.00000  Uiso   1.00
O864   O     0.92618   0.73668   0.88345   0.00000  Uiso   1.00
loop_
_geom_bond_atom_site_label_1
_geom_bond_atom_site_label_2
_geom_bond_distance
_geom_bond_site_symmetry_2
_ccdc_geom_bond_type
O1     Zn7     1.955   .     S
O1     C51     1.272   .     S
O2     C3      1.296   .     A
O2     Zn8     1.987   .     S
C3     C36     1.411   .     S
C3     O97     1.272   1_455 S
O4     Zn7     1.964   .     S
O4     C54     1.289   .     S
O5     Zn8     1.930   .     S
O5     C6      1.299   .     A
C6     C30     1.454   .     S
C6     O100    1.289   1_455 S
Zn7    O11     1.930   .     S
Zn7    N41     2.018   .     S
Zn7    O9      1.987   .     S
Zn8    N39     2.018   .     S
Zn8    O12     1.964   .     S
Zn8    O10     1.955   .     S
O9     C13     1.290   .     A
O10    C109    1.277   1_455 S
O11    C14     1.296   .     A
O12    C110    1.287   1_455 S
C13    C38     1.412   .     S
C13    O58     1.277   .     S
C14    C18     1.440   .     S
C14    O60     1.287   .     S
C15    C29     1.388   .     A
C15    H449    1.080   1_554 S
C15    C457    1.412   1_554 S
H16    C125    1.083   1_455 S
H17    C447    1.080   .     S
C18    C29     1.395   .     A
C18    C28     1.380   .     A
C19    C30     1.402   .     A
C19    C452    1.386   .     S
C19    H128    1.083   1_455 S
C20    H34     1.083   .     S
C20    C21     1.391   .     A
C20    C451    1.386   1_554 S
C21    H33     1.078   .     S
C21    C454    1.421   1_554 S
C22    C23     1.402   .     A
C22    C453    1.421   .     S
C22    C456    1.411   .     S
C23    C27     1.409   .     A
C23    C30     1.406   .     A
C24    C28     1.388   .     A
C24    C454    1.411   1_554 S
C24    C457    1.427   1_554 S
C25    C26     1.408   .     A
C25    C447    1.412   .     S
C25    C456    1.427   .     S
C26    C27     1.390   .     A
C26    C46     1.479   .     S
C27    H35     1.083   .     S
C28    H31     1.079   .     S
C29    H64     1.083   .     S
H32    C67     1.083   .     S
C36    H181    1.088   .     S
C36    C278    1.353   1_455 S
H37    C324    1.088   1_545 S
C38    C372    1.353   1_545 S
C38    N331    1.443   1_545 S
N39    N41     1.290   .     D
N39    H40     1.029   .     S
N41    H42     1.029   .     S
N43    O45     1.302   .     A
N43    C182    1.443   .     S
N43    O188    1.301   .     S
O44    N331    1.301   1_545 S
C46    O48     1.221   .     D
C46    H47     1.086   .     S
O49    Zn55    1.955   .     S
O49    C99     1.272   .     S
O50    C51     1.296   .     A
O50    Zn56    1.987   .     S
C51    C84     1.411   .     S
O52    Zn55    1.964   .     S
O52    C102    1.289   .     S
O53    Zn56    1.930   .     S
O53    C54     1.299   .     A
C54    C78     1.454   .     S
Zn55   O59     1.930   .     S
Zn55   N89     2.018   .     S
Zn55   O57     1.987   .     S
Zn56   N87     2.018   .     S
Zn56   O60     1.964   .     S
Zn56   O58     1.955   .     S
O57    C61     1.290   .     A
O59    C62     1.296   .     A
C61    C86     1.412   .     S
C61    O106    1.277   .     S
C62    C66     1.440   .     S
C62    O108    1.287   .     S
C63    C77     1.388   .     A
C63    H497    1.080   1_554 S
C63    C505    1.412   1_554 S
H65    C495    1.080   .     S
C66    C77     1.395   .     A
C66    C76     1.380   .     A
C67    C78     1.402   .     A
C67    C500    1.386   .     S
C68    H82     1.083   .     S
C68    C69     1.391   .     A
C68    C499    1.386   1_554 S
C69    H81     1.078   .     S
C69    C502    1.421   1_554 S
C70    C71     1.402   .     A
C70    C501    1.421   .     S
C70    C504    1.411   .     S
C71    C75     1.409   .     A
C71    C78     1.406   .     A
C72    C76     1.388   .     A
C72    C502    1.411   1_554 S
C72    C505    1.427   1_554 S
C73    C74     1.408   .     A
C73    C495    1.412   .     S
C73    C504    1.427   .     S
C74    C75     1.390   .     A
C74    C94     1.479   .     S
C75    H83     1.083   .     S
C76    H79     1.079   .     S
C77    H112    1.083   .     S
H80    C115    1.083   .     S
C84    H229    1.088   .     S
C84    C182    1.353   .     S
H85    C372    1.088   1_545 S
C86    C420    1.353   1_545 S
C86    N379    1.443   1_545 S
N87    N89     1.290   .     D
N87    H88     1.029   .     S
N89    H90     1.029   .     S
N91    O93     1.302   .     A
N91    C230    1.443   .     S
N91    O236    1.301   .     S
O92    N379    1.301   1_545 S
C94    O96     1.221   .     D
C94    H95     1.086   .     S
O97    Zn103   1.955   .     S
O97    C3      1.272   1_655 S
O98    C99     1.296   .     A
O98    Zn104   1.987   .     S
C99    C132    1.411   .     S
O100   Zn103   1.964   .     S
O100   C6      1.289   1_655 S
O101   Zn104   1.930   .     S
O101   C102    1.299   .     A
C102   C126    1.454   .     S
Zn103  O107    1.930   .     S
Zn103  N137    2.018   .     S
Zn103  O105    1.987   .     S
Zn104  N135    2.018   .     S
Zn104  O108    1.964   .     S
Zn104  O106    1.955   .     S
O105   C109    1.290   .     A
O107   C110    1.296   .     A
C109   C134    1.412   .     S
C109   O10     1.277   1_655 S
C110   C114    1.440   .     S
C110   O12     1.287   1_655 S
C111   C125    1.388   .     A
C111   H545    1.080   1_554 S
C111   C553    1.412   1_554 S
H113   C543    1.080   .     S
C114   C125    1.395   .     A
C114   C124    1.380   .     A
C115   C126    1.402   .     A
C115   C548    1.386   .     S
C116   H130    1.083   .     S
C116   C117    1.391   .     A
C116   C547    1.386   1_554 S
C117   H129    1.078   .     S
C117   C550    1.421   1_554 S
C118   C119    1.402   .     A
C118   C549    1.421   .     S
C118   C552    1.411   .     S
C119   C123    1.409   .     A
C119   C126    1.406   .     A
C120   C124    1.388   .     A
C120   C550    1.411   1_554 S
C120   C553    1.427   1_554 S
C121   C122    1.408   .     A
C121   C543    1.412   .     S
C121   C552    1.427   .     S
C122   C123    1.390   .     A
C122   C142    1.479   .     S
C123   H131    1.083   .     S
C124   H127    1.079   .     S
C125   H16     1.083   1_655 S
H128   C19     1.083   1_655 S
C132   H277    1.088   .     S
C132   C230    1.353   .     S
H133   C420    1.088   1_545 S
C134   C324    1.353   1_645 S
C134   N427    1.443   1_545 S
N135   N137    1.290   .     D
N135   H136    1.029   .     S
N137   H138    1.029   .     S
N139   O141    1.302   .     A
N139   C278    1.443   .     S
N139   O284    1.301   .     S
O140   N427    1.301   1_545 S
C142   O144    1.221   .     D
C142   H143    1.086   .     S
O145   Zn151   1.955   .     S
O145   C195    1.272   .     S
O146   C147    1.296   .     A
O146   Zn152   1.987   .     S
C147   C180    1.411   .     S
C147   O241    1.272   1_455 S
O148   Zn151   1.964   .     S
O148   C198    1.289   .     S
O149   Zn152   1.930   .     S
O149   C150    1.299   .     A
C150   C174    1.454   .     S
C150   O244    1.289   1_455 S
Zn151  O155    1.930   .     S
Zn151  N185    2.018   .     S
Zn151  O153    1.987   .     S
Zn152  N183    2.018   .     S
Zn152  O156    1.964   .     S
Zn152  O154    1.955   .     S
O153   C157    1.290   .     A
O154   C253    1.277   1_455 S
O155   C158    1.296   .     A
O156   C254    1.287   1_455 S
C157   C182    1.412   .     S
C157   O202    1.277   .     S
C158   C162    1.440   .     S
C158   O204    1.287   .     S
C159   C173    1.388   .     A
C159   H593    1.080   1_554 S
C159   C601    1.412   1_554 S
H160   C269    1.083   1_455 S
H161   C591    1.080   .     S
C162   C173    1.395   .     A
C162   C172    1.380   .     A
C163   C174    1.402   .     A
C163   C596    1.386   .     S
C163   H272    1.083   1_455 S
C164   H178    1.083   .     S
C164   C165    1.391   .     A
C164   C595    1.386   1_554 S
C165   H177    1.078   .     S
C165   C598    1.421   1_554 S
C166   C167    1.402   .     A
C166   C597    1.421   .     S
C166   C600    1.411   .     S
C167   C171    1.409   .     A
C167   C174    1.406   .     A
C168   C172    1.388   .     A
C168   C598    1.411   1_554 S
C168   C601    1.427   1_554 S
C169   C170    1.408   .     A
C169   C591    1.412   .     S
C169   C600    1.427   .     S
C170   C171    1.390   .     A
C170   C190    1.479   .     S
C171   H179    1.083   .     S
C172   H175    1.079   .     S
C173   H208    1.083   .     S
H176   C211    1.083   .     S
C180   H325    1.088   .     S
C180   C422    1.353   1_455 S
N183   N185    1.290   .     D
N183   H184    1.029   .     S
N185   H186    1.029   .     S
N187   O189    1.302   .     A
N187   C326    1.443   .     S
N187   O332    1.301   .     S
C190   O192    1.221   .     D
C190   H191    1.086   .     S
O193   Zn199   1.955   .     S
O193   C243    1.272   .     S
O194   C195    1.296   .     A
O194   Zn200   1.987   .     S
C195   C228    1.411   .     S
O196   Zn199   1.964   .     S
O196   C246    1.289   .     S
O197   Zn200   1.930   .     S
O197   C198    1.299   .     A
C198   C222    1.454   .     S
Zn199  O203    1.930   .     S
Zn199  N233    2.018   .     S
Zn199  O201    1.987   .     S
Zn200  N231    2.018   .     S
Zn200  O204    1.964   .     S
Zn200  O202    1.955   .     S
O201   C205    1.290   .     A
O203   C206    1.296   .     A
C205   C230    1.412   .     S
C205   O250    1.277   .     S
C206   C210    1.440   .     S
C206   O252    1.287   .     S
C207   C221    1.388   .     A
C207   H641    1.080   1_554 S
C207   C649    1.412   1_554 S
H209   C639    1.080   .     S
C210   C221    1.395   .     A
C210   C220    1.380   .     A
C211   C222    1.402   .     A
C211   C644    1.386   .     S
C212   H226    1.083   .     S
C212   C213    1.391   .     A
C212   C643    1.386   1_554 S
C213   H225    1.078   .     S
C213   C646    1.421   1_554 S
C214   C215    1.402   .     A
C214   C645    1.421   .     S
C214   C648    1.411   .     S
C215   C219    1.409   .     A
C215   C222    1.406   .     A
C216   C220    1.388   .     A
C216   C646    1.411   1_554 S
C216   C649    1.427   1_554 S
C217   C218    1.408   .     A
C217   C639    1.412   .     S
C217   C648    1.427   .     S
C218   C219    1.390   .     A
C218   C238    1.479   .     S
C219   H227    1.083   .     S
C220   H223    1.079   .     S
C221   H256    1.083   .     S
H224   C259    1.083   .     S
C228   H373    1.088   .     S
C228   C326    1.353   .     S
N231   N233    1.290   .     D
N231   H232    1.029   .     S
N233   H234    1.029   .     S
N235   O237    1.302   .     A
N235   C374    1.443   .     S
N235   O380    1.301   .     S
C238   O240    1.221   .     D
C238   H239    1.086   .     S
O241   Zn247   1.955   .     S
O241   C147    1.272   1_655 S
O242   C243    1.296   .     A
O242   Zn248   1.987   .     S
C243   C276    1.411   .     S
O244   Zn247   1.964   .     S
O244   C150    1.289   1_655 S
O245   Zn248   1.930   .     S
O245   C246    1.299   .     A
C246   C270    1.454   .     S
Zn247  O251    1.930   .     S
Zn247  N281    2.018   .     S
Zn247  O249    1.987   .     S
Zn248  N279    2.018   .     S
Zn248  O252    1.964   .     S
Zn248  O250    1.955   .     S
O249   C253    1.290   .     A
O251   C254    1.296   .     A
C253   C278    1.412   .     S
C253   O154    1.277   1_655 S
C254   C258    1.440   .     S
C254   O156    1.287   1_655 S
C255   C269    1.388   .     A
C255   H689    1.080   1_554 S
C255   C697    1.412   1_554 S
H257   C687    1.080   .     S
C258   C269    1.395   .     A
C258   C268    1.380   .     A
C259   C270    1.402   .     A
C259   C692    1.386   .     S
C260   H274    1.083   .     S
C260   C261    1.391   .     A
C260   C691    1.386   1_554 S
C261   H273    1.078   .     S
C261   C694    1.421   1_554 S
C262   C263    1.402   .     A
C262   C693    1.421   .     S
C262   C696    1.411   .     S
C263   C267    1.409   .     A
C263   C270    1.406   .     A
C264   C268    1.388   .     A
C264   C694    1.411   1_554 S
C264   C697    1.427   1_554 S
C265   C266    1.408   .     A
C265   C687    1.412   .     S
C265   C696    1.427   .     S
C266   C267    1.390   .     A
C266   C286    1.479   .     S
C267   H275    1.083   .     S
C268   H271    1.079   .     S
C269   H160    1.083   1_655 S
H272   C163    1.083   1_655 S
C276   H421    1.088   .     S
C276   C374    1.353   .     S
C278   C36     1.353   1_655 S
N279   N281    1.290   .     D
N279   H280    1.029   .     S
N281   H282    1.029   .     S
N283   O285    1.302   .     A
N283   C422    1.443   .     S
N283   O428    1.301   .     S
C286   O288    1.221   .     D
C286   H287    1.086   .     S
O289   Zn295   1.955   .     S
O289   C339    1.272   .     S
O290   C291    1.296   .     A
O290   Zn296   1.987   .     S
C291   C324    1.411   .     S
C291   O385    1.272   1_455 S
O292   Zn295   1.964   .     S
O292   C342    1.289   .     S
O293   Zn296   1.930   .     S
O293   C294    1.299   .     A
C294   C318    1.454   .     S
C294   O388    1.289   1_455 S
Zn295  O299    1.930   .     S
Zn295  N329    2.018   .     S
Zn295  O297    1.987   .     S
Zn296  N327    2.018   .     S
Zn296  O300    1.964   .     S
Zn296  O298    1.955   .     S
O297   C301    1.290   .     A
O298   C397    1.277   1_455 S
O299   C302    1.296   .     A
O300   C398    1.287   1_455 S
C301   C326    1.412   .     S
C301   O346    1.277   .     S
C302   C306    1.440   .     S
C302   O348    1.287   .     S
C303   C317    1.388   .     A
C303   H737    1.080   1_554 S
C303   C745    1.412   1_554 S
H304   C413    1.083   1_455 S
H305   C735    1.080   .     S
C306   C317    1.395   .     A
C306   C316    1.380   .     A
C307   C318    1.402   .     A
C307   C740    1.386   .     S
C307   H416    1.083   1_455 S
C308   H322    1.083   .     S
C308   C309    1.391   .     A
C308   C739    1.386   1_554 S
C309   H321    1.078   .     S
C309   C742    1.421   1_554 S
C310   C311    1.402   .     A
C310   C741    1.421   .     S
C310   C744    1.411   .     S
C311   C315    1.409   .     A
C311   C318    1.406   .     A
C312   C316    1.388   .     A
C312   C742    1.411   1_554 S
C312   C745    1.427   1_554 S
C313   C314    1.408   .     A
C313   C735    1.412   .     S
C313   C744    1.427   .     S
C314   C315    1.390   .     A
C314   C334    1.479   .     S
C315   H323    1.083   .     S
C316   H319    1.079   .     S
C317   H352    1.083   .     S
H320   C355    1.083   .     S
C324   H37     1.088   1_565 S
C324   C134    1.353   1_465 S
N327   N329    1.290   .     D
N327   H328    1.029   .     S
N329   H330    1.029   .     S
N331   O333    1.302   .     A
N331   C38     1.443   1_565 S
N331   O44     1.301   1_565 S
C334   O336    1.221   .     D
C334   H335    1.086   .     S
O337   Zn343   1.955   .     S
O337   C387    1.272   .     S
O338   C339    1.296   .     A
O338   Zn344   1.987   .     S
C339   C372    1.411   .     S
O340   Zn343   1.964   .     S
O340   C390    1.289   .     S
O341   Zn344   1.930   .     S
O341   C342    1.299   .     A
C342   C366    1.454   .     S
Zn343  O347    1.930   .     S
Zn343  N377    2.018   .     S
Zn343  O345    1.987   .     S
Zn344  N375    2.018   .     S
Zn344  O348    1.964   .     S
Zn344  O346    1.955   .     S
O345   C349    1.290   .     A
O347   C350    1.296   .     A
C349   C374    1.412   .     S
C349   O394    1.277   .     S
C350   C354    1.440   .     S
C350   O396    1.287   .     S
C351   C365    1.388   .     A
C351   H785    1.080   1_554 S
C351   C793    1.412   1_554 S
H353   C783    1.080   .     S
C354   C365    1.395   .     A
C354   C364    1.380   .     A
C355   C366    1.402   .     A
C355   C788    1.386   .     S
C356   H370    1.083   .     S
C356   C357    1.391   .     A
C356   C787    1.386   1_554 S
C357   H369    1.078   .     S
C357   C790    1.421   1_554 S
C358   C359    1.402   .     A
C358   C789    1.421   .     S
C358   C792    1.411   .     S
C359   C363    1.409   .     A
C359   C366    1.406   .     A
C360   C364    1.388   .     A
C360   C790    1.411   1_554 S
C360   C793    1.427   1_554 S
C361   C362    1.408   .     A
C361   C783    1.412   .     S
C361   C792    1.427   .     S
C362   C363    1.390   .     A
C362   C382    1.479   .     S
C363   H371    1.083   .     S
C364   H367    1.079   .     S
C365   H400    1.083   .     S
H368   C403    1.083   .     S
C372   H85     1.088   1_565 S
C372   C38     1.353   1_565 S
N375   N377    1.290   .     D
N375   H376    1.029   .     S
N377   H378    1.029   .     S
N379   O381    1.302   .     A
N379   C86     1.443   1_565 S
N379   O92     1.301   1_565 S
C382   O384    1.221   .     D
C382   H383    1.086   .     S
O385   Zn391   1.955   .     S
O385   C291    1.272   1_655 S
O386   C387    1.296   .     A
O386   Zn392   1.987   .     S
C387   C420    1.411   .     S
O388   Zn391   1.964   .     S
O388   C294    1.289   1_655 S
O389   Zn392   1.930   .     S
O389   C390    1.299   .     A
C390   C414    1.454   .     S
Zn391  O395    1.930   .     S
Zn391  N425    2.018   .     S
Zn391  O393    1.987   .     S
Zn392  N423    2.018   .     S
Zn392  O396    1.964   .     S
Zn392  O394    1.955   .     S
O393   C397    1.290   .     A
O395   C398    1.296   .     A
C397   C422    1.412   .     S
C397   O298    1.277   1_655 S
C398   C402    1.440   .     S
C398   O300    1.287   1_655 S
C399   C413    1.388   .     A
C399   H833    1.080   1_554 S
C399   C841    1.412   1_554 S
H401   C831    1.080   .     S
C402   C413    1.395   .     A
C402   C412    1.380   .     A
C403   C414    1.402   .     A
C403   C836    1.386   .     S
C404   H418    1.083   .     S
C404   C405    1.391   .     A
C404   C835    1.386   1_554 S
C405   H417    1.078   .     S
C405   C838    1.421   1_554 S
C406   C407    1.402   .     A
C406   C837    1.421   .     S
C406   C840    1.411   .     S
C407   C411    1.409   .     A
C407   C414    1.406   .     A
C408   C412    1.388   .     A
C408   C838    1.411   1_554 S
C408   C841    1.427   1_554 S
C409   C410    1.408   .     A
C409   C831    1.412   .     S
C409   C840    1.427   .     S
C410   C411    1.390   .     A
C410   C430    1.479   .     S
C411   H419    1.083   .     S
C412   H415    1.079   .     S
C413   H304    1.083   1_655 S
H416   C307    1.083   1_655 S
C420   H133    1.088   1_565 S
C420   C86     1.353   1_565 S
C422   C180    1.353   1_655 S
N423   N425    1.290   .     D
N423   H424    1.029   .     S
N425   H426    1.029   .     S
N427   O429    1.302   .     A
N427   C134    1.443   1_565 S
N427   O140    1.301   1_565 S
C430   O432    1.221   .     D
C430   H431    1.086   .     S
O433   Zn439   1.955   .     S
O433   C483    1.272   .     S
O434   C435    1.296   .     A
O434   Zn440   1.987   .     S
C435   C468    1.411   .     S
C435   O529    1.272   1_455 S
O436   Zn439   1.964   .     S
O436   C486    1.289   .     S
O437   Zn440   1.930   .     S
O437   C438    1.299   .     A
C438   C462    1.454   .     S
C438   O532    1.289   1_455 S
Zn439  O443    1.930   .     S
Zn439  N473    2.018   .     S
Zn439  O441    1.987   .     S
Zn440  N471    2.018   .     S
Zn440  O444    1.964   .     S
Zn440  O442    1.955   .     S
O441   C445    1.290   .     A
O442   C541    1.277   1_455 S
O443   C446    1.296   .     A
O444   C542    1.287   1_455 S
C445   C470    1.412   .     S
C445   O490    1.277   .     S
C446   C450    1.440   .     S
C446   O492    1.287   .     S
C447   C461    1.388   .     A
H448   C557    1.083   1_455 S
H449   C15     1.080   1_556 S
C450   C461    1.395   .     A
C450   C460    1.380   .     A
C451   C462    1.402   .     A
C451   C20     1.386   1_556 S
C451   H560    1.083   1_455 S
C452   H466    1.083   .     S
C452   C453    1.391   .     A
C453   H465    1.078   .     S
C454   C455    1.402   .     A
C454   C21     1.421   1_556 S
C454   C24     1.411   1_556 S
C455   C459    1.409   .     A
C455   C462    1.406   .     A
C456   C460    1.388   .     A
C457   C458    1.408   .     A
C457   C15     1.412   1_556 S
C457   C24     1.427   1_556 S
C458   C459    1.390   .     A
C458   C478    1.479   .     S
C459   H467    1.083   .     S
C460   H463    1.079   .     S
C461   H496    1.083   .     S
H464   C499    1.083   .     S
C468   H613    1.088   .     S
C468   C710    1.353   1_455 S
H469   C756    1.088   1_545 S
C470   C804    1.353   1_545 S
C470   N763    1.443   1_545 S
N471   N473    1.290   .     D
N471   H472    1.029   .     S
N473   H474    1.029   .     S
N475   O477    1.302   .     A
N475   C614    1.443   .     S
N475   O620    1.301   .     S
O476   N763    1.301   1_545 S
C478   O480    1.221   .     D
C478   H479    1.086   .     S
O481   Zn487   1.955   .     S
O481   C531    1.272   .     S
O482   C483    1.296   .     A
O482   Zn488   1.987   .     S
C483   C516    1.411   .     S
O484   Zn487   1.964   .     S
O484   C534    1.289   .     S
O485   Zn488   1.930   .     S
O485   C486    1.299   .     A
C486   C510    1.454   .     S
Zn487  O491    1.930   .     S
Zn487  N521    2.018   .     S
Zn487  O489    1.987   .     S
Zn488  N519    2.018   .     S
Zn488  O492    1.964   .     S
Zn488  O490    1.955   .     S
O489   C493    1.290   .     A
O491   C494    1.296   .     A
C493   C518    1.412   .     S
C493   O538    1.277   .     S
C494   C498    1.440   .     S
C494   O540    1.287   .     S
C495   C509    1.388   .     A
H497   C63     1.080   1_556 S
C498   C509    1.395   .     A
C498   C508    1.380   .     A
C499   C510    1.402   .     A
C499   C68     1.386   1_556 S
C500   H514    1.083   .     S
C500   C501    1.391   .     A
C501   H513    1.078   .     S
C502   C503    1.402   .     A
C502   C69     1.421   1_556 S
C502   C72     1.411   1_556 S
C503   C507    1.409   .     A
C503   C510    1.406   .     A
C504   C508    1.388   .     A
C505   C506    1.408   .     A
C505   C63     1.412   1_556 S
C505   C72     1.427   1_556 S
C506   C507    1.390   .     A
C506   C526    1.479   .     S
C507   H515    1.083   .     S
C508   H511    1.079   .     S
C509   H544    1.083   .     S
H512   C547    1.083   .     S
C516   H661    1.088   .     S
C516   C614    1.353   .     S
H517   C804    1.088   1_545 S
C518   C852    1.353   1_545 S
C518   N811    1.443   1_545 S
N519   N521    1.290   .     D
N519   H520    1.029   .     S
N521   H522    1.029   .     S
N523   O525    1.302   .     A
N523   C662    1.443   .     S
N523   O668    1.301   .     S
O524   N811    1.301   1_545 S
C526   O528    1.221   .     D
C526   H527    1.086   .     S
O529   Zn535   1.955   .     S
O529   C435    1.272   1_655 S
O530   C531    1.296   .     A
O530   Zn536   1.987   .     S
C531   C564    1.411   .     S
O532   Zn535   1.964   .     S
O532   C438    1.289   1_655 S
O533   Zn536   1.930   .     S
O533   C534    1.299   .     A
C534   C558    1.454   .     S
Zn535  O539    1.930   .     S
Zn535  N569    2.018   .     S
Zn535  O537    1.987   .     S
Zn536  N567    2.018   .     S
Zn536  O540    1.964   .     S
Zn536  O538    1.955   .     S
O537   C541    1.290   .     A
O539   C542    1.296   .     A
C541   C566    1.412   .     S
C541   O442    1.277   1_655 S
C542   C546    1.440   .     S
C542   O444    1.287   1_655 S
C543   C557    1.388   .     A
H545   C111    1.080   1_556 S
C546   C557    1.395   .     A
C546   C556    1.380   .     A
C547   C558    1.402   .     A
C547   C116    1.386   1_556 S
C548   H562    1.083   .     S
C548   C549    1.391   .     A
C549   H561    1.078   .     S
C550   C551    1.402   .     A
C550   C117    1.421   1_556 S
C550   C120    1.411   1_556 S
C551   C555    1.409   .     A
C551   C558    1.406   .     A
C552   C556    1.388   .     A
C553   C554    1.408   .     A
C553   C111    1.412   1_556 S
C553   C120    1.427   1_556 S
C554   C555    1.390   .     A
C554   C574    1.479   .     S
C555   H563    1.083   .     S
C556   H559    1.079   .     S
C557   H448    1.083   1_655 S
H560   C451    1.083   1_655 S
C564   H709    1.088   .     S
C564   C662    1.353   .     S
H565   C852    1.088   1_545 S
C566   C756    1.353   1_645 S
C566   N859    1.443   1_545 S
N567   N569    1.290   .     D
N567   H568    1.029   .     S
N569   H570    1.029   .     S
N571   O573    1.302   .     A
N571   C710    1.443   .     S
N571   O716    1.301   .     S
O572   N859    1.301   1_545 S
C574   O576    1.221   .     D
C574   H575    1.086   .     S
O577   Zn583   1.955   .     S
O577   C627    1.272   .     S
O578   C579    1.296   .     A
O578   Zn584   1.987   .     S
C579   C612    1.411   .     S
C579   O673    1.272   1_455 S
O580   Zn583   1.964   .     S
O580   C630    1.289   .     S
O581   Zn584   1.930   .     S
O581   C582    1.299   .     A
C582   C606    1.454   .     S
C582   O676    1.289   1_455 S
Zn583  O587    1.930   .     S
Zn583  N617    2.018   .     S
Zn583  O585    1.987   .     S
Zn584  N615    2.018   .     S
Zn584  O588    1.964   .     S
Zn584  O586    1.955   .     S
O585   C589    1.290   .     A
O586   C685    1.277   1_455 S
O587   C590    1.296   .     A
O588   C686    1.287   1_455 S
C589   C614    1.412   .     S
C589   O634    1.277   .     S
C590   C594    1.440   .     S
C590   O636    1.287   .     S
C591   C605    1.388   .     A
H592   C701    1.083   1_455 S
H593   C159    1.080   1_556 S
C594   C605    1.395   .     A
C594   C604    1.380   .     A
C595   C606    1.402   .     A
C595   C164    1.386   1_556 S
C595   H704    1.083   1_455 S
C596   H610    1.083   .     S
C596   C597    1.391   .     A
C597   H609    1.078   .     S
C598   C599    1.402   .     A
C598   C165    1.421   1_556 S
C598   C168    1.411   1_556 S
C599   C603    1.409   .     A
C599   C606    1.406   .     A
C600   C604    1.388   .     A
C601   C602    1.408   .     A
C601   C159    1.412   1_556 S
C601   C168    1.427   1_556 S
C602   C603    1.390   .     A
C602   C622    1.479   .     S
C603   H611    1.083   .     S
C604   H607    1.079   .     S
C605   H640    1.083   .     S
H608   C643    1.083   .     S
C612   H757    1.088   .     S
C612   C854    1.353   1_455 S
N615   N617    1.290   .     D
N615   H616    1.029   .     S
N617   H618    1.029   .     S
N619   O621    1.302   .     A
N619   C758    1.443   .     S
N619   O764    1.301   .     S
C622   O624    1.221   .     D
C622   H623    1.086   .     S
O625   Zn631   1.955   .     S
O625   C675    1.272   .     S
O626   C627    1.296   .     A
O626   Zn632   1.987   .     S
C627   C660    1.411   .     S
O628   Zn631   1.964   .     S
O628   C678    1.289   .     S
O629   Zn632   1.930   .     S
O629   C630    1.299   .     A
C630   C654    1.454   .     S
Zn631  O635    1.930   .     S
Zn631  N665    2.018   .     S
Zn631  O633    1.987   .     S
Zn632  N663    2.018   .     S
Zn632  O636    1.964   .     S
Zn632  O634    1.955   .     S
O633   C637    1.290   .     A
O635   C638    1.296   .     A
C637   C662    1.412   .     S
C637   O682    1.277   .     S
C638   C642    1.440   .     S
C638   O684    1.287   .     S
C639   C653    1.388   .     A
H641   C207    1.080   1_556 S
C642   C653    1.395   .     A
C642   C652    1.380   .     A
C643   C654    1.402   .     A
C643   C212    1.386   1_556 S
C644   H658    1.083   .     S
C644   C645    1.391   .     A
C645   H657    1.078   .     S
C646   C647    1.402   .     A
C646   C213    1.421   1_556 S
C646   C216    1.411   1_556 S
C647   C651    1.409   .     A
C647   C654    1.406   .     A
C648   C652    1.388   .     A
C649   C650    1.408   .     A
C649   C207    1.412   1_556 S
C649   C216    1.427   1_556 S
C650   C651    1.390   .     A
C650   C670    1.479   .     S
C651   H659    1.083   .     S
C652   H655    1.079   .     S
C653   H688    1.083   .     S
H656   C691    1.083   .     S
C660   H805    1.088   .     S
C660   C758    1.353   .     S
N663   N665    1.290   .     D
N663   H664    1.029   .     S
N665   H666    1.029   .     S
N667   O669    1.302   .     A
N667   C806    1.443   .     S
N667   O812    1.301   .     S
C670   O672    1.221   .     D
C670   H671    1.086   .     S
O673   Zn679   1.955   .     S
O673   C579    1.272   1_655 S
O674   C675    1.296   .     A
O674   Zn680   1.987   .     S
C675   C708    1.411   .     S
O676   Zn679   1.964   .     S
O676   C582    1.289   1_655 S
O677   Zn680   1.930   .     S
O677   C678    1.299   .     A
C678   C702    1.454   .     S
Zn679  O683    1.930   .     S
Zn679  N713    2.018   .     S
Zn679  O681    1.987   .     S
Zn680  N711    2.018   .     S
Zn680  O684    1.964   .     S
Zn680  O682    1.955   .     S
O681   C685    1.290   .     A
O683   C686    1.296   .     A
C685   C710    1.412   .     S
C685   O586    1.277   1_655 S
C686   C690    1.440   .     S
C686   O588    1.287   1_655 S
C687   C701    1.388   .     A
H689   C255    1.080   1_556 S
C690   C701    1.395   .     A
C690   C700    1.380   .     A
C691   C702    1.402   .     A
C691   C260    1.386   1_556 S
C692   H706    1.083   .     S
C692   C693    1.391   .     A
C693   H705    1.078   .     S
C694   C695    1.402   .     A
C694   C261    1.421   1_556 S
C694   C264    1.411   1_556 S
C695   C699    1.409   .     A
C695   C702    1.406   .     A
C696   C700    1.388   .     A
C697   C698    1.408   .     A
C697   C255    1.412   1_556 S
C697   C264    1.427   1_556 S
C698   C699    1.390   .     A
C698   C718    1.479   .     S
C699   H707    1.083   .     S
C700   H703    1.079   .     S
C701   H592    1.083   1_655 S
H704   C595    1.083   1_655 S
C708   H853    1.088   .     S
C708   C806    1.353   .     S
C710   C468    1.353   1_655 S
N711   N713    1.290   .     D
N711   H712    1.029   .     S
N713   H714    1.029   .     S
N715   O717    1.302   .     A
N715   C854    1.443   .     S
N715   O860    1.301   .     S
C718   O720    1.221   .     D
C718   H719    1.086   .     S
O721   Zn727   1.955   .     S
O721   C771    1.272   .     S
O722   C723    1.296   .     A
O722   Zn728   1.987   .     S
C723   C756    1.411   .     S
C723   O817    1.272   1_455 S
O724   Zn727   1.964   .     S
O724   C774    1.289   .     S
O725   Zn728   1.930   .     S
O725   C726    1.299   .     A
C726   C750    1.454   .     S
C726   O820    1.289   1_455 S
Zn727  O731    1.930   .     S
Zn727  N761    2.018   .     S
Zn727  O729    1.987   .     S
Zn728  N759    2.018   .     S
Zn728  O732    1.964   .     S
Zn728  O730    1.955   .     S
O729   C733    1.290   .     A
O730   C829    1.277   1_455 S
O731   C734    1.296   .     A
O732   C830    1.287   1_455 S
C733   C758    1.412   .     S
C733   O778    1.277   .     S
C734   C738    1.440   .     S
C734   O780    1.287   .     S
C735   C749    1.388   .     A
H736   C845    1.083   1_455 S
H737   C303    1.080   1_556 S
C738   C749    1.395   .     A
C738   C748    1.380   .     A
C739   C750    1.402   .     A
C739   C308    1.386   1_556 S
C739   H848    1.083   1_455 S
C740   H754    1.083   .     S
C740   C741    1.391   .     A
C741   H753    1.078   .     S
C742   C743    1.402   .     A
C742   C309    1.421   1_556 S
C742   C312    1.411   1_556 S
C743   C747    1.409   .     A
C743   C750    1.406   .     A
C744   C748    1.388   .     A
C745   C746    1.408   .     A
C745   C303    1.412   1_556 S
C745   C312    1.427   1_556 S
C746   C747    1.390   .     A
C746   C766    1.479   .     S
C747   H755    1.083   .     S
C748   H751    1.079   .     S
C749   H784    1.083   .     S
H752   C787    1.083   .     S
C756   H469    1.088   1_565 S
C756   C566    1.353   1_465 S
N759   N761    1.290   .     D
N759   H760    1.029   .     S
N761   H762    1.029   .     S
N763   O765    1.302   .     A
N763   C470    1.443   1_565 S
N763   O476    1.301   1_565 S
C766   O768    1.221   .     D
C766   H767    1.086   .     S
O769   Zn775   1.955   .     S
O769   C819    1.272   .     S
O770   C771    1.296   .     A
O770   Zn776   1.987   .     S
C771   C804    1.411   .     S
O772   Zn775   1.964   .     S
O772   C822    1.289   .     S
O773   Zn776   1.930   .     S
O773   C774    1.299   .     A
C774   C798    1.454   .     S
Zn775  O779    1.930   .     S
Zn775  N809    2.018   .     S
Zn775  O777    1.987   .     S
Zn776  N807    2.018   .     S
Zn776  O780    1.964   .     S
Zn776  O778    1.955   .     S
O777   C781    1.290   .     A
O779   C782    1.296   .     A
C781   C806    1.412   .     S
C781   O826    1.277   .     S
C782   C786    1.440   .     S
C782   O828    1.287   .     S
C783   C797    1.388   .     A
H785   C351    1.080   1_556 S
C786   C797    1.395   .     A
C786   C796    1.380   .     A
C787   C798    1.402   .     A
C787   C356    1.386   1_556 S
C788   H802    1.083   .     S
C788   C789    1.391   .     A
C789   H801    1.078   .     S
C790   C791    1.402   .     A
C790   C357    1.421   1_556 S
C790   C360    1.411   1_556 S
C791   C795    1.409   .     A
C791   C798    1.406   .     A
C792   C796    1.388   .     A
C793   C794    1.408   .     A
C793   C351    1.412   1_556 S
C793   C360    1.427   1_556 S
C794   C795    1.390   .     A
C794   C814    1.479   .     S
C795   H803    1.083   .     S
C796   H799    1.079   .     S
C797   H832    1.083   .     S
H800   C835    1.083   .     S
C804   H517    1.088   1_565 S
C804   C470    1.353   1_565 S
N807   N809    1.290   .     D
N807   H808    1.029   .     S
N809   H810    1.029   .     S
N811   O813    1.302   .     A
N811   C518    1.443   1_565 S
N811   O524    1.301   1_565 S
C814   O816    1.221   .     D
C814   H815    1.086   .     S
O817   Zn823   1.955   .     S
O817   C723    1.272   1_655 S
O818   C819    1.296   .     A
O818   Zn824   1.987   .     S
C819   C852    1.411   .     S
O820   Zn823   1.964   .     S
O820   C726    1.289   1_655 S
O821   Zn824   1.930   .     S
O821   C822    1.299   .     A
C822   C846    1.454   .     S
Zn823  O827    1.930   .     S
Zn823  N857    2.018   .     S
Zn823  O825    1.987   .     S
Zn824  N855    2.018   .     S
Zn824  O828    1.964   .     S
Zn824  O826    1.955   .     S
O825   C829    1.290   .     A
O827   C830    1.296   .     A
C829   C854    1.412   .     S
C829   O730    1.277   1_655 S
C830   C834    1.440   .     S
C830   O732    1.287   1_655 S
C831   C845    1.388   .     A
H833   C399    1.080   1_556 S
C834   C845    1.395   .     A
C834   C844    1.380   .     A
C835   C846    1.402   .     A
C835   C404    1.386   1_556 S
C836   H850    1.083   .     S
C836   C837    1.391   .     A
C837   H849    1.078   .     S
C838   C839    1.402   .     A
C838   C405    1.421   1_556 S
C838   C408    1.411   1_556 S
C839   C843    1.409   .     A
C839   C846    1.406   .     A
C840   C844    1.388   .     A
C841   C842    1.408   .     A
C841   C399    1.412   1_556 S
C841   C408    1.427   1_556 S
C842   C843    1.390   .     A
C842   C862    1.479   .     S
C843   H851    1.083   .     S
C844   H847    1.079   .     S
C845   H736    1.083   1_655 S
H848   C739    1.083   1_655 S
C852   H565    1.088   1_565 S
C852   C518    1.353   1_565 S
C854   C612    1.353   1_655 S
N855   N857    1.290   .     D
N855   H856    1.029   .     S
N857   H858    1.029   .     S
N859   O861    1.302   .     A
N859   C566    1.443   1_565 S
N859   O572    1.301   1_565 S
C862   O864    1.221   .     D
C862   H863    1.086   .     S
