data_str_m3_o1_o10_pcu_sym.125
_audit_creation_date              2020-01-03
_audit_creation_method            'Materials Studio'
_symmetry_space_group_name_H-M    'P1'
_symmetry_Int_Tables_number       1
_symmetry_cell_setting            triclinic
loop_
_symmetry_equiv_pos_as_xyz
  x,y,z
_cell_length_a                    25.7992
_cell_length_b                    31.8269
_cell_length_c                    29.8227
_cell_angle_alpha                 90.1349
_cell_angle_beta                  98.5261
_cell_angle_gamma                 90.8803
loop_
_atom_site_label
_atom_site_type_symbol
_atom_site_fract_x
_atom_site_fract_y
_atom_site_fract_z
_atom_site_U_iso_or_equiv
_atom_site_adp_type
_atom_site_occupancy
C1     C     0.16638   0.08680   0.16668   0.00000  Uiso   1.00
C2     C     0.16666   0.24652   0.16677   0.00000  Uiso   1.00
C3     C     0.06725   0.16526   0.15482   0.00000  Uiso   1.00
C4     C     0.26607   0.16724   0.17832   0.00000  Uiso   1.00
C5     C     0.01230   0.15918   0.14945   0.00000  Uiso   1.00
C6     C     0.32063   0.17427   0.18258   0.00000  Uiso   1.00
C7     C     0.12991   0.02097   0.13565   0.00000  Uiso   1.00
C8     C     0.20067   0.31227   0.19991   0.00000  Uiso   1.00
C9     C     0.13068   0.31118   0.13501   0.00000  Uiso   1.00
C10    C     0.20073   0.02208   0.19977   0.00000  Uiso   1.00
C11    C     0.16622   0.29065   0.16704   0.00000  Uiso   1.00
C12    C     0.16591   0.04263   0.16712   0.00000  Uiso   1.00
C13    C     0.19474   0.19635   0.02741   0.00000  Uiso   1.00
C14    C     0.13673   0.13840   0.30551   0.00000  Uiso   1.00
C15    C     0.19688   0.19503   0.31311   0.00000  Uiso   1.00
C16    C     0.14049   0.13594   0.02035   0.00000  Uiso   1.00
H17    H     0.10102   0.03746   0.11244   0.00000  Uiso   1.00
H18    H     0.22782   0.29583   0.22482   0.00000  Uiso   1.00
H19    H     0.10316   0.29388   0.11046   0.00000  Uiso   1.00
H20    H     0.22805   0.03938   0.22449   0.00000  Uiso   1.00
N21    N     0.16665   0.16666   0.28573   0.00000  Uiso   1.00
N22    N     0.16668   0.16668   0.04760   0.00000  Uiso   1.00
O23    O     0.16666   0.10558   0.20487   0.00000  Uiso   1.00
O24    O     0.16667   0.22775   0.12846   0.00000  Uiso   1.00
O25    O     0.16666   0.10559   0.12843   0.00000  Uiso   1.00
O26    O     0.16667   0.22774   0.20490   0.00000  Uiso   1.00
O27    O     0.09058   0.16666   0.19595   0.00000  Uiso   1.00
O28    O     0.24275   0.16667   0.13739   0.00000  Uiso   1.00
O29    O     0.09058   0.16667   0.11950   0.00000  Uiso   1.00
O30    O     0.24275   0.16666   0.21383   0.00000  Uiso   1.00
Zn31   Zn    0.16667   0.16666   0.21771   0.00000  Uiso   1.00
Zn32   Zn    0.16667   0.16667   0.11563   0.00000  Uiso   1.00
O33    O     0.32168   0.12988   0.11784   0.00000  Uiso   1.00
C34    C     0.32182   0.14470   0.07324   0.00000  Uiso   1.00
H35    H     0.02302   0.13260   0.05945   0.00000  Uiso   1.00
H36    H     0.32082   0.17960   0.07067   0.00000  Uiso   1.00
H37    H     0.28630   0.13215   0.05150   0.00000  Uiso   1.00
O38    O     0.01087   0.20153   0.21627   0.00000  Uiso   1.00
C39    C     0.00752   0.24295   0.19927   0.00000  Uiso   1.00
H40    H     0.02673   0.26466   0.22604   0.00000  Uiso   1.00
H41    H     0.29931   0.25257   0.19040   0.00000  Uiso   1.00
H42    H     0.02844   0.24660   0.16940   0.00000  Uiso   1.00
Cl43   Cl    0.22877   0.23684   0.06021   0.00000  Uiso   1.00
Cl44   Cl    0.09176   0.10539   0.27125   0.00000  Uiso   1.00
O45    O     0.22566   0.22482   0.29340   0.00000  Uiso   1.00
C46    C     0.27923   0.21452   0.30197   0.00000  Uiso   1.00
H47    H     0.28626   0.18097   0.29446   0.00000  Uiso   1.00
H48    H     0.29675   0.22203   0.00394   0.00000  Uiso   1.00
H49    H     0.30043   0.23439   0.28012   0.00000  Uiso   1.00
O50    O     0.11666   0.10288   0.03970   0.00000  Uiso   1.00
C51    C     0.14503   0.06578   0.03460   0.00000  Uiso   1.00
H52    H     0.12000   0.03819   0.03988   0.00000  Uiso   1.00
H53    H     0.18117   0.06496   0.05991   0.00000  Uiso   1.00
H54    H     0.15638   0.06155   0.00036   0.00000  Uiso   1.00
C55    C     0.49971   0.08680   0.16668   0.00000  Uiso   1.00
C56    C     0.49999   0.24652   0.16677   0.00000  Uiso   1.00
C57    C     0.40059   0.16526   0.15482   0.00000  Uiso   1.00
C58    C     0.59940   0.16724   0.17832   0.00000  Uiso   1.00
C59    C     0.34563   0.15918   0.14945   0.00000  Uiso   1.00
C60    C     0.65396   0.17427   0.18258   0.00000  Uiso   1.00
C61    C     0.46325   0.02097   0.13565   0.00000  Uiso   1.00
C62    C     0.53400   0.31227   0.19991   0.00000  Uiso   1.00
C63    C     0.46401   0.31118   0.13501   0.00000  Uiso   1.00
C64    C     0.53407   0.02208   0.19977   0.00000  Uiso   1.00
C65    C     0.49955   0.29065   0.16704   0.00000  Uiso   1.00
C66    C     0.49924   0.04263   0.16712   0.00000  Uiso   1.00
C67    C     0.52808   0.19635   0.02741   0.00000  Uiso   1.00
C68    C     0.47006   0.13840   0.30551   0.00000  Uiso   1.00
C69    C     0.53021   0.19503   0.31311   0.00000  Uiso   1.00
C70    C     0.47382   0.13594   0.02035   0.00000  Uiso   1.00
H71    H     0.43435   0.03746   0.11244   0.00000  Uiso   1.00
H72    H     0.56116   0.29583   0.22482   0.00000  Uiso   1.00
H73    H     0.43649   0.29388   0.11046   0.00000  Uiso   1.00
H74    H     0.56138   0.03938   0.22449   0.00000  Uiso   1.00
N75    N     0.49999   0.16666   0.28573   0.00000  Uiso   1.00
N76    N     0.50001   0.16668   0.04760   0.00000  Uiso   1.00
O77    O     0.50000   0.10558   0.20487   0.00000  Uiso   1.00
O78    O     0.50000   0.22775   0.12846   0.00000  Uiso   1.00
O79    O     0.50000   0.10559   0.12843   0.00000  Uiso   1.00
O80    O     0.50000   0.22774   0.20490   0.00000  Uiso   1.00
O81    O     0.42392   0.16666   0.19595   0.00000  Uiso   1.00
O82    O     0.57608   0.16667   0.13739   0.00000  Uiso   1.00
O83    O     0.42392   0.16667   0.11950   0.00000  Uiso   1.00
O84    O     0.57608   0.16666   0.21383   0.00000  Uiso   1.00
Zn85   Zn    0.50000   0.16666   0.21771   0.00000  Uiso   1.00
Zn86   Zn    0.50000   0.16667   0.11563   0.00000  Uiso   1.00
O87    O     0.65502   0.12988   0.11784   0.00000  Uiso   1.00
C88    C     0.65515   0.14470   0.07324   0.00000  Uiso   1.00
H89    H     0.35636   0.13260   0.05945   0.00000  Uiso   1.00
H90    H     0.65416   0.17960   0.07067   0.00000  Uiso   1.00
H91    H     0.61963   0.13215   0.05150   0.00000  Uiso   1.00
O92    O     0.34420   0.20153   0.21627   0.00000  Uiso   1.00
C93    C     0.34086   0.24295   0.19927   0.00000  Uiso   1.00
H94    H     0.36006   0.26466   0.22604   0.00000  Uiso   1.00
H95    H     0.63264   0.25257   0.19040   0.00000  Uiso   1.00
H96    H     0.36178   0.24660   0.16940   0.00000  Uiso   1.00
Cl97   Cl    0.56210   0.23684   0.06021   0.00000  Uiso   1.00
Cl98   Cl    0.42509   0.10539   0.27125   0.00000  Uiso   1.00
O99    O     0.55899   0.22482   0.29340   0.00000  Uiso   1.00
C100   C     0.61257   0.21452   0.30197   0.00000  Uiso   1.00
H101   H     0.61959   0.18097   0.29446   0.00000  Uiso   1.00
H102   H     0.63009   0.22203   0.00394   0.00000  Uiso   1.00
H103   H     0.63377   0.23439   0.28012   0.00000  Uiso   1.00
O104   O     0.44999   0.10288   0.03970   0.00000  Uiso   1.00
C105   C     0.47836   0.06578   0.03460   0.00000  Uiso   1.00
H106   H     0.45334   0.03819   0.03988   0.00000  Uiso   1.00
H107   H     0.51450   0.06496   0.05991   0.00000  Uiso   1.00
H108   H     0.48972   0.06155   0.00036   0.00000  Uiso   1.00
C109   C     0.83304   0.08680   0.16668   0.00000  Uiso   1.00
C110   C     0.83332   0.24652   0.16677   0.00000  Uiso   1.00
C111   C     0.73392   0.16526   0.15482   0.00000  Uiso   1.00
C112   C     0.93274   0.16724   0.17832   0.00000  Uiso   1.00
C113   C     0.67896   0.15918   0.14945   0.00000  Uiso   1.00
C114   C     0.98729   0.17427   0.18258   0.00000  Uiso   1.00
C115   C     0.79658   0.02097   0.13565   0.00000  Uiso   1.00
C116   C     0.86733   0.31227   0.19991   0.00000  Uiso   1.00
C117   C     0.79734   0.31118   0.13501   0.00000  Uiso   1.00
C118   C     0.86740   0.02208   0.19977   0.00000  Uiso   1.00
C119   C     0.83289   0.29065   0.16704   0.00000  Uiso   1.00
C120   C     0.83257   0.04263   0.16712   0.00000  Uiso   1.00
C121   C     0.86141   0.19635   0.02741   0.00000  Uiso   1.00
C122   C     0.80340   0.13840   0.30551   0.00000  Uiso   1.00
C123   C     0.86355   0.19503   0.31311   0.00000  Uiso   1.00
C124   C     0.80716   0.13594   0.02035   0.00000  Uiso   1.00
H125   H     0.76768   0.03746   0.11244   0.00000  Uiso   1.00
H126   H     0.89449   0.29583   0.22482   0.00000  Uiso   1.00
H127   H     0.76982   0.29388   0.11046   0.00000  Uiso   1.00
H128   H     0.89471   0.03938   0.22449   0.00000  Uiso   1.00
N129   N     0.83332   0.16666   0.28573   0.00000  Uiso   1.00
N130   N     0.83335   0.16668   0.04760   0.00000  Uiso   1.00
O131   O     0.83333   0.10558   0.20487   0.00000  Uiso   1.00
O132   O     0.83334   0.22775   0.12846   0.00000  Uiso   1.00
O133   O     0.83333   0.10559   0.12843   0.00000  Uiso   1.00
O134   O     0.83334   0.22774   0.20490   0.00000  Uiso   1.00
O135   O     0.75725   0.16666   0.19595   0.00000  Uiso   1.00
O136   O     0.90942   0.16667   0.13739   0.00000  Uiso   1.00
O137   O     0.75725   0.16667   0.11950   0.00000  Uiso   1.00
O138   O     0.90942   0.16666   0.21383   0.00000  Uiso   1.00
Zn139  Zn    0.83333   0.16666   0.21771   0.00000  Uiso   1.00
Zn140  Zn    0.83333   0.16667   0.11563   0.00000  Uiso   1.00
O141   O     0.98835   0.12988   0.11784   0.00000  Uiso   1.00
C142   C     0.98848   0.14470   0.07324   0.00000  Uiso   1.00
H143   H     0.68969   0.13260   0.05945   0.00000  Uiso   1.00
H144   H     0.98749   0.17960   0.07067   0.00000  Uiso   1.00
H145   H     0.95296   0.13215   0.05150   0.00000  Uiso   1.00
O146   O     0.67754   0.20153   0.21627   0.00000  Uiso   1.00
C147   C     0.67419   0.24295   0.19927   0.00000  Uiso   1.00
H148   H     0.69339   0.26466   0.22604   0.00000  Uiso   1.00
H149   H     0.96597   0.25257   0.19040   0.00000  Uiso   1.00
H150   H     0.69511   0.24660   0.16940   0.00000  Uiso   1.00
Cl151  Cl    0.89543   0.23684   0.06021   0.00000  Uiso   1.00
Cl152  Cl    0.75842   0.10539   0.27125   0.00000  Uiso   1.00
O153   O     0.89233   0.22482   0.29340   0.00000  Uiso   1.00
C154   C     0.94590   0.21452   0.30197   0.00000  Uiso   1.00
H155   H     0.95292   0.18097   0.29446   0.00000  Uiso   1.00
H156   H     0.96342   0.22203   0.00394   0.00000  Uiso   1.00
H157   H     0.96710   0.23439   0.28012   0.00000  Uiso   1.00
O158   O     0.78332   0.10288   0.03970   0.00000  Uiso   1.00
C159   C     0.81170   0.06578   0.03460   0.00000  Uiso   1.00
H160   H     0.78667   0.03819   0.03988   0.00000  Uiso   1.00
H161   H     0.84783   0.06496   0.05991   0.00000  Uiso   1.00
H162   H     0.82305   0.06155   0.00036   0.00000  Uiso   1.00
C163   C     0.16638   0.42013   0.16668   0.00000  Uiso   1.00
C164   C     0.16666   0.57985   0.16677   0.00000  Uiso   1.00
C165   C     0.06725   0.49860   0.15482   0.00000  Uiso   1.00
C166   C     0.26607   0.50057   0.17832   0.00000  Uiso   1.00
C167   C     0.01230   0.49252   0.14945   0.00000  Uiso   1.00
C168   C     0.32063   0.50761   0.18258   0.00000  Uiso   1.00
C169   C     0.12991   0.35430   0.13565   0.00000  Uiso   1.00
C170   C     0.20067   0.64561   0.19991   0.00000  Uiso   1.00
C171   C     0.13068   0.64452   0.13501   0.00000  Uiso   1.00
C172   C     0.20073   0.35541   0.19977   0.00000  Uiso   1.00
C173   C     0.16622   0.62398   0.16704   0.00000  Uiso   1.00
C174   C     0.16591   0.37596   0.16712   0.00000  Uiso   1.00
C175   C     0.19474   0.52968   0.02741   0.00000  Uiso   1.00
C176   C     0.13673   0.47174   0.30551   0.00000  Uiso   1.00
C177   C     0.19688   0.52836   0.31311   0.00000  Uiso   1.00
C178   C     0.14049   0.46928   0.02035   0.00000  Uiso   1.00
H179   H     0.10102   0.37079   0.11244   0.00000  Uiso   1.00
H180   H     0.22782   0.62916   0.22482   0.00000  Uiso   1.00
H181   H     0.10316   0.62721   0.11046   0.00000  Uiso   1.00
H182   H     0.22805   0.37272   0.22449   0.00000  Uiso   1.00
N183   N     0.16665   0.49999   0.28573   0.00000  Uiso   1.00
N184   N     0.16668   0.50001   0.04760   0.00000  Uiso   1.00
O185   O     0.16666   0.43892   0.20487   0.00000  Uiso   1.00
O186   O     0.16667   0.56108   0.12846   0.00000  Uiso   1.00
O187   O     0.16666   0.43893   0.12843   0.00000  Uiso   1.00
O188   O     0.16667   0.56107   0.20490   0.00000  Uiso   1.00
O189   O     0.09058   0.50000   0.19595   0.00000  Uiso   1.00
O190   O     0.24275   0.50000   0.13739   0.00000  Uiso   1.00
O191   O     0.09058   0.50000   0.11950   0.00000  Uiso   1.00
O192   O     0.24275   0.50000   0.21383   0.00000  Uiso   1.00
Zn193  Zn    0.16667   0.49999   0.21771   0.00000  Uiso   1.00
Zn194  Zn    0.16667   0.50001   0.11563   0.00000  Uiso   1.00
O195   O     0.32168   0.46322   0.11784   0.00000  Uiso   1.00
C196   C     0.32182   0.47803   0.07324   0.00000  Uiso   1.00
H197   H     0.02302   0.46594   0.05945   0.00000  Uiso   1.00
H198   H     0.32082   0.51293   0.07067   0.00000  Uiso   1.00
H199   H     0.28630   0.46548   0.05150   0.00000  Uiso   1.00
O200   O     0.01087   0.53486   0.21627   0.00000  Uiso   1.00
C201   C     0.00752   0.57628   0.19927   0.00000  Uiso   1.00
H202   H     0.02673   0.59800   0.22604   0.00000  Uiso   1.00
H203   H     0.29931   0.58591   0.19040   0.00000  Uiso   1.00
H204   H     0.02844   0.57993   0.16940   0.00000  Uiso   1.00
Cl205  Cl    0.22877   0.57017   0.06021   0.00000  Uiso   1.00
Cl206  Cl    0.09176   0.43872   0.27125   0.00000  Uiso   1.00
O207   O     0.22566   0.55816   0.29340   0.00000  Uiso   1.00
C208   C     0.27923   0.54786   0.30197   0.00000  Uiso   1.00
H209   H     0.28626   0.51431   0.29446   0.00000  Uiso   1.00
H210   H     0.29675   0.55536   0.00394   0.00000  Uiso   1.00
H211   H     0.30043   0.56772   0.28012   0.00000  Uiso   1.00
O212   O     0.11666   0.43621   0.03970   0.00000  Uiso   1.00
C213   C     0.14503   0.39911   0.03460   0.00000  Uiso   1.00
H214   H     0.12000   0.37152   0.03988   0.00000  Uiso   1.00
H215   H     0.18117   0.39829   0.05991   0.00000  Uiso   1.00
H216   H     0.15638   0.39489   0.00036   0.00000  Uiso   1.00
C217   C     0.49971   0.42013   0.16668   0.00000  Uiso   1.00
C218   C     0.49999   0.57985   0.16677   0.00000  Uiso   1.00
C219   C     0.40059   0.49860   0.15482   0.00000  Uiso   1.00
C220   C     0.59940   0.50057   0.17832   0.00000  Uiso   1.00
C221   C     0.34563   0.49252   0.14945   0.00000  Uiso   1.00
C222   C     0.65396   0.50761   0.18258   0.00000  Uiso   1.00
C223   C     0.46325   0.35430   0.13565   0.00000  Uiso   1.00
C224   C     0.53400   0.64561   0.19991   0.00000  Uiso   1.00
C225   C     0.46401   0.64452   0.13501   0.00000  Uiso   1.00
C226   C     0.53407   0.35541   0.19977   0.00000  Uiso   1.00
C227   C     0.49955   0.62398   0.16704   0.00000  Uiso   1.00
C228   C     0.49924   0.37596   0.16712   0.00000  Uiso   1.00
C229   C     0.52808   0.52968   0.02741   0.00000  Uiso   1.00
C230   C     0.47006   0.47174   0.30551   0.00000  Uiso   1.00
C231   C     0.53021   0.52836   0.31311   0.00000  Uiso   1.00
C232   C     0.47382   0.46928   0.02035   0.00000  Uiso   1.00
H233   H     0.43435   0.37079   0.11244   0.00000  Uiso   1.00
H234   H     0.56116   0.62916   0.22482   0.00000  Uiso   1.00
H235   H     0.43649   0.62721   0.11046   0.00000  Uiso   1.00
H236   H     0.56138   0.37272   0.22449   0.00000  Uiso   1.00
N237   N     0.49999   0.49999   0.28573   0.00000  Uiso   1.00
N238   N     0.50001   0.50001   0.04760   0.00000  Uiso   1.00
O239   O     0.50000   0.43892   0.20487   0.00000  Uiso   1.00
O240   O     0.50000   0.56108   0.12846   0.00000  Uiso   1.00
O241   O     0.50000   0.43893   0.12843   0.00000  Uiso   1.00
O242   O     0.50000   0.56107   0.20490   0.00000  Uiso   1.00
O243   O     0.42392   0.50000   0.19595   0.00000  Uiso   1.00
O244   O     0.57608   0.50000   0.13739   0.00000  Uiso   1.00
O245   O     0.42392   0.50000   0.11950   0.00000  Uiso   1.00
O246   O     0.57608   0.50000   0.21383   0.00000  Uiso   1.00
Zn247  Zn    0.50000   0.49999   0.21771   0.00000  Uiso   1.00
Zn248  Zn    0.50000   0.50001   0.11563   0.00000  Uiso   1.00
O249   O     0.65502   0.46322   0.11784   0.00000  Uiso   1.00
C250   C     0.65515   0.47803   0.07324   0.00000  Uiso   1.00
H251   H     0.35636   0.46594   0.05945   0.00000  Uiso   1.00
H252   H     0.65416   0.51293   0.07067   0.00000  Uiso   1.00
H253   H     0.61963   0.46548   0.05150   0.00000  Uiso   1.00
O254   O     0.34420   0.53486   0.21627   0.00000  Uiso   1.00
C255   C     0.34086   0.57628   0.19927   0.00000  Uiso   1.00
H256   H     0.36006   0.59800   0.22604   0.00000  Uiso   1.00
H257   H     0.63264   0.58591   0.19040   0.00000  Uiso   1.00
H258   H     0.36178   0.57993   0.16940   0.00000  Uiso   1.00
Cl259  Cl    0.56210   0.57017   0.06021   0.00000  Uiso   1.00
Cl260  Cl    0.42509   0.43872   0.27125   0.00000  Uiso   1.00
O261   O     0.55899   0.55816   0.29340   0.00000  Uiso   1.00
C262   C     0.61257   0.54786   0.30197   0.00000  Uiso   1.00
H263   H     0.61959   0.51431   0.29446   0.00000  Uiso   1.00
H264   H     0.63009   0.55536   0.00394   0.00000  Uiso   1.00
H265   H     0.63377   0.56772   0.28012   0.00000  Uiso   1.00
O266   O     0.44999   0.43621   0.03970   0.00000  Uiso   1.00
C267   C     0.47836   0.39911   0.03460   0.00000  Uiso   1.00
H268   H     0.45334   0.37152   0.03988   0.00000  Uiso   1.00
H269   H     0.51450   0.39829   0.05991   0.00000  Uiso   1.00
H270   H     0.48972   0.39489   0.00036   0.00000  Uiso   1.00
C271   C     0.83304   0.42013   0.16668   0.00000  Uiso   1.00
C272   C     0.83332   0.57985   0.16677   0.00000  Uiso   1.00
C273   C     0.73392   0.49860   0.15482   0.00000  Uiso   1.00
C274   C     0.93274   0.50057   0.17832   0.00000  Uiso   1.00
C275   C     0.67896   0.49252   0.14945   0.00000  Uiso   1.00
C276   C     0.98729   0.50761   0.18258   0.00000  Uiso   1.00
C277   C     0.79658   0.35430   0.13565   0.00000  Uiso   1.00
C278   C     0.86733   0.64561   0.19991   0.00000  Uiso   1.00
C279   C     0.79734   0.64452   0.13501   0.00000  Uiso   1.00
C280   C     0.86740   0.35541   0.19977   0.00000  Uiso   1.00
C281   C     0.83289   0.62398   0.16704   0.00000  Uiso   1.00
C282   C     0.83257   0.37596   0.16712   0.00000  Uiso   1.00
C283   C     0.86141   0.52968   0.02741   0.00000  Uiso   1.00
C284   C     0.80340   0.47174   0.30551   0.00000  Uiso   1.00
C285   C     0.86355   0.52836   0.31311   0.00000  Uiso   1.00
C286   C     0.80716   0.46928   0.02035   0.00000  Uiso   1.00
H287   H     0.76768   0.37079   0.11244   0.00000  Uiso   1.00
H288   H     0.89449   0.62916   0.22482   0.00000  Uiso   1.00
H289   H     0.76982   0.62721   0.11046   0.00000  Uiso   1.00
H290   H     0.89471   0.37272   0.22449   0.00000  Uiso   1.00
N291   N     0.83332   0.49999   0.28573   0.00000  Uiso   1.00
N292   N     0.83335   0.50001   0.04760   0.00000  Uiso   1.00
O293   O     0.83333   0.43892   0.20487   0.00000  Uiso   1.00
O294   O     0.83334   0.56108   0.12846   0.00000  Uiso   1.00
O295   O     0.83333   0.43893   0.12843   0.00000  Uiso   1.00
O296   O     0.83334   0.56107   0.20490   0.00000  Uiso   1.00
O297   O     0.75725   0.50000   0.19595   0.00000  Uiso   1.00
O298   O     0.90942   0.50000   0.13739   0.00000  Uiso   1.00
O299   O     0.75725   0.50000   0.11950   0.00000  Uiso   1.00
O300   O     0.90942   0.50000   0.21383   0.00000  Uiso   1.00
Zn301  Zn    0.83333   0.49999   0.21771   0.00000  Uiso   1.00
Zn302  Zn    0.83333   0.50001   0.11563   0.00000  Uiso   1.00
O303   O     0.98835   0.46322   0.11784   0.00000  Uiso   1.00
C304   C     0.98848   0.47803   0.07324   0.00000  Uiso   1.00
H305   H     0.68969   0.46594   0.05945   0.00000  Uiso   1.00
H306   H     0.98749   0.51293   0.07067   0.00000  Uiso   1.00
H307   H     0.95296   0.46548   0.05150   0.00000  Uiso   1.00
O308   O     0.67754   0.53486   0.21627   0.00000  Uiso   1.00
C309   C     0.67419   0.57628   0.19927   0.00000  Uiso   1.00
H310   H     0.69339   0.59800   0.22604   0.00000  Uiso   1.00
H311   H     0.96597   0.58591   0.19040   0.00000  Uiso   1.00
H312   H     0.69511   0.57993   0.16940   0.00000  Uiso   1.00
Cl313  Cl    0.89543   0.57017   0.06021   0.00000  Uiso   1.00
Cl314  Cl    0.75842   0.43872   0.27125   0.00000  Uiso   1.00
O315   O     0.89233   0.55816   0.29340   0.00000  Uiso   1.00
C316   C     0.94590   0.54786   0.30197   0.00000  Uiso   1.00
H317   H     0.95292   0.51431   0.29446   0.00000  Uiso   1.00
H318   H     0.96342   0.55536   0.00394   0.00000  Uiso   1.00
H319   H     0.96710   0.56772   0.28012   0.00000  Uiso   1.00
O320   O     0.78332   0.43621   0.03970   0.00000  Uiso   1.00
C321   C     0.81170   0.39911   0.03460   0.00000  Uiso   1.00
H322   H     0.78667   0.37152   0.03988   0.00000  Uiso   1.00
H323   H     0.84783   0.39829   0.05991   0.00000  Uiso   1.00
H324   H     0.82305   0.39489   0.00036   0.00000  Uiso   1.00
C325   C     0.16638   0.75347   0.16668   0.00000  Uiso   1.00
C326   C     0.16666   0.91318   0.16677   0.00000  Uiso   1.00
C327   C     0.06725   0.83193   0.15482   0.00000  Uiso   1.00
C328   C     0.26607   0.83391   0.17832   0.00000  Uiso   1.00
C329   C     0.01230   0.82585   0.14945   0.00000  Uiso   1.00
C330   C     0.32063   0.84094   0.18258   0.00000  Uiso   1.00
C331   C     0.12991   0.68764   0.13565   0.00000  Uiso   1.00
C332   C     0.20067   0.97894   0.19991   0.00000  Uiso   1.00
C333   C     0.13068   0.97785   0.13501   0.00000  Uiso   1.00
C334   C     0.20073   0.68875   0.19977   0.00000  Uiso   1.00
C335   C     0.16622   0.95732   0.16704   0.00000  Uiso   1.00
C336   C     0.16591   0.70929   0.16712   0.00000  Uiso   1.00
C337   C     0.19474   0.86302   0.02741   0.00000  Uiso   1.00
C338   C     0.13673   0.80507   0.30551   0.00000  Uiso   1.00
C339   C     0.19688   0.86169   0.31311   0.00000  Uiso   1.00
C340   C     0.14049   0.80261   0.02035   0.00000  Uiso   1.00
H341   H     0.10102   0.70413   0.11244   0.00000  Uiso   1.00
H342   H     0.22782   0.96249   0.22482   0.00000  Uiso   1.00
H343   H     0.10316   0.96054   0.11046   0.00000  Uiso   1.00
H344   H     0.22805   0.70605   0.22449   0.00000  Uiso   1.00
N345   N     0.16665   0.83332   0.28573   0.00000  Uiso   1.00
N346   N     0.16668   0.83334   0.04760   0.00000  Uiso   1.00
O347   O     0.16666   0.77225   0.20487   0.00000  Uiso   1.00
O348   O     0.16667   0.89442   0.12846   0.00000  Uiso   1.00
O349   O     0.16666   0.77226   0.12843   0.00000  Uiso   1.00
O350   O     0.16667   0.89441   0.20490   0.00000  Uiso   1.00
O351   O     0.09058   0.83333   0.19595   0.00000  Uiso   1.00
O352   O     0.24275   0.83334   0.13739   0.00000  Uiso   1.00
O353   O     0.09058   0.83334   0.11950   0.00000  Uiso   1.00
O354   O     0.24275   0.83333   0.21383   0.00000  Uiso   1.00
Zn355  Zn    0.16667   0.83333   0.21771   0.00000  Uiso   1.00
Zn356  Zn    0.16667   0.83334   0.11563   0.00000  Uiso   1.00
O357   O     0.32168   0.79655   0.11784   0.00000  Uiso   1.00
C358   C     0.32182   0.81137   0.07324   0.00000  Uiso   1.00
H359   H     0.02302   0.79927   0.05945   0.00000  Uiso   1.00
H360   H     0.32082   0.84627   0.07067   0.00000  Uiso   1.00
H361   H     0.28630   0.79881   0.05150   0.00000  Uiso   1.00
O362   O     0.01087   0.86819   0.21627   0.00000  Uiso   1.00
C363   C     0.00752   0.90961   0.19927   0.00000  Uiso   1.00
H364   H     0.02673   0.93133   0.22604   0.00000  Uiso   1.00
H365   H     0.29931   0.91924   0.19040   0.00000  Uiso   1.00
H366   H     0.02844   0.91326   0.16940   0.00000  Uiso   1.00
Cl367  Cl    0.22877   0.90351   0.06021   0.00000  Uiso   1.00
Cl368  Cl    0.09176   0.77205   0.27125   0.00000  Uiso   1.00
O369   O     0.22566   0.89149   0.29340   0.00000  Uiso   1.00
C370   C     0.27923   0.88119   0.30197   0.00000  Uiso   1.00
H371   H     0.28626   0.84764   0.29446   0.00000  Uiso   1.00
H372   H     0.29675   0.88869   0.00394   0.00000  Uiso   1.00
H373   H     0.30043   0.90105   0.28012   0.00000  Uiso   1.00
O374   O     0.11666   0.76955   0.03970   0.00000  Uiso   1.00
C375   C     0.14503   0.73244   0.03460   0.00000  Uiso   1.00
H376   H     0.12000   0.70485   0.03988   0.00000  Uiso   1.00
H377   H     0.18117   0.73162   0.05991   0.00000  Uiso   1.00
H378   H     0.15638   0.72822   0.00036   0.00000  Uiso   1.00
C379   C     0.49971   0.75347   0.16668   0.00000  Uiso   1.00
C380   C     0.49999   0.91318   0.16677   0.00000  Uiso   1.00
C381   C     0.40059   0.83193   0.15482   0.00000  Uiso   1.00
C382   C     0.59940   0.83391   0.17832   0.00000  Uiso   1.00
C383   C     0.34563   0.82585   0.14945   0.00000  Uiso   1.00
C384   C     0.65396   0.84094   0.18258   0.00000  Uiso   1.00
C385   C     0.46325   0.68764   0.13565   0.00000  Uiso   1.00
C386   C     0.53400   0.97894   0.19991   0.00000  Uiso   1.00
C387   C     0.46401   0.97785   0.13501   0.00000  Uiso   1.00
C388   C     0.53407   0.68875   0.19977   0.00000  Uiso   1.00
C389   C     0.49955   0.95732   0.16704   0.00000  Uiso   1.00
C390   C     0.49924   0.70929   0.16712   0.00000  Uiso   1.00
C391   C     0.52808   0.86302   0.02741   0.00000  Uiso   1.00
C392   C     0.47006   0.80507   0.30551   0.00000  Uiso   1.00
C393   C     0.53021   0.86169   0.31311   0.00000  Uiso   1.00
C394   C     0.47382   0.80261   0.02035   0.00000  Uiso   1.00
H395   H     0.43435   0.70413   0.11244   0.00000  Uiso   1.00
H396   H     0.56116   0.96249   0.22482   0.00000  Uiso   1.00
H397   H     0.43649   0.96054   0.11046   0.00000  Uiso   1.00
H398   H     0.56138   0.70605   0.22449   0.00000  Uiso   1.00
N399   N     0.49999   0.83332   0.28573   0.00000  Uiso   1.00
N400   N     0.50001   0.83334   0.04760   0.00000  Uiso   1.00
O401   O     0.50000   0.77225   0.20487   0.00000  Uiso   1.00
O402   O     0.50000   0.89442   0.12846   0.00000  Uiso   1.00
O403   O     0.50000   0.77226   0.12843   0.00000  Uiso   1.00
O404   O     0.50000   0.89441   0.20490   0.00000  Uiso   1.00
O405   O     0.42392   0.83333   0.19595   0.00000  Uiso   1.00
O406   O     0.57608   0.83334   0.13739   0.00000  Uiso   1.00
O407   O     0.42392   0.83334   0.11950   0.00000  Uiso   1.00
O408   O     0.57608   0.83333   0.21383   0.00000  Uiso   1.00
Zn409  Zn    0.50000   0.83333   0.21771   0.00000  Uiso   1.00
Zn410  Zn    0.50000   0.83334   0.11563   0.00000  Uiso   1.00
O411   O     0.65502   0.79655   0.11784   0.00000  Uiso   1.00
C412   C     0.65515   0.81137   0.07324   0.00000  Uiso   1.00
H413   H     0.35636   0.79927   0.05945   0.00000  Uiso   1.00
H414   H     0.65416   0.84627   0.07067   0.00000  Uiso   1.00
H415   H     0.61963   0.79881   0.05150   0.00000  Uiso   1.00
O416   O     0.34420   0.86819   0.21627   0.00000  Uiso   1.00
C417   C     0.34086   0.90961   0.19927   0.00000  Uiso   1.00
H418   H     0.36006   0.93133   0.22604   0.00000  Uiso   1.00
H419   H     0.63264   0.91924   0.19040   0.00000  Uiso   1.00
H420   H     0.36178   0.91326   0.16940   0.00000  Uiso   1.00
Cl421  Cl    0.56210   0.90351   0.06021   0.00000  Uiso   1.00
Cl422  Cl    0.42509   0.77205   0.27125   0.00000  Uiso   1.00
O423   O     0.55899   0.89149   0.29340   0.00000  Uiso   1.00
C424   C     0.61257   0.88119   0.30197   0.00000  Uiso   1.00
H425   H     0.61959   0.84764   0.29446   0.00000  Uiso   1.00
H426   H     0.63009   0.88869   0.00394   0.00000  Uiso   1.00
H427   H     0.63377   0.90105   0.28012   0.00000  Uiso   1.00
O428   O     0.44999   0.76955   0.03970   0.00000  Uiso   1.00
C429   C     0.47836   0.73244   0.03460   0.00000  Uiso   1.00
H430   H     0.45334   0.70485   0.03988   0.00000  Uiso   1.00
H431   H     0.51450   0.73162   0.05991   0.00000  Uiso   1.00
H432   H     0.48972   0.72822   0.00036   0.00000  Uiso   1.00
C433   C     0.83304   0.75347   0.16668   0.00000  Uiso   1.00
C434   C     0.83332   0.91318   0.16677   0.00000  Uiso   1.00
C435   C     0.73392   0.83193   0.15482   0.00000  Uiso   1.00
C436   C     0.93274   0.83391   0.17832   0.00000  Uiso   1.00
C437   C     0.67896   0.82585   0.14945   0.00000  Uiso   1.00
C438   C     0.98729   0.84094   0.18258   0.00000  Uiso   1.00
C439   C     0.79658   0.68764   0.13565   0.00000  Uiso   1.00
C440   C     0.86733   0.97894   0.19991   0.00000  Uiso   1.00
C441   C     0.79734   0.97785   0.13501   0.00000  Uiso   1.00
C442   C     0.86740   0.68875   0.19977   0.00000  Uiso   1.00
C443   C     0.83289   0.95732   0.16704   0.00000  Uiso   1.00
C444   C     0.83257   0.70929   0.16712   0.00000  Uiso   1.00
C445   C     0.86141   0.86302   0.02741   0.00000  Uiso   1.00
C446   C     0.80340   0.80507   0.30551   0.00000  Uiso   1.00
C447   C     0.86355   0.86169   0.31311   0.00000  Uiso   1.00
C448   C     0.80716   0.80261   0.02035   0.00000  Uiso   1.00
H449   H     0.76768   0.70413   0.11244   0.00000  Uiso   1.00
H450   H     0.89449   0.96249   0.22482   0.00000  Uiso   1.00
H451   H     0.76982   0.96054   0.11046   0.00000  Uiso   1.00
H452   H     0.89471   0.70605   0.22449   0.00000  Uiso   1.00
N453   N     0.83332   0.83332   0.28573   0.00000  Uiso   1.00
N454   N     0.83335   0.83334   0.04760   0.00000  Uiso   1.00
O455   O     0.83333   0.77225   0.20487   0.00000  Uiso   1.00
O456   O     0.83334   0.89442   0.12846   0.00000  Uiso   1.00
O457   O     0.83333   0.77226   0.12843   0.00000  Uiso   1.00
O458   O     0.83334   0.89441   0.20490   0.00000  Uiso   1.00
O459   O     0.75725   0.83333   0.19595   0.00000  Uiso   1.00
O460   O     0.90942   0.83334   0.13739   0.00000  Uiso   1.00
O461   O     0.75725   0.83334   0.11950   0.00000  Uiso   1.00
O462   O     0.90942   0.83333   0.21383   0.00000  Uiso   1.00
Zn463  Zn    0.83333   0.83333   0.21771   0.00000  Uiso   1.00
Zn464  Zn    0.83333   0.83334   0.11563   0.00000  Uiso   1.00
O465   O     0.98835   0.79655   0.11784   0.00000  Uiso   1.00
C466   C     0.98848   0.81137   0.07324   0.00000  Uiso   1.00
H467   H     0.68969   0.79927   0.05945   0.00000  Uiso   1.00
H468   H     0.98749   0.84627   0.07067   0.00000  Uiso   1.00
H469   H     0.95296   0.79881   0.05150   0.00000  Uiso   1.00
O470   O     0.67754   0.86819   0.21627   0.00000  Uiso   1.00
C471   C     0.67419   0.90961   0.19927   0.00000  Uiso   1.00
H472   H     0.69339   0.93133   0.22604   0.00000  Uiso   1.00
H473   H     0.96597   0.91924   0.19040   0.00000  Uiso   1.00
H474   H     0.69511   0.91326   0.16940   0.00000  Uiso   1.00
Cl475  Cl    0.89543   0.90351   0.06021   0.00000  Uiso   1.00
Cl476  Cl    0.75842   0.77205   0.27125   0.00000  Uiso   1.00
O477   O     0.89233   0.89149   0.29340   0.00000  Uiso   1.00
C478   C     0.94590   0.88119   0.30197   0.00000  Uiso   1.00
H479   H     0.95292   0.84764   0.29446   0.00000  Uiso   1.00
H480   H     0.96342   0.88869   0.00394   0.00000  Uiso   1.00
H481   H     0.96710   0.90105   0.28012   0.00000  Uiso   1.00
O482   O     0.78332   0.76955   0.03970   0.00000  Uiso   1.00
C483   C     0.81170   0.73244   0.03460   0.00000  Uiso   1.00
H484   H     0.78667   0.70485   0.03988   0.00000  Uiso   1.00
H485   H     0.84783   0.73162   0.05991   0.00000  Uiso   1.00
H486   H     0.82305   0.72822   0.00036   0.00000  Uiso   1.00
C487   C     0.16638   0.08680   0.50001   0.00000  Uiso   1.00
C488   C     0.16666   0.24652   0.50010   0.00000  Uiso   1.00
C489   C     0.06725   0.16526   0.48815   0.00000  Uiso   1.00
C490   C     0.26607   0.16724   0.51165   0.00000  Uiso   1.00
C491   C     0.01230   0.15918   0.48279   0.00000  Uiso   1.00
C492   C     0.32063   0.17427   0.51591   0.00000  Uiso   1.00
C493   C     0.12991   0.02097   0.46899   0.00000  Uiso   1.00
C494   C     0.20067   0.31227   0.53324   0.00000  Uiso   1.00
C495   C     0.13068   0.31118   0.46834   0.00000  Uiso   1.00
C496   C     0.20073   0.02208   0.53310   0.00000  Uiso   1.00
C497   C     0.16622   0.29065   0.50037   0.00000  Uiso   1.00
C498   C     0.16591   0.04263   0.50046   0.00000  Uiso   1.00
C499   C     0.19474   0.19635   0.36074   0.00000  Uiso   1.00
C500   C     0.13673   0.13840   0.63884   0.00000  Uiso   1.00
C501   C     0.19688   0.19503   0.64644   0.00000  Uiso   1.00
C502   C     0.14049   0.13594   0.35368   0.00000  Uiso   1.00
H503   H     0.10102   0.03746   0.44578   0.00000  Uiso   1.00
H504   H     0.22782   0.29583   0.55815   0.00000  Uiso   1.00
H505   H     0.10316   0.29388   0.44380   0.00000  Uiso   1.00
H506   H     0.22805   0.03938   0.55782   0.00000  Uiso   1.00
N507   N     0.16665   0.16666   0.61907   0.00000  Uiso   1.00
N508   N     0.16668   0.16668   0.38093   0.00000  Uiso   1.00
O509   O     0.16666   0.10558   0.53821   0.00000  Uiso   1.00
O510   O     0.16667   0.22775   0.46179   0.00000  Uiso   1.00
O511   O     0.16666   0.10559   0.46176   0.00000  Uiso   1.00
O512   O     0.16667   0.22774   0.53824   0.00000  Uiso   1.00
O513   O     0.09058   0.16666   0.52928   0.00000  Uiso   1.00
O514   O     0.24275   0.16667   0.47072   0.00000  Uiso   1.00
O515   O     0.09058   0.16667   0.45284   0.00000  Uiso   1.00
O516   O     0.24275   0.16666   0.54716   0.00000  Uiso   1.00
Zn517  Zn    0.16667   0.16666   0.55104   0.00000  Uiso   1.00
Zn518  Zn    0.16667   0.16667   0.44896   0.00000  Uiso   1.00
O519   O     0.32168   0.12988   0.45117   0.00000  Uiso   1.00
C520   C     0.32182   0.14470   0.40658   0.00000  Uiso   1.00
H521   H     0.02302   0.13260   0.39278   0.00000  Uiso   1.00
H522   H     0.32082   0.17960   0.40400   0.00000  Uiso   1.00
H523   H     0.28630   0.13215   0.38483   0.00000  Uiso   1.00
O524   O     0.01087   0.20153   0.54960   0.00000  Uiso   1.00
C525   C     0.00752   0.24295   0.53260   0.00000  Uiso   1.00
H526   H     0.02673   0.26466   0.55938   0.00000  Uiso   1.00
H527   H     0.29931   0.25257   0.52374   0.00000  Uiso   1.00
H528   H     0.02844   0.24660   0.50273   0.00000  Uiso   1.00
Cl529  Cl    0.22877   0.23684   0.39354   0.00000  Uiso   1.00
Cl530  Cl    0.09176   0.10539   0.60458   0.00000  Uiso   1.00
O531   O     0.22566   0.22482   0.62673   0.00000  Uiso   1.00
C532   C     0.27923   0.21452   0.63531   0.00000  Uiso   1.00
H533   H     0.28626   0.18097   0.62779   0.00000  Uiso   1.00
H534   H     0.29675   0.22203   0.33727   0.00000  Uiso   1.00
H535   H     0.30043   0.23439   0.61346   0.00000  Uiso   1.00
O536   O     0.11666   0.10288   0.37304   0.00000  Uiso   1.00
C537   C     0.14503   0.06578   0.36793   0.00000  Uiso   1.00
H538   H     0.12000   0.03819   0.37321   0.00000  Uiso   1.00
H539   H     0.18117   0.06496   0.39324   0.00000  Uiso   1.00
H540   H     0.15638   0.06155   0.33369   0.00000  Uiso   1.00
C541   C     0.49971   0.08680   0.50001   0.00000  Uiso   1.00
C542   C     0.49999   0.24652   0.50010   0.00000  Uiso   1.00
C543   C     0.40059   0.16526   0.48815   0.00000  Uiso   1.00
C544   C     0.59940   0.16724   0.51165   0.00000  Uiso   1.00
C545   C     0.34563   0.15918   0.48279   0.00000  Uiso   1.00
C546   C     0.65396   0.17427   0.51591   0.00000  Uiso   1.00
C547   C     0.46325   0.02097   0.46899   0.00000  Uiso   1.00
C548   C     0.53400   0.31227   0.53324   0.00000  Uiso   1.00
C549   C     0.46401   0.31118   0.46834   0.00000  Uiso   1.00
C550   C     0.53407   0.02208   0.53310   0.00000  Uiso   1.00
C551   C     0.49955   0.29065   0.50037   0.00000  Uiso   1.00
C552   C     0.49924   0.04263   0.50046   0.00000  Uiso   1.00
C553   C     0.52808   0.19635   0.36074   0.00000  Uiso   1.00
C554   C     0.47006   0.13840   0.63884   0.00000  Uiso   1.00
C555   C     0.53021   0.19503   0.64644   0.00000  Uiso   1.00
C556   C     0.47382   0.13594   0.35368   0.00000  Uiso   1.00
H557   H     0.43435   0.03746   0.44578   0.00000  Uiso   1.00
H558   H     0.56116   0.29583   0.55815   0.00000  Uiso   1.00
H559   H     0.43649   0.29388   0.44380   0.00000  Uiso   1.00
H560   H     0.56138   0.03938   0.55782   0.00000  Uiso   1.00
N561   N     0.49999   0.16666   0.61907   0.00000  Uiso   1.00
N562   N     0.50001   0.16668   0.38093   0.00000  Uiso   1.00
O563   O     0.50000   0.10558   0.53821   0.00000  Uiso   1.00
O564   O     0.50000   0.22775   0.46179   0.00000  Uiso   1.00
O565   O     0.50000   0.10559   0.46176   0.00000  Uiso   1.00
O566   O     0.50000   0.22774   0.53824   0.00000  Uiso   1.00
O567   O     0.42392   0.16666   0.52928   0.00000  Uiso   1.00
O568   O     0.57608   0.16667   0.47072   0.00000  Uiso   1.00
O569   O     0.42392   0.16667   0.45284   0.00000  Uiso   1.00
O570   O     0.57608   0.16666   0.54716   0.00000  Uiso   1.00
Zn571  Zn    0.50000   0.16666   0.55104   0.00000  Uiso   1.00
Zn572  Zn    0.50000   0.16667   0.44896   0.00000  Uiso   1.00
O573   O     0.65502   0.12988   0.45117   0.00000  Uiso   1.00
C574   C     0.65515   0.14470   0.40658   0.00000  Uiso   1.00
H575   H     0.35636   0.13260   0.39278   0.00000  Uiso   1.00
H576   H     0.65416   0.17960   0.40400   0.00000  Uiso   1.00
H577   H     0.61963   0.13215   0.38483   0.00000  Uiso   1.00
O578   O     0.34420   0.20153   0.54960   0.00000  Uiso   1.00
C579   C     0.34086   0.24295   0.53260   0.00000  Uiso   1.00
H580   H     0.36006   0.26466   0.55938   0.00000  Uiso   1.00
H581   H     0.63264   0.25257   0.52374   0.00000  Uiso   1.00
H582   H     0.36178   0.24660   0.50273   0.00000  Uiso   1.00
Cl583  Cl    0.56210   0.23684   0.39354   0.00000  Uiso   1.00
Cl584  Cl    0.42509   0.10539   0.60458   0.00000  Uiso   1.00
O585   O     0.55899   0.22482   0.62673   0.00000  Uiso   1.00
C586   C     0.61257   0.21452   0.63531   0.00000  Uiso   1.00
H587   H     0.61959   0.18097   0.62779   0.00000  Uiso   1.00
H588   H     0.63009   0.22203   0.33727   0.00000  Uiso   1.00
H589   H     0.63377   0.23439   0.61346   0.00000  Uiso   1.00
O590   O     0.44999   0.10288   0.37304   0.00000  Uiso   1.00
C591   C     0.47836   0.06578   0.36793   0.00000  Uiso   1.00
H592   H     0.45334   0.03819   0.37321   0.00000  Uiso   1.00
H593   H     0.51450   0.06496   0.39324   0.00000  Uiso   1.00
H594   H     0.48972   0.06155   0.33369   0.00000  Uiso   1.00
C595   C     0.83304   0.08680   0.50001   0.00000  Uiso   1.00
C596   C     0.83332   0.24652   0.50010   0.00000  Uiso   1.00
C597   C     0.73392   0.16526   0.48815   0.00000  Uiso   1.00
C598   C     0.93274   0.16724   0.51165   0.00000  Uiso   1.00
C599   C     0.67896   0.15918   0.48279   0.00000  Uiso   1.00
C600   C     0.98729   0.17427   0.51591   0.00000  Uiso   1.00
C601   C     0.79658   0.02097   0.46899   0.00000  Uiso   1.00
C602   C     0.86733   0.31227   0.53324   0.00000  Uiso   1.00
C603   C     0.79734   0.31118   0.46834   0.00000  Uiso   1.00
C604   C     0.86740   0.02208   0.53310   0.00000  Uiso   1.00
C605   C     0.83289   0.29065   0.50037   0.00000  Uiso   1.00
C606   C     0.83257   0.04263   0.50046   0.00000  Uiso   1.00
C607   C     0.86141   0.19635   0.36074   0.00000  Uiso   1.00
C608   C     0.80340   0.13840   0.63884   0.00000  Uiso   1.00
C609   C     0.86355   0.19503   0.64644   0.00000  Uiso   1.00
C610   C     0.80716   0.13594   0.35368   0.00000  Uiso   1.00
H611   H     0.76768   0.03746   0.44578   0.00000  Uiso   1.00
H612   H     0.89449   0.29583   0.55815   0.00000  Uiso   1.00
H613   H     0.76982   0.29388   0.44380   0.00000  Uiso   1.00
H614   H     0.89471   0.03938   0.55782   0.00000  Uiso   1.00
N615   N     0.83332   0.16666   0.61907   0.00000  Uiso   1.00
N616   N     0.83335   0.16668   0.38093   0.00000  Uiso   1.00
O617   O     0.83333   0.10558   0.53821   0.00000  Uiso   1.00
O618   O     0.83334   0.22775   0.46179   0.00000  Uiso   1.00
O619   O     0.83333   0.10559   0.46176   0.00000  Uiso   1.00
O620   O     0.83334   0.22774   0.53824   0.00000  Uiso   1.00
O621   O     0.75725   0.16666   0.52928   0.00000  Uiso   1.00
O622   O     0.90942   0.16667   0.47072   0.00000  Uiso   1.00
O623   O     0.75725   0.16667   0.45284   0.00000  Uiso   1.00
O624   O     0.90942   0.16666   0.54716   0.00000  Uiso   1.00
Zn625  Zn    0.83333   0.16666   0.55104   0.00000  Uiso   1.00
Zn626  Zn    0.83333   0.16667   0.44896   0.00000  Uiso   1.00
O627   O     0.98835   0.12988   0.45117   0.00000  Uiso   1.00
C628   C     0.98848   0.14470   0.40658   0.00000  Uiso   1.00
H629   H     0.68969   0.13260   0.39278   0.00000  Uiso   1.00
H630   H     0.98749   0.17960   0.40400   0.00000  Uiso   1.00
H631   H     0.95296   0.13215   0.38483   0.00000  Uiso   1.00
O632   O     0.67754   0.20153   0.54960   0.00000  Uiso   1.00
C633   C     0.67419   0.24295   0.53260   0.00000  Uiso   1.00
H634   H     0.69339   0.26466   0.55938   0.00000  Uiso   1.00
H635   H     0.96597   0.25257   0.52374   0.00000  Uiso   1.00
H636   H     0.69511   0.24660   0.50273   0.00000  Uiso   1.00
Cl637  Cl    0.89543   0.23684   0.39354   0.00000  Uiso   1.00
Cl638  Cl    0.75842   0.10539   0.60458   0.00000  Uiso   1.00
O639   O     0.89233   0.22482   0.62673   0.00000  Uiso   1.00
C640   C     0.94590   0.21452   0.63531   0.00000  Uiso   1.00
H641   H     0.95292   0.18097   0.62779   0.00000  Uiso   1.00
H642   H     0.96342   0.22203   0.33727   0.00000  Uiso   1.00
H643   H     0.96710   0.23439   0.61346   0.00000  Uiso   1.00
O644   O     0.78332   0.10288   0.37304   0.00000  Uiso   1.00
C645   C     0.81170   0.06578   0.36793   0.00000  Uiso   1.00
H646   H     0.78667   0.03819   0.37321   0.00000  Uiso   1.00
H647   H     0.84783   0.06496   0.39324   0.00000  Uiso   1.00
H648   H     0.82305   0.06155   0.33369   0.00000  Uiso   1.00
C649   C     0.16638   0.42013   0.50001   0.00000  Uiso   1.00
C650   C     0.16666   0.57985   0.50010   0.00000  Uiso   1.00
C651   C     0.06725   0.49860   0.48815   0.00000  Uiso   1.00
C652   C     0.26607   0.50057   0.51165   0.00000  Uiso   1.00
C653   C     0.01230   0.49252   0.48279   0.00000  Uiso   1.00
C654   C     0.32063   0.50761   0.51591   0.00000  Uiso   1.00
C655   C     0.12991   0.35430   0.46899   0.00000  Uiso   1.00
C656   C     0.20067   0.64561   0.53324   0.00000  Uiso   1.00
C657   C     0.13068   0.64452   0.46834   0.00000  Uiso   1.00
C658   C     0.20073   0.35541   0.53310   0.00000  Uiso   1.00
C659   C     0.16622   0.62398   0.50037   0.00000  Uiso   1.00
C660   C     0.16591   0.37596   0.50046   0.00000  Uiso   1.00
C661   C     0.19474   0.52968   0.36074   0.00000  Uiso   1.00
C662   C     0.13673   0.47174   0.63884   0.00000  Uiso   1.00
C663   C     0.19688   0.52836   0.64644   0.00000  Uiso   1.00
C664   C     0.14049   0.46928   0.35368   0.00000  Uiso   1.00
H665   H     0.10102   0.37079   0.44578   0.00000  Uiso   1.00
H666   H     0.22782   0.62916   0.55815   0.00000  Uiso   1.00
H667   H     0.10316   0.62721   0.44380   0.00000  Uiso   1.00
H668   H     0.22805   0.37272   0.55782   0.00000  Uiso   1.00
N669   N     0.16665   0.49999   0.61907   0.00000  Uiso   1.00
N670   N     0.16668   0.50001   0.38093   0.00000  Uiso   1.00
O671   O     0.16666   0.43892   0.53821   0.00000  Uiso   1.00
O672   O     0.16667   0.56108   0.46179   0.00000  Uiso   1.00
O673   O     0.16666   0.43893   0.46176   0.00000  Uiso   1.00
O674   O     0.16667   0.56107   0.53824   0.00000  Uiso   1.00
O675   O     0.09058   0.50000   0.52928   0.00000  Uiso   1.00
O676   O     0.24275   0.50000   0.47072   0.00000  Uiso   1.00
O677   O     0.09058   0.50000   0.45284   0.00000  Uiso   1.00
O678   O     0.24275   0.50000   0.54716   0.00000  Uiso   1.00
Zn679  Zn    0.16667   0.49999   0.55104   0.00000  Uiso   1.00
Zn680  Zn    0.16667   0.50001   0.44896   0.00000  Uiso   1.00
O681   O     0.32168   0.46322   0.45117   0.00000  Uiso   1.00
C682   C     0.32182   0.47803   0.40658   0.00000  Uiso   1.00
H683   H     0.02302   0.46594   0.39278   0.00000  Uiso   1.00
H684   H     0.32082   0.51293   0.40400   0.00000  Uiso   1.00
H685   H     0.28630   0.46548   0.38483   0.00000  Uiso   1.00
O686   O     0.01087   0.53486   0.54960   0.00000  Uiso   1.00
C687   C     0.00752   0.57628   0.53260   0.00000  Uiso   1.00
H688   H     0.02673   0.59800   0.55938   0.00000  Uiso   1.00
H689   H     0.29931   0.58591   0.52374   0.00000  Uiso   1.00
H690   H     0.02844   0.57993   0.50273   0.00000  Uiso   1.00
Cl691  Cl    0.22877   0.57017   0.39354   0.00000  Uiso   1.00
Cl692  Cl    0.09176   0.43872   0.60458   0.00000  Uiso   1.00
O693   O     0.22566   0.55816   0.62673   0.00000  Uiso   1.00
C694   C     0.27923   0.54786   0.63531   0.00000  Uiso   1.00
H695   H     0.28626   0.51431   0.62779   0.00000  Uiso   1.00
H696   H     0.29675   0.55536   0.33727   0.00000  Uiso   1.00
H697   H     0.30043   0.56772   0.61346   0.00000  Uiso   1.00
O698   O     0.11666   0.43621   0.37304   0.00000  Uiso   1.00
C699   C     0.14503   0.39911   0.36793   0.00000  Uiso   1.00
H700   H     0.12000   0.37152   0.37321   0.00000  Uiso   1.00
H701   H     0.18117   0.39829   0.39324   0.00000  Uiso   1.00
H702   H     0.15638   0.39489   0.33369   0.00000  Uiso   1.00
C703   C     0.49971   0.42013   0.50001   0.00000  Uiso   1.00
C704   C     0.49999   0.57985   0.50010   0.00000  Uiso   1.00
C705   C     0.40059   0.49860   0.48815   0.00000  Uiso   1.00
C706   C     0.59940   0.50057   0.51165   0.00000  Uiso   1.00
C707   C     0.34563   0.49252   0.48279   0.00000  Uiso   1.00
C708   C     0.65396   0.50761   0.51591   0.00000  Uiso   1.00
C709   C     0.46325   0.35430   0.46899   0.00000  Uiso   1.00
C710   C     0.53400   0.64561   0.53324   0.00000  Uiso   1.00
C711   C     0.46401   0.64452   0.46834   0.00000  Uiso   1.00
C712   C     0.53407   0.35541   0.53310   0.00000  Uiso   1.00
C713   C     0.49955   0.62398   0.50037   0.00000  Uiso   1.00
C714   C     0.49924   0.37596   0.50046   0.00000  Uiso   1.00
C715   C     0.52808   0.52968   0.36074   0.00000  Uiso   1.00
C716   C     0.47006   0.47174   0.63884   0.00000  Uiso   1.00
C717   C     0.53021   0.52836   0.64644   0.00000  Uiso   1.00
C718   C     0.47382   0.46928   0.35368   0.00000  Uiso   1.00
H719   H     0.43435   0.37079   0.44578   0.00000  Uiso   1.00
H720   H     0.56116   0.62916   0.55815   0.00000  Uiso   1.00
H721   H     0.43649   0.62721   0.44380   0.00000  Uiso   1.00
H722   H     0.56138   0.37272   0.55782   0.00000  Uiso   1.00
N723   N     0.49999   0.49999   0.61907   0.00000  Uiso   1.00
N724   N     0.50001   0.50001   0.38093   0.00000  Uiso   1.00
O725   O     0.50000   0.43892   0.53821   0.00000  Uiso   1.00
O726   O     0.50000   0.56108   0.46179   0.00000  Uiso   1.00
O727   O     0.50000   0.43893   0.46176   0.00000  Uiso   1.00
O728   O     0.50000   0.56107   0.53824   0.00000  Uiso   1.00
O729   O     0.42392   0.50000   0.52928   0.00000  Uiso   1.00
O730   O     0.57608   0.50000   0.47072   0.00000  Uiso   1.00
O731   O     0.42392   0.50000   0.45284   0.00000  Uiso   1.00
O732   O     0.57608   0.50000   0.54716   0.00000  Uiso   1.00
Zn733  Zn    0.50000   0.49999   0.55104   0.00000  Uiso   1.00
Zn734  Zn    0.50000   0.50001   0.44896   0.00000  Uiso   1.00
O735   O     0.65502   0.46322   0.45117   0.00000  Uiso   1.00
C736   C     0.65515   0.47803   0.40658   0.00000  Uiso   1.00
H737   H     0.35636   0.46594   0.39278   0.00000  Uiso   1.00
H738   H     0.65416   0.51293   0.40400   0.00000  Uiso   1.00
H739   H     0.61963   0.46548   0.38483   0.00000  Uiso   1.00
O740   O     0.34420   0.53486   0.54960   0.00000  Uiso   1.00
C741   C     0.34086   0.57628   0.53260   0.00000  Uiso   1.00
H742   H     0.36006   0.59800   0.55938   0.00000  Uiso   1.00
H743   H     0.63264   0.58591   0.52374   0.00000  Uiso   1.00
H744   H     0.36178   0.57993   0.50273   0.00000  Uiso   1.00
Cl745  Cl    0.56210   0.57017   0.39354   0.00000  Uiso   1.00
Cl746  Cl    0.42509   0.43872   0.60458   0.00000  Uiso   1.00
O747   O     0.55899   0.55816   0.62673   0.00000  Uiso   1.00
C748   C     0.61257   0.54786   0.63531   0.00000  Uiso   1.00
H749   H     0.61959   0.51431   0.62779   0.00000  Uiso   1.00
H750   H     0.63009   0.55536   0.33727   0.00000  Uiso   1.00
H751   H     0.63377   0.56772   0.61346   0.00000  Uiso   1.00
O752   O     0.44999   0.43621   0.37304   0.00000  Uiso   1.00
C753   C     0.47836   0.39911   0.36793   0.00000  Uiso   1.00
H754   H     0.45334   0.37152   0.37321   0.00000  Uiso   1.00
H755   H     0.51450   0.39829   0.39324   0.00000  Uiso   1.00
H756   H     0.48972   0.39489   0.33369   0.00000  Uiso   1.00
C757   C     0.83304   0.42013   0.50001   0.00000  Uiso   1.00
C758   C     0.83332   0.57985   0.50010   0.00000  Uiso   1.00
C759   C     0.73392   0.49860   0.48815   0.00000  Uiso   1.00
C760   C     0.93274   0.50057   0.51165   0.00000  Uiso   1.00
C761   C     0.67896   0.49252   0.48279   0.00000  Uiso   1.00
C762   C     0.98729   0.50761   0.51591   0.00000  Uiso   1.00
C763   C     0.79658   0.35430   0.46899   0.00000  Uiso   1.00
C764   C     0.86733   0.64561   0.53324   0.00000  Uiso   1.00
C765   C     0.79734   0.64452   0.46834   0.00000  Uiso   1.00
C766   C     0.86740   0.35541   0.53310   0.00000  Uiso   1.00
C767   C     0.83289   0.62398   0.50037   0.00000  Uiso   1.00
C768   C     0.83257   0.37596   0.50046   0.00000  Uiso   1.00
C769   C     0.86141   0.52968   0.36074   0.00000  Uiso   1.00
C770   C     0.80340   0.47174   0.63884   0.00000  Uiso   1.00
C771   C     0.86355   0.52836   0.64644   0.00000  Uiso   1.00
C772   C     0.80716   0.46928   0.35368   0.00000  Uiso   1.00
H773   H     0.76768   0.37079   0.44578   0.00000  Uiso   1.00
H774   H     0.89449   0.62916   0.55815   0.00000  Uiso   1.00
H775   H     0.76982   0.62721   0.44380   0.00000  Uiso   1.00
H776   H     0.89471   0.37272   0.55782   0.00000  Uiso   1.00
N777   N     0.83332   0.49999   0.61907   0.00000  Uiso   1.00
N778   N     0.83335   0.50001   0.38093   0.00000  Uiso   1.00
O779   O     0.83333   0.43892   0.53821   0.00000  Uiso   1.00
O780   O     0.83334   0.56108   0.46179   0.00000  Uiso   1.00
O781   O     0.83333   0.43893   0.46176   0.00000  Uiso   1.00
O782   O     0.83334   0.56107   0.53824   0.00000  Uiso   1.00
O783   O     0.75725   0.50000   0.52928   0.00000  Uiso   1.00
O784   O     0.90942   0.50000   0.47072   0.00000  Uiso   1.00
O785   O     0.75725   0.50000   0.45284   0.00000  Uiso   1.00
O786   O     0.90942   0.50000   0.54716   0.00000  Uiso   1.00
Zn787  Zn    0.83333   0.49999   0.55104   0.00000  Uiso   1.00
Zn788  Zn    0.83333   0.50001   0.44896   0.00000  Uiso   1.00
O789   O     0.98835   0.46322   0.45117   0.00000  Uiso   1.00
C790   C     0.98848   0.47803   0.40658   0.00000  Uiso   1.00
H791   H     0.68969   0.46594   0.39278   0.00000  Uiso   1.00
H792   H     0.98749   0.51293   0.40400   0.00000  Uiso   1.00
H793   H     0.95296   0.46548   0.38483   0.00000  Uiso   1.00
O794   O     0.67754   0.53486   0.54960   0.00000  Uiso   1.00
C795   C     0.67419   0.57628   0.53260   0.00000  Uiso   1.00
H796   H     0.69339   0.59800   0.55938   0.00000  Uiso   1.00
H797   H     0.96597   0.58591   0.52374   0.00000  Uiso   1.00
H798   H     0.69511   0.57993   0.50273   0.00000  Uiso   1.00
Cl799  Cl    0.89543   0.57017   0.39354   0.00000  Uiso   1.00
Cl800  Cl    0.75842   0.43872   0.60458   0.00000  Uiso   1.00
O801   O     0.89233   0.55816   0.62673   0.00000  Uiso   1.00
C802   C     0.94590   0.54786   0.63531   0.00000  Uiso   1.00
H803   H     0.95292   0.51431   0.62779   0.00000  Uiso   1.00
H804   H     0.96342   0.55536   0.33727   0.00000  Uiso   1.00
H805   H     0.96710   0.56772   0.61346   0.00000  Uiso   1.00
O806   O     0.78332   0.43621   0.37304   0.00000  Uiso   1.00
C807   C     0.81170   0.39911   0.36793   0.00000  Uiso   1.00
H808   H     0.78667   0.37152   0.37321   0.00000  Uiso   1.00
H809   H     0.84783   0.39829   0.39324   0.00000  Uiso   1.00
H810   H     0.82305   0.39489   0.33369   0.00000  Uiso   1.00
C811   C     0.16638   0.75347   0.50001   0.00000  Uiso   1.00
C812   C     0.16666   0.91318   0.50010   0.00000  Uiso   1.00
C813   C     0.06725   0.83193   0.48815   0.00000  Uiso   1.00
C814   C     0.26607   0.83391   0.51165   0.00000  Uiso   1.00
C815   C     0.01230   0.82585   0.48279   0.00000  Uiso   1.00
C816   C     0.32063   0.84094   0.51591   0.00000  Uiso   1.00
C817   C     0.12991   0.68764   0.46899   0.00000  Uiso   1.00
C818   C     0.20067   0.97894   0.53324   0.00000  Uiso   1.00
C819   C     0.13068   0.97785   0.46834   0.00000  Uiso   1.00
C820   C     0.20073   0.68875   0.53310   0.00000  Uiso   1.00
C821   C     0.16622   0.95732   0.50037   0.00000  Uiso   1.00
C822   C     0.16591   0.70929   0.50046   0.00000  Uiso   1.00
C823   C     0.19474   0.86302   0.36074   0.00000  Uiso   1.00
C824   C     0.13673   0.80507   0.63884   0.00000  Uiso   1.00
C825   C     0.19688   0.86169   0.64644   0.00000  Uiso   1.00
C826   C     0.14049   0.80261   0.35368   0.00000  Uiso   1.00
H827   H     0.10102   0.70413   0.44578   0.00000  Uiso   1.00
H828   H     0.22782   0.96249   0.55815   0.00000  Uiso   1.00
H829   H     0.10316   0.96054   0.44380   0.00000  Uiso   1.00
H830   H     0.22805   0.70605   0.55782   0.00000  Uiso   1.00
N831   N     0.16665   0.83332   0.61907   0.00000  Uiso   1.00
N832   N     0.16668   0.83334   0.38093   0.00000  Uiso   1.00
O833   O     0.16666   0.77225   0.53821   0.00000  Uiso   1.00
O834   O     0.16667   0.89442   0.46179   0.00000  Uiso   1.00
O835   O     0.16666   0.77226   0.46176   0.00000  Uiso   1.00
O836   O     0.16667   0.89441   0.53824   0.00000  Uiso   1.00
O837   O     0.09058   0.83333   0.52928   0.00000  Uiso   1.00
O838   O     0.24275   0.83334   0.47072   0.00000  Uiso   1.00
O839   O     0.09058   0.83334   0.45284   0.00000  Uiso   1.00
O840   O     0.24275   0.83333   0.54716   0.00000  Uiso   1.00
Zn841  Zn    0.16667   0.83333   0.55104   0.00000  Uiso   1.00
Zn842  Zn    0.16667   0.83334   0.44896   0.00000  Uiso   1.00
O843   O     0.32168   0.79655   0.45117   0.00000  Uiso   1.00
C844   C     0.32182   0.81137   0.40658   0.00000  Uiso   1.00
H845   H     0.02302   0.79927   0.39278   0.00000  Uiso   1.00
H846   H     0.32082   0.84627   0.40400   0.00000  Uiso   1.00
H847   H     0.28630   0.79881   0.38483   0.00000  Uiso   1.00
O848   O     0.01087   0.86819   0.54960   0.00000  Uiso   1.00
C849   C     0.00752   0.90961   0.53260   0.00000  Uiso   1.00
H850   H     0.02673   0.93133   0.55938   0.00000  Uiso   1.00
H851   H     0.29931   0.91924   0.52374   0.00000  Uiso   1.00
H852   H     0.02844   0.91326   0.50273   0.00000  Uiso   1.00
Cl853  Cl    0.22877   0.90351   0.39354   0.00000  Uiso   1.00
Cl854  Cl    0.09176   0.77205   0.60458   0.00000  Uiso   1.00
O855   O     0.22566   0.89149   0.62673   0.00000  Uiso   1.00
C856   C     0.27923   0.88119   0.63531   0.00000  Uiso   1.00
H857   H     0.28626   0.84764   0.62779   0.00000  Uiso   1.00
H858   H     0.29675   0.88869   0.33727   0.00000  Uiso   1.00
H859   H     0.30043   0.90105   0.61346   0.00000  Uiso   1.00
O860   O     0.11666   0.76955   0.37304   0.00000  Uiso   1.00
C861   C     0.14503   0.73244   0.36793   0.00000  Uiso   1.00
H862   H     0.12000   0.70485   0.37321   0.00000  Uiso   1.00
H863   H     0.18117   0.73162   0.39324   0.00000  Uiso   1.00
H864   H     0.15638   0.72822   0.33369   0.00000  Uiso   1.00
C865   C     0.49971   0.75347   0.50001   0.00000  Uiso   1.00
C866   C     0.49999   0.91318   0.50010   0.00000  Uiso   1.00
C867   C     0.40059   0.83193   0.48815   0.00000  Uiso   1.00
C868   C     0.59940   0.83391   0.51165   0.00000  Uiso   1.00
C869   C     0.34563   0.82585   0.48279   0.00000  Uiso   1.00
C870   C     0.65396   0.84094   0.51591   0.00000  Uiso   1.00
C871   C     0.46325   0.68764   0.46899   0.00000  Uiso   1.00
C872   C     0.53400   0.97894   0.53324   0.00000  Uiso   1.00
C873   C     0.46401   0.97785   0.46834   0.00000  Uiso   1.00
C874   C     0.53407   0.68875   0.53310   0.00000  Uiso   1.00
C875   C     0.49955   0.95732   0.50037   0.00000  Uiso   1.00
C876   C     0.49924   0.70929   0.50046   0.00000  Uiso   1.00
C877   C     0.52808   0.86302   0.36074   0.00000  Uiso   1.00
C878   C     0.47006   0.80507   0.63884   0.00000  Uiso   1.00
C879   C     0.53021   0.86169   0.64644   0.00000  Uiso   1.00
C880   C     0.47382   0.80261   0.35368   0.00000  Uiso   1.00
H881   H     0.43435   0.70413   0.44578   0.00000  Uiso   1.00
H882   H     0.56116   0.96249   0.55815   0.00000  Uiso   1.00
H883   H     0.43649   0.96054   0.44380   0.00000  Uiso   1.00
H884   H     0.56138   0.70605   0.55782   0.00000  Uiso   1.00
N885   N     0.49999   0.83332   0.61907   0.00000  Uiso   1.00
N886   N     0.50001   0.83334   0.38093   0.00000  Uiso   1.00
O887   O     0.50000   0.77225   0.53821   0.00000  Uiso   1.00
O888   O     0.50000   0.89442   0.46179   0.00000  Uiso   1.00
O889   O     0.50000   0.77226   0.46176   0.00000  Uiso   1.00
O890   O     0.50000   0.89441   0.53824   0.00000  Uiso   1.00
O891   O     0.42392   0.83333   0.52928   0.00000  Uiso   1.00
O892   O     0.57608   0.83334   0.47072   0.00000  Uiso   1.00
O893   O     0.42392   0.83334   0.45284   0.00000  Uiso   1.00
O894   O     0.57608   0.83333   0.54716   0.00000  Uiso   1.00
Zn895  Zn    0.50000   0.83333   0.55104   0.00000  Uiso   1.00
Zn896  Zn    0.50000   0.83334   0.44896   0.00000  Uiso   1.00
O897   O     0.65502   0.79655   0.45117   0.00000  Uiso   1.00
C898   C     0.65515   0.81137   0.40658   0.00000  Uiso   1.00
H899   H     0.35636   0.79927   0.39278   0.00000  Uiso   1.00
H900   H     0.65416   0.84627   0.40400   0.00000  Uiso   1.00
H901   H     0.61963   0.79881   0.38483   0.00000  Uiso   1.00
O902   O     0.34420   0.86819   0.54960   0.00000  Uiso   1.00
C903   C     0.34086   0.90961   0.53260   0.00000  Uiso   1.00
H904   H     0.36006   0.93133   0.55938   0.00000  Uiso   1.00
H905   H     0.63264   0.91924   0.52374   0.00000  Uiso   1.00
H906   H     0.36178   0.91326   0.50273   0.00000  Uiso   1.00
Cl907  Cl    0.56210   0.90351   0.39354   0.00000  Uiso   1.00
Cl908  Cl    0.42509   0.77205   0.60458   0.00000  Uiso   1.00
O909   O     0.55899   0.89149   0.62673   0.00000  Uiso   1.00
C910   C     0.61257   0.88119   0.63531   0.00000  Uiso   1.00
H911   H     0.61959   0.84764   0.62779   0.00000  Uiso   1.00
H912   H     0.63009   0.88869   0.33727   0.00000  Uiso   1.00
H913   H     0.63377   0.90105   0.61346   0.00000  Uiso   1.00
O914   O     0.44999   0.76955   0.37304   0.00000  Uiso   1.00
C915   C     0.47836   0.73244   0.36793   0.00000  Uiso   1.00
H916   H     0.45334   0.70485   0.37321   0.00000  Uiso   1.00
H917   H     0.51450   0.73162   0.39324   0.00000  Uiso   1.00
H918   H     0.48972   0.72822   0.33369   0.00000  Uiso   1.00
C919   C     0.83304   0.75347   0.50001   0.00000  Uiso   1.00
C920   C     0.83332   0.91318   0.50010   0.00000  Uiso   1.00
C921   C     0.73392   0.83193   0.48815   0.00000  Uiso   1.00
C922   C     0.93274   0.83391   0.51165   0.00000  Uiso   1.00
C923   C     0.67896   0.82585   0.48279   0.00000  Uiso   1.00
C924   C     0.98729   0.84094   0.51591   0.00000  Uiso   1.00
C925   C     0.79658   0.68764   0.46899   0.00000  Uiso   1.00
C926   C     0.86733   0.97894   0.53324   0.00000  Uiso   1.00
C927   C     0.79734   0.97785   0.46834   0.00000  Uiso   1.00
C928   C     0.86740   0.68875   0.53310   0.00000  Uiso   1.00
C929   C     0.83289   0.95732   0.50037   0.00000  Uiso   1.00
C930   C     0.83257   0.70929   0.50046   0.00000  Uiso   1.00
C931   C     0.86141   0.86302   0.36074   0.00000  Uiso   1.00
C932   C     0.80340   0.80507   0.63884   0.00000  Uiso   1.00
C933   C     0.86355   0.86169   0.64644   0.00000  Uiso   1.00
C934   C     0.80716   0.80261   0.35368   0.00000  Uiso   1.00
H935   H     0.76768   0.70413   0.44578   0.00000  Uiso   1.00
H936   H     0.89449   0.96249   0.55815   0.00000  Uiso   1.00
H937   H     0.76982   0.96054   0.44380   0.00000  Uiso   1.00
H938   H     0.89471   0.70605   0.55782   0.00000  Uiso   1.00
N939   N     0.83332   0.83332   0.61907   0.00000  Uiso   1.00
N940   N     0.83335   0.83334   0.38093   0.00000  Uiso   1.00
O941   O     0.83333   0.77225   0.53821   0.00000  Uiso   1.00
O942   O     0.83334   0.89442   0.46179   0.00000  Uiso   1.00
O943   O     0.83333   0.77226   0.46176   0.00000  Uiso   1.00
O944   O     0.83334   0.89441   0.53824   0.00000  Uiso   1.00
O945   O     0.75725   0.83333   0.52928   0.00000  Uiso   1.00
O946   O     0.90942   0.83334   0.47072   0.00000  Uiso   1.00
O947   O     0.75725   0.83334   0.45284   0.00000  Uiso   1.00
O948   O     0.90942   0.83333   0.54716   0.00000  Uiso   1.00
Zn949  Zn    0.83333   0.83333   0.55104   0.00000  Uiso   1.00
Zn950  Zn    0.83333   0.83334   0.44896   0.00000  Uiso   1.00
O951   O     0.98835   0.79655   0.45117   0.00000  Uiso   1.00
C952   C     0.98848   0.81137   0.40658   0.00000  Uiso   1.00
H953   H     0.68969   0.79927   0.39278   0.00000  Uiso   1.00
H954   H     0.98749   0.84627   0.40400   0.00000  Uiso   1.00
H955   H     0.95296   0.79881   0.38483   0.00000  Uiso   1.00
O956   O     0.67754   0.86819   0.54960   0.00000  Uiso   1.00
C957   C     0.67419   0.90961   0.53260   0.00000  Uiso   1.00
H958   H     0.69339   0.93133   0.55938   0.00000  Uiso   1.00
H959   H     0.96597   0.91924   0.52374   0.00000  Uiso   1.00
H960   H     0.69511   0.91326   0.50273   0.00000  Uiso   1.00
Cl961  Cl    0.89543   0.90351   0.39354   0.00000  Uiso   1.00
Cl962  Cl    0.75842   0.77205   0.60458   0.00000  Uiso   1.00
O963   O     0.89233   0.89149   0.62673   0.00000  Uiso   1.00
C964   C     0.94590   0.88119   0.63531   0.00000  Uiso   1.00
H965   H     0.95292   0.84764   0.62779   0.00000  Uiso   1.00
H966   H     0.96342   0.88869   0.33727   0.00000  Uiso   1.00
H967   H     0.96710   0.90105   0.61346   0.00000  Uiso   1.00
O968   O     0.78332   0.76955   0.37304   0.00000  Uiso   1.00
C969   C     0.81170   0.73244   0.36793   0.00000  Uiso   1.00
H970   H     0.78667   0.70485   0.37321   0.00000  Uiso   1.00
H971   H     0.84783   0.73162   0.39324   0.00000  Uiso   1.00
H972   H     0.82305   0.72822   0.33369   0.00000  Uiso   1.00
C973   C     0.16638   0.08680   0.83334   0.00000  Uiso   1.00
C974   C     0.16666   0.24652   0.83343   0.00000  Uiso   1.00
C975   C     0.06725   0.16526   0.82149   0.00000  Uiso   1.00
C976   C     0.26607   0.16724   0.84498   0.00000  Uiso   1.00
C977   C     0.01230   0.15918   0.81612   0.00000  Uiso   1.00
C978   C     0.32063   0.17427   0.84924   0.00000  Uiso   1.00
C979   C     0.12991   0.02097   0.80232   0.00000  Uiso   1.00
C980   C     0.20067   0.31227   0.86657   0.00000  Uiso   1.00
C981   C     0.13068   0.31118   0.80168   0.00000  Uiso   1.00
C982   C     0.20073   0.02208   0.86644   0.00000  Uiso   1.00
C983   C     0.16622   0.29065   0.83371   0.00000  Uiso   1.00
C984   C     0.16591   0.04263   0.83379   0.00000  Uiso   1.00
C985   C     0.19474   0.19635   0.69408   0.00000  Uiso   1.00
C986   C     0.13673   0.13840   0.97217   0.00000  Uiso   1.00
C987   C     0.19688   0.19503   0.97978   0.00000  Uiso   1.00
C988   C     0.14049   0.13594   0.68702   0.00000  Uiso   1.00
H989   H     0.10102   0.03746   0.77911   0.00000  Uiso   1.00
H990   H     0.22782   0.29583   0.89148   0.00000  Uiso   1.00
H991   H     0.10316   0.29388   0.77713   0.00000  Uiso   1.00
H992   H     0.22805   0.03938   0.89115   0.00000  Uiso   1.00
N993   N     0.16665   0.16666   0.95240   0.00000  Uiso   1.00
N994   N     0.16668   0.16668   0.71427   0.00000  Uiso   1.00
O995   O     0.16666   0.10558   0.87154   0.00000  Uiso   1.00
O996   O     0.16667   0.22775   0.79513   0.00000  Uiso   1.00
O997   O     0.16666   0.10559   0.79510   0.00000  Uiso   1.00
O998   O     0.16667   0.22774   0.87157   0.00000  Uiso   1.00
O999   O     0.09058   0.16666   0.86261   0.00000  Uiso   1.00
O1000  O     0.24275   0.16667   0.80405   0.00000  Uiso   1.00
O1001  O     0.09058   0.16667   0.78617   0.00000  Uiso   1.00
O1002  O     0.24275   0.16666   0.88050   0.00000  Uiso   1.00
Zn1003 Zn    0.16667   0.16666   0.88437   0.00000  Uiso   1.00
Zn1004 Zn    0.16667   0.16667   0.78229   0.00000  Uiso   1.00
O1005  O     0.32168   0.12988   0.78451   0.00000  Uiso   1.00
C1006  C     0.32182   0.14470   0.73991   0.00000  Uiso   1.00
H1007  H     0.02302   0.13260   0.72611   0.00000  Uiso   1.00
H1008  H     0.32082   0.17960   0.73734   0.00000  Uiso   1.00
H1009  H     0.28630   0.13215   0.71817   0.00000  Uiso   1.00
O1010  O     0.01087   0.20153   0.88294   0.00000  Uiso   1.00
C1011  C     0.00752   0.24295   0.86593   0.00000  Uiso   1.00
H1012  H     0.02673   0.26466   0.89271   0.00000  Uiso   1.00
H1013  H     0.29931   0.25257   0.85707   0.00000  Uiso   1.00
H1014  H     0.02844   0.24660   0.83607   0.00000  Uiso   1.00
Cl1015 Cl    0.22877   0.23684   0.72687   0.00000  Uiso   1.00
Cl1016 Cl    0.09176   0.10539   0.93791   0.00000  Uiso   1.00
O1017  O     0.22566   0.22482   0.96006   0.00000  Uiso   1.00
C1018  C     0.27923   0.21452   0.96864   0.00000  Uiso   1.00
H1019  H     0.28626   0.18097   0.96112   0.00000  Uiso   1.00
H1020  H     0.29675   0.22203   0.67060   0.00000  Uiso   1.00
H1021  H     0.30043   0.23439   0.94679   0.00000  Uiso   1.00
O1022  O     0.11666   0.10288   0.70637   0.00000  Uiso   1.00
C1023  C     0.14503   0.06578   0.70126   0.00000  Uiso   1.00
H1024  H     0.12000   0.03819   0.70654   0.00000  Uiso   1.00
H1025  H     0.18117   0.06496   0.72657   0.00000  Uiso   1.00
H1026  H     0.15638   0.06155   0.66703   0.00000  Uiso   1.00
C1027  C     0.49971   0.08680   0.83334   0.00000  Uiso   1.00
C1028  C     0.49999   0.24652   0.83343   0.00000  Uiso   1.00
C1029  C     0.40059   0.16526   0.82149   0.00000  Uiso   1.00
C1030  C     0.59940   0.16724   0.84498   0.00000  Uiso   1.00
C1031  C     0.34563   0.15918   0.81612   0.00000  Uiso   1.00
C1032  C     0.65396   0.17427   0.84924   0.00000  Uiso   1.00
C1033  C     0.46325   0.02097   0.80232   0.00000  Uiso   1.00
C1034  C     0.53400   0.31227   0.86657   0.00000  Uiso   1.00
C1035  C     0.46401   0.31118   0.80168   0.00000  Uiso   1.00
C1036  C     0.53407   0.02208   0.86644   0.00000  Uiso   1.00
C1037  C     0.49955   0.29065   0.83371   0.00000  Uiso   1.00
C1038  C     0.49924   0.04263   0.83379   0.00000  Uiso   1.00
C1039  C     0.52808   0.19635   0.69408   0.00000  Uiso   1.00
C1040  C     0.47006   0.13840   0.97217   0.00000  Uiso   1.00
C1041  C     0.53021   0.19503   0.97978   0.00000  Uiso   1.00
C1042  C     0.47382   0.13594   0.68702   0.00000  Uiso   1.00
H1043  H     0.43435   0.03746   0.77911   0.00000  Uiso   1.00
H1044  H     0.56116   0.29583   0.89148   0.00000  Uiso   1.00
H1045  H     0.43649   0.29388   0.77713   0.00000  Uiso   1.00
H1046  H     0.56138   0.03938   0.89115   0.00000  Uiso   1.00
N1047  N     0.49999   0.16666   0.95240   0.00000  Uiso   1.00
N1048  N     0.50001   0.16668   0.71427   0.00000  Uiso   1.00
O1049  O     0.50000   0.10558   0.87154   0.00000  Uiso   1.00
O1050  O     0.50000   0.22775   0.79513   0.00000  Uiso   1.00
O1051  O     0.50000   0.10559   0.79510   0.00000  Uiso   1.00
O1052  O     0.50000   0.22774   0.87157   0.00000  Uiso   1.00
O1053  O     0.42392   0.16666   0.86261   0.00000  Uiso   1.00
O1054  O     0.57608   0.16667   0.80405   0.00000  Uiso   1.00
O1055  O     0.42392   0.16667   0.78617   0.00000  Uiso   1.00
O1056  O     0.57608   0.16666   0.88050   0.00000  Uiso   1.00
Zn1057 Zn    0.50000   0.16666   0.88437   0.00000  Uiso   1.00
Zn1058 Zn    0.50000   0.16667   0.78229   0.00000  Uiso   1.00
O1059  O     0.65502   0.12988   0.78451   0.00000  Uiso   1.00
C1060  C     0.65515   0.14470   0.73991   0.00000  Uiso   1.00
H1061  H     0.35636   0.13260   0.72611   0.00000  Uiso   1.00
H1062  H     0.65416   0.17960   0.73734   0.00000  Uiso   1.00
H1063  H     0.61963   0.13215   0.71817   0.00000  Uiso   1.00
O1064  O     0.34420   0.20153   0.88294   0.00000  Uiso   1.00
C1065  C     0.34086   0.24295   0.86593   0.00000  Uiso   1.00
H1066  H     0.36006   0.26466   0.89271   0.00000  Uiso   1.00
H1067  H     0.63264   0.25257   0.85707   0.00000  Uiso   1.00
H1068  H     0.36178   0.24660   0.83607   0.00000  Uiso   1.00
Cl1069 Cl    0.56210   0.23684   0.72687   0.00000  Uiso   1.00
Cl1070 Cl    0.42509   0.10539   0.93791   0.00000  Uiso   1.00
O1071  O     0.55899   0.22482   0.96006   0.00000  Uiso   1.00
C1072  C     0.61257   0.21452   0.96864   0.00000  Uiso   1.00
H1073  H     0.61959   0.18097   0.96112   0.00000  Uiso   1.00
H1074  H     0.63009   0.22203   0.67060   0.00000  Uiso   1.00
H1075  H     0.63377   0.23439   0.94679   0.00000  Uiso   1.00
O1076  O     0.44999   0.10288   0.70637   0.00000  Uiso   1.00
C1077  C     0.47836   0.06578   0.70126   0.00000  Uiso   1.00
H1078  H     0.45334   0.03819   0.70654   0.00000  Uiso   1.00
H1079  H     0.51450   0.06496   0.72657   0.00000  Uiso   1.00
H1080  H     0.48972   0.06155   0.66703   0.00000  Uiso   1.00
C1081  C     0.83304   0.08680   0.83334   0.00000  Uiso   1.00
C1082  C     0.83332   0.24652   0.83343   0.00000  Uiso   1.00
C1083  C     0.73392   0.16526   0.82149   0.00000  Uiso   1.00
C1084  C     0.93274   0.16724   0.84498   0.00000  Uiso   1.00
C1085  C     0.67896   0.15918   0.81612   0.00000  Uiso   1.00
C1086  C     0.98729   0.17427   0.84924   0.00000  Uiso   1.00
C1087  C     0.79658   0.02097   0.80232   0.00000  Uiso   1.00
C1088  C     0.86733   0.31227   0.86657   0.00000  Uiso   1.00
C1089  C     0.79734   0.31118   0.80168   0.00000  Uiso   1.00
C1090  C     0.86740   0.02208   0.86644   0.00000  Uiso   1.00
C1091  C     0.83289   0.29065   0.83371   0.00000  Uiso   1.00
C1092  C     0.83257   0.04263   0.83379   0.00000  Uiso   1.00
C1093  C     0.86141   0.19635   0.69408   0.00000  Uiso   1.00
C1094  C     0.80340   0.13840   0.97217   0.00000  Uiso   1.00
C1095  C     0.86355   0.19503   0.97978   0.00000  Uiso   1.00
C1096  C     0.80716   0.13594   0.68702   0.00000  Uiso   1.00
H1097  H     0.76768   0.03746   0.77911   0.00000  Uiso   1.00
H1098  H     0.89449   0.29583   0.89148   0.00000  Uiso   1.00
H1099  H     0.76982   0.29388   0.77713   0.00000  Uiso   1.00
H1100  H     0.89471   0.03938   0.89115   0.00000  Uiso   1.00
N1101  N     0.83332   0.16666   0.95240   0.00000  Uiso   1.00
N1102  N     0.83335   0.16668   0.71427   0.00000  Uiso   1.00
O1103  O     0.83333   0.10558   0.87154   0.00000  Uiso   1.00
O1104  O     0.83334   0.22775   0.79513   0.00000  Uiso   1.00
O1105  O     0.83333   0.10559   0.79510   0.00000  Uiso   1.00
O1106  O     0.83334   0.22774   0.87157   0.00000  Uiso   1.00
O1107  O     0.75725   0.16666   0.86261   0.00000  Uiso   1.00
O1108  O     0.90942   0.16667   0.80405   0.00000  Uiso   1.00
O1109  O     0.75725   0.16667   0.78617   0.00000  Uiso   1.00
O1110  O     0.90942   0.16666   0.88050   0.00000  Uiso   1.00
Zn1111 Zn    0.83333   0.16666   0.88437   0.00000  Uiso   1.00
Zn1112 Zn    0.83333   0.16667   0.78229   0.00000  Uiso   1.00
O1113  O     0.98835   0.12988   0.78451   0.00000  Uiso   1.00
C1114  C     0.98848   0.14470   0.73991   0.00000  Uiso   1.00
H1115  H     0.68969   0.13260   0.72611   0.00000  Uiso   1.00
H1116  H     0.98749   0.17960   0.73734   0.00000  Uiso   1.00
H1117  H     0.95296   0.13215   0.71817   0.00000  Uiso   1.00
O1118  O     0.67754   0.20153   0.88294   0.00000  Uiso   1.00
C1119  C     0.67419   0.24295   0.86593   0.00000  Uiso   1.00
H1120  H     0.69339   0.26466   0.89271   0.00000  Uiso   1.00
H1121  H     0.96597   0.25257   0.85707   0.00000  Uiso   1.00
H1122  H     0.69511   0.24660   0.83607   0.00000  Uiso   1.00
Cl1123 Cl    0.89543   0.23684   0.72687   0.00000  Uiso   1.00
Cl1124 Cl    0.75842   0.10539   0.93791   0.00000  Uiso   1.00
O1125  O     0.89233   0.22482   0.96006   0.00000  Uiso   1.00
C1126  C     0.94590   0.21452   0.96864   0.00000  Uiso   1.00
H1127  H     0.95292   0.18097   0.96112   0.00000  Uiso   1.00
H1128  H     0.96342   0.22203   0.67060   0.00000  Uiso   1.00
H1129  H     0.96710   0.23439   0.94679   0.00000  Uiso   1.00
O1130  O     0.78332   0.10288   0.70637   0.00000  Uiso   1.00
C1131  C     0.81170   0.06578   0.70126   0.00000  Uiso   1.00
H1132  H     0.78667   0.03819   0.70654   0.00000  Uiso   1.00
H1133  H     0.84783   0.06496   0.72657   0.00000  Uiso   1.00
H1134  H     0.82305   0.06155   0.66703   0.00000  Uiso   1.00
C1135  C     0.16638   0.42013   0.83334   0.00000  Uiso   1.00
C1136  C     0.16666   0.57985   0.83343   0.00000  Uiso   1.00
C1137  C     0.06725   0.49860   0.82149   0.00000  Uiso   1.00
C1138  C     0.26607   0.50057   0.84498   0.00000  Uiso   1.00
C1139  C     0.01230   0.49252   0.81612   0.00000  Uiso   1.00
C1140  C     0.32063   0.50761   0.84924   0.00000  Uiso   1.00
C1141  C     0.12991   0.35430   0.80232   0.00000  Uiso   1.00
C1142  C     0.20067   0.64561   0.86657   0.00000  Uiso   1.00
C1143  C     0.13068   0.64452   0.80168   0.00000  Uiso   1.00
C1144  C     0.20073   0.35541   0.86644   0.00000  Uiso   1.00
C1145  C     0.16622   0.62398   0.83371   0.00000  Uiso   1.00
C1146  C     0.16591   0.37596   0.83379   0.00000  Uiso   1.00
C1147  C     0.19474   0.52968   0.69408   0.00000  Uiso   1.00
C1148  C     0.13673   0.47174   0.97217   0.00000  Uiso   1.00
C1149  C     0.19688   0.52836   0.97978   0.00000  Uiso   1.00
C1150  C     0.14049   0.46928   0.68702   0.00000  Uiso   1.00
H1151  H     0.10102   0.37079   0.77911   0.00000  Uiso   1.00
H1152  H     0.22782   0.62916   0.89148   0.00000  Uiso   1.00
H1153  H     0.10316   0.62721   0.77713   0.00000  Uiso   1.00
H1154  H     0.22805   0.37272   0.89115   0.00000  Uiso   1.00
N1155  N     0.16665   0.49999   0.95240   0.00000  Uiso   1.00
N1156  N     0.16668   0.50001   0.71427   0.00000  Uiso   1.00
O1157  O     0.16666   0.43892   0.87154   0.00000  Uiso   1.00
O1158  O     0.16667   0.56108   0.79513   0.00000  Uiso   1.00
O1159  O     0.16666   0.43893   0.79510   0.00000  Uiso   1.00
O1160  O     0.16667   0.56107   0.87157   0.00000  Uiso   1.00
O1161  O     0.09058   0.50000   0.86261   0.00000  Uiso   1.00
O1162  O     0.24275   0.50000   0.80405   0.00000  Uiso   1.00
O1163  O     0.09058   0.50000   0.78617   0.00000  Uiso   1.00
O1164  O     0.24275   0.50000   0.88050   0.00000  Uiso   1.00
Zn1165 Zn    0.16667   0.49999   0.88437   0.00000  Uiso   1.00
Zn1166 Zn    0.16667   0.50001   0.78229   0.00000  Uiso   1.00
O1167  O     0.32168   0.46322   0.78451   0.00000  Uiso   1.00
C1168  C     0.32182   0.47803   0.73991   0.00000  Uiso   1.00
H1169  H     0.02302   0.46594   0.72611   0.00000  Uiso   1.00
H1170  H     0.32082   0.51293   0.73734   0.00000  Uiso   1.00
H1171  H     0.28630   0.46548   0.71817   0.00000  Uiso   1.00
O1172  O     0.01087   0.53486   0.88294   0.00000  Uiso   1.00
C1173  C     0.00752   0.57628   0.86593   0.00000  Uiso   1.00
H1174  H     0.02673   0.59800   0.89271   0.00000  Uiso   1.00
H1175  H     0.29931   0.58591   0.85707   0.00000  Uiso   1.00
H1176  H     0.02844   0.57993   0.83607   0.00000  Uiso   1.00
Cl1177 Cl    0.22877   0.57017   0.72687   0.00000  Uiso   1.00
Cl1178 Cl    0.09176   0.43872   0.93791   0.00000  Uiso   1.00
O1179  O     0.22566   0.55816   0.96006   0.00000  Uiso   1.00
C1180  C     0.27923   0.54786   0.96864   0.00000  Uiso   1.00
H1181  H     0.28626   0.51431   0.96112   0.00000  Uiso   1.00
H1182  H     0.29675   0.55536   0.67060   0.00000  Uiso   1.00
H1183  H     0.30043   0.56772   0.94679   0.00000  Uiso   1.00
O1184  O     0.11666   0.43621   0.70637   0.00000  Uiso   1.00
C1185  C     0.14503   0.39911   0.70126   0.00000  Uiso   1.00
H1186  H     0.12000   0.37152   0.70654   0.00000  Uiso   1.00
H1187  H     0.18117   0.39829   0.72657   0.00000  Uiso   1.00
H1188  H     0.15638   0.39489   0.66703   0.00000  Uiso   1.00
C1189  C     0.49971   0.42013   0.83334   0.00000  Uiso   1.00
C1190  C     0.49999   0.57985   0.83343   0.00000  Uiso   1.00
C1191  C     0.40059   0.49860   0.82149   0.00000  Uiso   1.00
C1192  C     0.59940   0.50057   0.84498   0.00000  Uiso   1.00
C1193  C     0.34563   0.49252   0.81612   0.00000  Uiso   1.00
C1194  C     0.65396   0.50761   0.84924   0.00000  Uiso   1.00
C1195  C     0.46325   0.35430   0.80232   0.00000  Uiso   1.00
C1196  C     0.53400   0.64561   0.86657   0.00000  Uiso   1.00
C1197  C     0.46401   0.64452   0.80168   0.00000  Uiso   1.00
C1198  C     0.53407   0.35541   0.86644   0.00000  Uiso   1.00
C1199  C     0.49955   0.62398   0.83371   0.00000  Uiso   1.00
C1200  C     0.49924   0.37596   0.83379   0.00000  Uiso   1.00
C1201  C     0.52808   0.52968   0.69408   0.00000  Uiso   1.00
C1202  C     0.47006   0.47174   0.97217   0.00000  Uiso   1.00
C1203  C     0.53021   0.52836   0.97978   0.00000  Uiso   1.00
C1204  C     0.47382   0.46928   0.68702   0.00000  Uiso   1.00
H1205  H     0.43435   0.37079   0.77911   0.00000  Uiso   1.00
H1206  H     0.56116   0.62916   0.89148   0.00000  Uiso   1.00
H1207  H     0.43649   0.62721   0.77713   0.00000  Uiso   1.00
H1208  H     0.56138   0.37272   0.89115   0.00000  Uiso   1.00
N1209  N     0.49999   0.49999   0.95240   0.00000  Uiso   1.00
N1210  N     0.50001   0.50001   0.71427   0.00000  Uiso   1.00
O1211  O     0.50000   0.43892   0.87154   0.00000  Uiso   1.00
O1212  O     0.50000   0.56108   0.79513   0.00000  Uiso   1.00
O1213  O     0.50000   0.43893   0.79510   0.00000  Uiso   1.00
O1214  O     0.50000   0.56107   0.87157   0.00000  Uiso   1.00
O1215  O     0.42392   0.50000   0.86261   0.00000  Uiso   1.00
O1216  O     0.57608   0.50000   0.80405   0.00000  Uiso   1.00
O1217  O     0.42392   0.50000   0.78617   0.00000  Uiso   1.00
O1218  O     0.57608   0.50000   0.88050   0.00000  Uiso   1.00
Zn1219 Zn    0.50000   0.49999   0.88437   0.00000  Uiso   1.00
Zn1220 Zn    0.50000   0.50001   0.78229   0.00000  Uiso   1.00
O1221  O     0.65502   0.46322   0.78451   0.00000  Uiso   1.00
C1222  C     0.65515   0.47803   0.73991   0.00000  Uiso   1.00
H1223  H     0.35636   0.46594   0.72611   0.00000  Uiso   1.00
H1224  H     0.65416   0.51293   0.73734   0.00000  Uiso   1.00
H1225  H     0.61963   0.46548   0.71817   0.00000  Uiso   1.00
O1226  O     0.34420   0.53486   0.88294   0.00000  Uiso   1.00
C1227  C     0.34086   0.57628   0.86593   0.00000  Uiso   1.00
H1228  H     0.36006   0.59800   0.89271   0.00000  Uiso   1.00
H1229  H     0.63264   0.58591   0.85707   0.00000  Uiso   1.00
H1230  H     0.36178   0.57993   0.83607   0.00000  Uiso   1.00
Cl1231 Cl    0.56210   0.57017   0.72687   0.00000  Uiso   1.00
Cl1232 Cl    0.42509   0.43872   0.93791   0.00000  Uiso   1.00
O1233  O     0.55899   0.55816   0.96006   0.00000  Uiso   1.00
C1234  C     0.61257   0.54786   0.96864   0.00000  Uiso   1.00
H1235  H     0.61959   0.51431   0.96112   0.00000  Uiso   1.00
H1236  H     0.63009   0.55536   0.67060   0.00000  Uiso   1.00
H1237  H     0.63377   0.56772   0.94679   0.00000  Uiso   1.00
O1238  O     0.44999   0.43621   0.70637   0.00000  Uiso   1.00
C1239  C     0.47836   0.39911   0.70126   0.00000  Uiso   1.00
H1240  H     0.45334   0.37152   0.70654   0.00000  Uiso   1.00
H1241  H     0.51450   0.39829   0.72657   0.00000  Uiso   1.00
H1242  H     0.48972   0.39489   0.66703   0.00000  Uiso   1.00
C1243  C     0.83304   0.42013   0.83334   0.00000  Uiso   1.00
C1244  C     0.83332   0.57985   0.83343   0.00000  Uiso   1.00
C1245  C     0.73392   0.49860   0.82149   0.00000  Uiso   1.00
C1246  C     0.93274   0.50057   0.84498   0.00000  Uiso   1.00
C1247  C     0.67896   0.49252   0.81612   0.00000  Uiso   1.00
C1248  C     0.98729   0.50761   0.84924   0.00000  Uiso   1.00
C1249  C     0.79658   0.35430   0.80232   0.00000  Uiso   1.00
C1250  C     0.86733   0.64561   0.86657   0.00000  Uiso   1.00
C1251  C     0.79734   0.64452   0.80168   0.00000  Uiso   1.00
C1252  C     0.86740   0.35541   0.86644   0.00000  Uiso   1.00
C1253  C     0.83289   0.62398   0.83371   0.00000  Uiso   1.00
C1254  C     0.83257   0.37596   0.83379   0.00000  Uiso   1.00
C1255  C     0.86141   0.52968   0.69408   0.00000  Uiso   1.00
C1256  C     0.80340   0.47174   0.97217   0.00000  Uiso   1.00
C1257  C     0.86355   0.52836   0.97978   0.00000  Uiso   1.00
C1258  C     0.80716   0.46928   0.68702   0.00000  Uiso   1.00
H1259  H     0.76768   0.37079   0.77911   0.00000  Uiso   1.00
H1260  H     0.89449   0.62916   0.89148   0.00000  Uiso   1.00
H1261  H     0.76982   0.62721   0.77713   0.00000  Uiso   1.00
H1262  H     0.89471   0.37272   0.89115   0.00000  Uiso   1.00
N1263  N     0.83332   0.49999   0.95240   0.00000  Uiso   1.00
N1264  N     0.83335   0.50001   0.71427   0.00000  Uiso   1.00
O1265  O     0.83333   0.43892   0.87154   0.00000  Uiso   1.00
O1266  O     0.83334   0.56108   0.79513   0.00000  Uiso   1.00
O1267  O     0.83333   0.43893   0.79510   0.00000  Uiso   1.00
O1268  O     0.83334   0.56107   0.87157   0.00000  Uiso   1.00
O1269  O     0.75725   0.50000   0.86261   0.00000  Uiso   1.00
O1270  O     0.90942   0.50000   0.80405   0.00000  Uiso   1.00
O1271  O     0.75725   0.50000   0.78617   0.00000  Uiso   1.00
O1272  O     0.90942   0.50000   0.88050   0.00000  Uiso   1.00
Zn1273 Zn    0.83333   0.49999   0.88437   0.00000  Uiso   1.00
Zn1274 Zn    0.83333   0.50001   0.78229   0.00000  Uiso   1.00
O1275  O     0.98835   0.46322   0.78451   0.00000  Uiso   1.00
C1276  C     0.98848   0.47803   0.73991   0.00000  Uiso   1.00
H1277  H     0.68969   0.46594   0.72611   0.00000  Uiso   1.00
H1278  H     0.98749   0.51293   0.73734   0.00000  Uiso   1.00
H1279  H     0.95296   0.46548   0.71817   0.00000  Uiso   1.00
O1280  O     0.67754   0.53486   0.88294   0.00000  Uiso   1.00
C1281  C     0.67419   0.57628   0.86593   0.00000  Uiso   1.00
H1282  H     0.69339   0.59800   0.89271   0.00000  Uiso   1.00
H1283  H     0.96597   0.58591   0.85707   0.00000  Uiso   1.00
H1284  H     0.69511   0.57993   0.83607   0.00000  Uiso   1.00
Cl1285 Cl    0.89543   0.57017   0.72687   0.00000  Uiso   1.00
Cl1286 Cl    0.75842   0.43872   0.93791   0.00000  Uiso   1.00
O1287  O     0.89233   0.55816   0.96006   0.00000  Uiso   1.00
C1288  C     0.94590   0.54786   0.96864   0.00000  Uiso   1.00
H1289  H     0.95292   0.51431   0.96112   0.00000  Uiso   1.00
H1290  H     0.96342   0.55536   0.67060   0.00000  Uiso   1.00
H1291  H     0.96710   0.56772   0.94679   0.00000  Uiso   1.00
O1292  O     0.78332   0.43621   0.70637   0.00000  Uiso   1.00
C1293  C     0.81170   0.39911   0.70126   0.00000  Uiso   1.00
H1294  H     0.78667   0.37152   0.70654   0.00000  Uiso   1.00
H1295  H     0.84783   0.39829   0.72657   0.00000  Uiso   1.00
H1296  H     0.82305   0.39489   0.66703   0.00000  Uiso   1.00
C1297  C     0.16638   0.75347   0.83334   0.00000  Uiso   1.00
C1298  C     0.16666   0.91318   0.83343   0.00000  Uiso   1.00
C1299  C     0.06725   0.83193   0.82149   0.00000  Uiso   1.00
C1300  C     0.26607   0.83391   0.84498   0.00000  Uiso   1.00
C1301  C     0.01230   0.82585   0.81612   0.00000  Uiso   1.00
C1302  C     0.32063   0.84094   0.84924   0.00000  Uiso   1.00
C1303  C     0.12991   0.68764   0.80232   0.00000  Uiso   1.00
C1304  C     0.20067   0.97894   0.86657   0.00000  Uiso   1.00
C1305  C     0.13068   0.97785   0.80168   0.00000  Uiso   1.00
C1306  C     0.20073   0.68875   0.86644   0.00000  Uiso   1.00
C1307  C     0.16622   0.95732   0.83371   0.00000  Uiso   1.00
C1308  C     0.16591   0.70929   0.83379   0.00000  Uiso   1.00
C1309  C     0.19474   0.86302   0.69408   0.00000  Uiso   1.00
C1310  C     0.13673   0.80507   0.97217   0.00000  Uiso   1.00
C1311  C     0.19688   0.86169   0.97978   0.00000  Uiso   1.00
C1312  C     0.14049   0.80261   0.68702   0.00000  Uiso   1.00
H1313  H     0.10102   0.70413   0.77911   0.00000  Uiso   1.00
H1314  H     0.22782   0.96249   0.89148   0.00000  Uiso   1.00
H1315  H     0.10316   0.96054   0.77713   0.00000  Uiso   1.00
H1316  H     0.22805   0.70605   0.89115   0.00000  Uiso   1.00
N1317  N     0.16665   0.83332   0.95240   0.00000  Uiso   1.00
N1318  N     0.16668   0.83334   0.71427   0.00000  Uiso   1.00
O1319  O     0.16666   0.77225   0.87154   0.00000  Uiso   1.00
O1320  O     0.16667   0.89442   0.79513   0.00000  Uiso   1.00
O1321  O     0.16666   0.77226   0.79510   0.00000  Uiso   1.00
O1322  O     0.16667   0.89441   0.87157   0.00000  Uiso   1.00
O1323  O     0.09058   0.83333   0.86261   0.00000  Uiso   1.00
O1324  O     0.24275   0.83334   0.80405   0.00000  Uiso   1.00
O1325  O     0.09058   0.83334   0.78617   0.00000  Uiso   1.00
O1326  O     0.24275   0.83333   0.88050   0.00000  Uiso   1.00
Zn1327 Zn    0.16667   0.83333   0.88437   0.00000  Uiso   1.00
Zn1328 Zn    0.16667   0.83334   0.78229   0.00000  Uiso   1.00
O1329  O     0.32168   0.79655   0.78451   0.00000  Uiso   1.00
C1330  C     0.32182   0.81137   0.73991   0.00000  Uiso   1.00
H1331  H     0.02302   0.79927   0.72611   0.00000  Uiso   1.00
H1332  H     0.32082   0.84627   0.73734   0.00000  Uiso   1.00
H1333  H     0.28630   0.79881   0.71817   0.00000  Uiso   1.00
O1334  O     0.01087   0.86819   0.88294   0.00000  Uiso   1.00
C1335  C     0.00752   0.90961   0.86593   0.00000  Uiso   1.00
H1336  H     0.02673   0.93133   0.89271   0.00000  Uiso   1.00
H1337  H     0.29931   0.91924   0.85707   0.00000  Uiso   1.00
H1338  H     0.02844   0.91326   0.83607   0.00000  Uiso   1.00
Cl1339 Cl    0.22877   0.90351   0.72687   0.00000  Uiso   1.00
Cl1340 Cl    0.09176   0.77205   0.93791   0.00000  Uiso   1.00
O1341  O     0.22566   0.89149   0.96006   0.00000  Uiso   1.00
C1342  C     0.27923   0.88119   0.96864   0.00000  Uiso   1.00
H1343  H     0.28626   0.84764   0.96112   0.00000  Uiso   1.00
H1344  H     0.29675   0.88869   0.67060   0.00000  Uiso   1.00
H1345  H     0.30043   0.90105   0.94679   0.00000  Uiso   1.00
O1346  O     0.11666   0.76955   0.70637   0.00000  Uiso   1.00
C1347  C     0.14503   0.73244   0.70126   0.00000  Uiso   1.00
H1348  H     0.12000   0.70485   0.70654   0.00000  Uiso   1.00
H1349  H     0.18117   0.73162   0.72657   0.00000  Uiso   1.00
H1350  H     0.15638   0.72822   0.66703   0.00000  Uiso   1.00
C1351  C     0.49971   0.75347   0.83334   0.00000  Uiso   1.00
C1352  C     0.49999   0.91318   0.83343   0.00000  Uiso   1.00
C1353  C     0.40059   0.83193   0.82149   0.00000  Uiso   1.00
C1354  C     0.59940   0.83391   0.84498   0.00000  Uiso   1.00
C1355  C     0.34563   0.82585   0.81612   0.00000  Uiso   1.00
C1356  C     0.65396   0.84094   0.84924   0.00000  Uiso   1.00
C1357  C     0.46325   0.68764   0.80232   0.00000  Uiso   1.00
C1358  C     0.53400   0.97894   0.86657   0.00000  Uiso   1.00
C1359  C     0.46401   0.97785   0.80168   0.00000  Uiso   1.00
C1360  C     0.53407   0.68875   0.86644   0.00000  Uiso   1.00
C1361  C     0.49955   0.95732   0.83371   0.00000  Uiso   1.00
C1362  C     0.49924   0.70929   0.83379   0.00000  Uiso   1.00
C1363  C     0.52808   0.86302   0.69408   0.00000  Uiso   1.00
C1364  C     0.47006   0.80507   0.97217   0.00000  Uiso   1.00
C1365  C     0.53021   0.86169   0.97978   0.00000  Uiso   1.00
C1366  C     0.47382   0.80261   0.68702   0.00000  Uiso   1.00
H1367  H     0.43435   0.70413   0.77911   0.00000  Uiso   1.00
H1368  H     0.56116   0.96249   0.89148   0.00000  Uiso   1.00
H1369  H     0.43649   0.96054   0.77713   0.00000  Uiso   1.00
H1370  H     0.56138   0.70605   0.89115   0.00000  Uiso   1.00
N1371  N     0.49999   0.83332   0.95240   0.00000  Uiso   1.00
N1372  N     0.50001   0.83334   0.71427   0.00000  Uiso   1.00
O1373  O     0.50000   0.77225   0.87154   0.00000  Uiso   1.00
O1374  O     0.50000   0.89442   0.79513   0.00000  Uiso   1.00
O1375  O     0.50000   0.77226   0.79510   0.00000  Uiso   1.00
O1376  O     0.50000   0.89441   0.87157   0.00000  Uiso   1.00
O1377  O     0.42392   0.83333   0.86261   0.00000  Uiso   1.00
O1378  O     0.57608   0.83334   0.80405   0.00000  Uiso   1.00
O1379  O     0.42392   0.83334   0.78617   0.00000  Uiso   1.00
O1380  O     0.57608   0.83333   0.88050   0.00000  Uiso   1.00
Zn1381 Zn    0.50000   0.83333   0.88437   0.00000  Uiso   1.00
Zn1382 Zn    0.50000   0.83334   0.78229   0.00000  Uiso   1.00
O1383  O     0.65502   0.79655   0.78451   0.00000  Uiso   1.00
C1384  C     0.65515   0.81137   0.73991   0.00000  Uiso   1.00
H1385  H     0.35636   0.79927   0.72611   0.00000  Uiso   1.00
H1386  H     0.65416   0.84627   0.73734   0.00000  Uiso   1.00
H1387  H     0.61963   0.79881   0.71817   0.00000  Uiso   1.00
O1388  O     0.34420   0.86819   0.88294   0.00000  Uiso   1.00
C1389  C     0.34086   0.90961   0.86593   0.00000  Uiso   1.00
H1390  H     0.36006   0.93133   0.89271   0.00000  Uiso   1.00
H1391  H     0.63264   0.91924   0.85707   0.00000  Uiso   1.00
H1392  H     0.36178   0.91326   0.83607   0.00000  Uiso   1.00
Cl1393 Cl    0.56210   0.90351   0.72687   0.00000  Uiso   1.00
Cl1394 Cl    0.42509   0.77205   0.93791   0.00000  Uiso   1.00
O1395  O     0.55899   0.89149   0.96006   0.00000  Uiso   1.00
C1396  C     0.61257   0.88119   0.96864   0.00000  Uiso   1.00
H1397  H     0.61959   0.84764   0.96112   0.00000  Uiso   1.00
H1398  H     0.63009   0.88869   0.67060   0.00000  Uiso   1.00
H1399  H     0.63377   0.90105   0.94679   0.00000  Uiso   1.00
O1400  O     0.44999   0.76955   0.70637   0.00000  Uiso   1.00
C1401  C     0.47836   0.73244   0.70126   0.00000  Uiso   1.00
H1402  H     0.45334   0.70485   0.70654   0.00000  Uiso   1.00
H1403  H     0.51450   0.73162   0.72657   0.00000  Uiso   1.00
H1404  H     0.48972   0.72822   0.66703   0.00000  Uiso   1.00
C1405  C     0.83304   0.75347   0.83334   0.00000  Uiso   1.00
C1406  C     0.83332   0.91318   0.83343   0.00000  Uiso   1.00
C1407  C     0.73392   0.83193   0.82149   0.00000  Uiso   1.00
C1408  C     0.93274   0.83391   0.84498   0.00000  Uiso   1.00
C1409  C     0.67896   0.82585   0.81612   0.00000  Uiso   1.00
C1410  C     0.98729   0.84094   0.84924   0.00000  Uiso   1.00
C1411  C     0.79658   0.68764   0.80232   0.00000  Uiso   1.00
C1412  C     0.86733   0.97894   0.86657   0.00000  Uiso   1.00
C1413  C     0.79734   0.97785   0.80168   0.00000  Uiso   1.00
C1414  C     0.86740   0.68875   0.86644   0.00000  Uiso   1.00
C1415  C     0.83289   0.95732   0.83371   0.00000  Uiso   1.00
C1416  C     0.83257   0.70929   0.83379   0.00000  Uiso   1.00
C1417  C     0.86141   0.86302   0.69408   0.00000  Uiso   1.00
C1418  C     0.80340   0.80507   0.97217   0.00000  Uiso   1.00
C1419  C     0.86355   0.86169   0.97978   0.00000  Uiso   1.00
C1420  C     0.80716   0.80261   0.68702   0.00000  Uiso   1.00
H1421  H     0.76768   0.70413   0.77911   0.00000  Uiso   1.00
H1422  H     0.89449   0.96249   0.89148   0.00000  Uiso   1.00
H1423  H     0.76982   0.96054   0.77713   0.00000  Uiso   1.00
H1424  H     0.89471   0.70605   0.89115   0.00000  Uiso   1.00
N1425  N     0.83332   0.83332   0.95240   0.00000  Uiso   1.00
N1426  N     0.83335   0.83334   0.71427   0.00000  Uiso   1.00
O1427  O     0.83333   0.77225   0.87154   0.00000  Uiso   1.00
O1428  O     0.83334   0.89442   0.79513   0.00000  Uiso   1.00
O1429  O     0.83333   0.77226   0.79510   0.00000  Uiso   1.00
O1430  O     0.83334   0.89441   0.87157   0.00000  Uiso   1.00
O1431  O     0.75725   0.83333   0.86261   0.00000  Uiso   1.00
O1432  O     0.90942   0.83334   0.80405   0.00000  Uiso   1.00
O1433  O     0.75725   0.83334   0.78617   0.00000  Uiso   1.00
O1434  O     0.90942   0.83333   0.88050   0.00000  Uiso   1.00
Zn1435 Zn    0.83333   0.83333   0.88437   0.00000  Uiso   1.00
Zn1436 Zn    0.83333   0.83334   0.78229   0.00000  Uiso   1.00
O1437  O     0.98835   0.79655   0.78451   0.00000  Uiso   1.00
C1438  C     0.98848   0.81137   0.73991   0.00000  Uiso   1.00
H1439  H     0.68969   0.79927   0.72611   0.00000  Uiso   1.00
H1440  H     0.98749   0.84627   0.73734   0.00000  Uiso   1.00
H1441  H     0.95296   0.79881   0.71817   0.00000  Uiso   1.00
O1442  O     0.67754   0.86819   0.88294   0.00000  Uiso   1.00
C1443  C     0.67419   0.90961   0.86593   0.00000  Uiso   1.00
H1444  H     0.69339   0.93133   0.89271   0.00000  Uiso   1.00
H1445  H     0.96597   0.91924   0.85707   0.00000  Uiso   1.00
H1446  H     0.69511   0.91326   0.83607   0.00000  Uiso   1.00
Cl1447 Cl    0.89543   0.90351   0.72687   0.00000  Uiso   1.00
Cl1448 Cl    0.75842   0.77205   0.93791   0.00000  Uiso   1.00
O1449  O     0.89233   0.89149   0.96006   0.00000  Uiso   1.00
C1450  C     0.94590   0.88119   0.96864   0.00000  Uiso   1.00
H1451  H     0.95292   0.84764   0.96112   0.00000  Uiso   1.00
H1452  H     0.96342   0.88869   0.67060   0.00000  Uiso   1.00
H1453  H     0.96710   0.90105   0.94679   0.00000  Uiso   1.00
O1454  O     0.78332   0.76955   0.70637   0.00000  Uiso   1.00
C1455  C     0.81170   0.73244   0.70126   0.00000  Uiso   1.00
H1456  H     0.78667   0.70485   0.70654   0.00000  Uiso   1.00
H1457  H     0.84783   0.73162   0.72657   0.00000  Uiso   1.00
H1458  H     0.82305   0.72822   0.66703   0.00000  Uiso   1.00
loop_
_geom_bond_atom_site_label_1
_geom_bond_atom_site_label_2
_geom_bond_distance
_geom_bond_site_symmetry_2
_ccdc_geom_bond_type
C1     O25     1.290   .     A
C1     C12     1.406   .     S
C1     O23     1.284   .     A
C2     O26     1.286   .     A
C2     C11     1.405   .     S
C2     O24     1.288   .     A
C3     O27     1.284   .     A
C3     O29     1.289   .     A
C3     C5      1.413   .     S
C4     O30     1.293   .     A
C4     C6      1.409   .     S
C4     O28     1.278   .     A
C5     C114    1.349   1_455 S
C5     O141    1.395   1_455 S
C6     C59     1.349   .     S
C6     O92     1.389   .     S
C7     C12     1.392   .     A
C7     H17     1.082   .     S
C7     C333    1.373   1_545 S
C8     C11     1.394   .     A
C8     H18     1.084   .     S
C8     C172    1.373   .     S
C9     C11     1.394   .     A
C9     H19     1.084   .     S
C9     C169    1.373   .     S
C10    C12     1.394   .     A
C10    H20     1.084   .     S
C10    C332    1.373   1_545 S
C13    Cl43    1.759   .     S
C13    N22     1.375   .     A
C13    C987    1.430   1_554 S
C14    N21     1.367   .     A
C14    Cl44    1.761   .     S
C14    C502    1.428   .     S
C15    O45     1.381   .     S
C15    N21     1.370   .     A
C15    C499    1.430   .     S
C16    O50     1.381   .     S
C16    N22     1.374   .     A
C16    C986    1.428   1_554 S
N21    Zn31    2.029   .     S
N22    Zn32    2.029   .     S
O23    Zn31    1.980   .     S
O24    Zn32    1.980   .     S
O25    Zn32    1.982   .     S
O26    Zn31    1.982   .     S
O27    Zn31    1.974   .     S
O28    Zn32    1.974   .     S
O29    Zn32    1.983   .     S
O30    Zn31    1.983   .     S
O33    C34     1.413   .     S
O33    C59     1.395   .     S
C34    H37     1.110   .     S
C34    H36     1.114   .     S
C34    H89     1.109   .     S
H35    C142    1.109   1_455 S
O38    C39     1.413   .     S
O38    C114    1.389   1_455 S
C39    H42     1.113   .     S
C39    H40     1.109   .     S
C39    H149    1.113   1_455 S
H41    C93     1.113   .     S
O45    C46     1.412   .     S
C46    H49     1.105   .     S
C46    H47     1.114   .     S
C46    H534    1.106   .     S
H48    C1018   1.106   1_554 S
O50    C51     1.419   .     S
C51    H53     1.110   .     S
C51    H54     1.112   .     S
C51    H52     1.107   .     S
C55    O79     1.290   .     A
C55    C66     1.406   .     S
C55    O77     1.284   .     A
C56    O80     1.286   .     A
C56    C65     1.405   .     S
C56    O78     1.288   .     A
C57    O81     1.284   .     A
C57    O83     1.289   .     A
C57    C59     1.413   .     S
C58    O84     1.293   .     A
C58    C60     1.409   .     S
C58    O82     1.278   .     A
C60    C113    1.349   .     S
C60    O146    1.389   .     S
C61    C66     1.392   .     A
C61    H71     1.082   .     S
C61    C387    1.373   1_545 S
C62    C65     1.394   .     A
C62    H72     1.084   .     S
C62    C226    1.373   .     S
C63    C65     1.394   .     A
C63    H73     1.084   .     S
C63    C223    1.373   .     S
C64    C66     1.394   .     A
C64    H74     1.084   .     S
C64    C386    1.373   1_545 S
C67    Cl97    1.759   .     S
C67    N76     1.375   .     A
C67    C1041   1.430   1_554 S
C68    N75     1.367   .     A
C68    Cl98    1.761   .     S
C68    C556    1.428   .     S
C69    O99     1.381   .     S
C69    N75     1.370   .     A
C69    C553    1.430   .     S
C70    O104    1.381   .     S
C70    N76     1.374   .     A
C70    C1040   1.428   1_554 S
N75    Zn85    2.029   .     S
N76    Zn86    2.029   .     S
O77    Zn85    1.980   .     S
O78    Zn86    1.980   .     S
O79    Zn86    1.982   .     S
O80    Zn85    1.982   .     S
O81    Zn85    1.974   .     S
O82    Zn86    1.974   .     S
O83    Zn86    1.983   .     S
O84    Zn85    1.983   .     S
O87    C88     1.413   .     S
O87    C113    1.395   .     S
C88    H91     1.110   .     S
C88    H90     1.114   .     S
C88    H143    1.109   .     S
O92    C93     1.413   .     S
C93    H96     1.113   .     S
C93    H94     1.109   .     S
H95    C147    1.113   .     S
O99    C100    1.412   .     S
C100   H103    1.105   .     S
C100   H101    1.114   .     S
C100   H588    1.106   .     S
H102   C1072   1.106   1_554 S
O104   C105    1.419   .     S
C105   H107    1.110   .     S
C105   H108    1.112   .     S
C105   H106    1.107   .     S
C109   O133    1.290   .     A
C109   C120    1.406   .     S
C109   O131    1.284   .     A
C110   O134    1.286   .     A
C110   C119    1.405   .     S
C110   O132    1.288   .     A
C111   O135    1.284   .     A
C111   O137    1.289   .     A
C111   C113    1.413   .     S
C112   O138    1.293   .     A
C112   C114    1.409   .     S
C112   O136    1.278   .     A
C114   C5      1.349   1_655 S
C114   O38     1.389   1_655 S
C115   C120    1.392   .     A
C115   H125    1.082   .     S
C115   C441    1.373   1_545 S
C116   C119    1.394   .     A
C116   H126    1.084   .     S
C116   C280    1.373   .     S
C117   C119    1.394   .     A
C117   H127    1.084   .     S
C117   C277    1.373   .     S
C118   C120    1.394   .     A
C118   H128    1.084   .     S
C118   C440    1.373   1_545 S
C121   Cl151   1.759   .     S
C121   N130    1.375   .     A
C121   C1095   1.430   1_554 S
C122   N129    1.367   .     A
C122   Cl152   1.761   .     S
C122   C610    1.428   .     S
C123   O153    1.381   .     S
C123   N129    1.370   .     A
C123   C607    1.430   .     S
C124   O158    1.381   .     S
C124   N130    1.374   .     A
C124   C1094   1.428   1_554 S
N129   Zn139   2.029   .     S
N130   Zn140   2.029   .     S
O131   Zn139   1.980   .     S
O132   Zn140   1.980   .     S
O133   Zn140   1.982   .     S
O134   Zn139   1.982   .     S
O135   Zn139   1.974   .     S
O136   Zn140   1.974   .     S
O137   Zn140   1.983   .     S
O138   Zn139   1.983   .     S
O141   C142    1.413   .     S
O141   C5      1.395   1_655 S
C142   H145    1.110   .     S
C142   H144    1.114   .     S
C142   H35     1.109   1_655 S
O146   C147    1.413   .     S
C147   H150    1.113   .     S
C147   H148    1.109   .     S
H149   C39     1.113   1_655 S
O153   C154    1.412   .     S
C154   H157    1.105   .     S
C154   H155    1.114   .     S
C154   H642    1.106   .     S
H156   C1126   1.106   1_554 S
O158   C159    1.419   .     S
C159   H161    1.110   .     S
C159   H162    1.112   .     S
C159   H160    1.107   .     S
C163   O187    1.290   .     A
C163   C174    1.406   .     S
C163   O185    1.284   .     A
C164   O188    1.286   .     A
C164   C173    1.405   .     S
C164   O186    1.288   .     A
C165   O189    1.284   .     A
C165   O191    1.289   .     A
C165   C167    1.413   .     S
C166   O192    1.293   .     A
C166   C168    1.409   .     S
C166   O190    1.278   .     A
C167   C276    1.349   1_455 S
C167   O303    1.395   1_455 S
C168   C221    1.349   .     S
C168   O254    1.389   .     S
C169   C174    1.392   .     A
C169   H179    1.082   .     S
C170   C173    1.394   .     A
C170   H180    1.084   .     S
C170   C334    1.373   .     S
C171   C173    1.394   .     A
C171   H181    1.084   .     S
C171   C331    1.373   .     S
C172   C174    1.394   .     A
C172   H182    1.084   .     S
C175   Cl205   1.759   .     S
C175   N184    1.375   .     A
C175   C1149   1.430   1_554 S
C176   N183    1.367   .     A
C176   Cl206   1.761   .     S
C176   C664    1.428   .     S
C177   O207    1.381   .     S
C177   N183    1.370   .     A
C177   C661    1.430   .     S
C178   O212    1.381   .     S
C178   N184    1.374   .     A
C178   C1148   1.428   1_554 S
N183   Zn193   2.029   .     S
N184   Zn194   2.029   .     S
O185   Zn193   1.980   .     S
O186   Zn194   1.980   .     S
O187   Zn194   1.982   .     S
O188   Zn193   1.982   .     S
O189   Zn193   1.974   .     S
O190   Zn194   1.974   .     S
O191   Zn194   1.983   .     S
O192   Zn193   1.983   .     S
O195   C196    1.413   .     S
O195   C221    1.395   .     S
C196   H199    1.110   .     S
C196   H198    1.114   .     S
C196   H251    1.109   .     S
H197   C304    1.109   1_455 S
O200   C201    1.413   .     S
O200   C276    1.389   1_455 S
C201   H204    1.113   .     S
C201   H202    1.109   .     S
C201   H311    1.113   1_455 S
H203   C255    1.113   .     S
O207   C208    1.412   .     S
C208   H211    1.105   .     S
C208   H209    1.114   .     S
C208   H696    1.106   .     S
H210   C1180   1.106   1_554 S
O212   C213    1.419   .     S
C213   H215    1.110   .     S
C213   H216    1.112   .     S
C213   H214    1.107   .     S
C217   O241    1.290   .     A
C217   C228    1.406   .     S
C217   O239    1.284   .     A
C218   O242    1.286   .     A
C218   C227    1.405   .     S
C218   O240    1.288   .     A
C219   O243    1.284   .     A
C219   O245    1.289   .     A
C219   C221    1.413   .     S
C220   O246    1.293   .     A
C220   C222    1.409   .     S
C220   O244    1.278   .     A
C222   C275    1.349   .     S
C222   O308    1.389   .     S
C223   C228    1.392   .     A
C223   H233    1.082   .     S
C224   C227    1.394   .     A
C224   H234    1.084   .     S
C224   C388    1.373   .     S
C225   C227    1.394   .     A
C225   H235    1.084   .     S
C225   C385    1.373   .     S
C226   C228    1.394   .     A
C226   H236    1.084   .     S
C229   Cl259   1.759   .     S
C229   N238    1.375   .     A
C229   C1203   1.430   1_554 S
C230   N237    1.367   .     A
C230   Cl260   1.761   .     S
C230   C718    1.428   .     S
C231   O261    1.381   .     S
C231   N237    1.370   .     A
C231   C715    1.430   .     S
C232   O266    1.381   .     S
C232   N238    1.374   .     A
C232   C1202   1.428   1_554 S
N237   Zn247   2.029   .     S
N238   Zn248   2.029   .     S
O239   Zn247   1.980   .     S
O240   Zn248   1.980   .     S
O241   Zn248   1.982   .     S
O242   Zn247   1.982   .     S
O243   Zn247   1.974   .     S
O244   Zn248   1.974   .     S
O245   Zn248   1.983   .     S
O246   Zn247   1.983   .     S
O249   C250    1.413   .     S
O249   C275    1.395   .     S
C250   H253    1.110   .     S
C250   H252    1.114   .     S
C250   H305    1.109   .     S
O254   C255    1.413   .     S
C255   H258    1.113   .     S
C255   H256    1.109   .     S
H257   C309    1.113   .     S
O261   C262    1.412   .     S
C262   H265    1.105   .     S
C262   H263    1.114   .     S
C262   H750    1.106   .     S
H264   C1234   1.106   1_554 S
O266   C267    1.419   .     S
C267   H269    1.110   .     S
C267   H270    1.112   .     S
C267   H268    1.107   .     S
C271   O295    1.290   .     A
C271   C282    1.406   .     S
C271   O293    1.284   .     A
C272   O296    1.286   .     A
C272   C281    1.405   .     S
C272   O294    1.288   .     A
C273   O297    1.284   .     A
C273   O299    1.289   .     A
C273   C275    1.413   .     S
C274   O300    1.293   .     A
C274   C276    1.409   .     S
C274   O298    1.278   .     A
C276   C167    1.349   1_655 S
C276   O200    1.389   1_655 S
C277   C282    1.392   .     A
C277   H287    1.082   .     S
C278   C281    1.394   .     A
C278   H288    1.084   .     S
C278   C442    1.373   .     S
C279   C281    1.394   .     A
C279   H289    1.084   .     S
C279   C439    1.373   .     S
C280   C282    1.394   .     A
C280   H290    1.084   .     S
C283   Cl313   1.759   .     S
C283   N292    1.375   .     A
C283   C1257   1.430   1_554 S
C284   N291    1.367   .     A
C284   Cl314   1.761   .     S
C284   C772    1.428   .     S
C285   O315    1.381   .     S
C285   N291    1.370   .     A
C285   C769    1.430   .     S
C286   O320    1.381   .     S
C286   N292    1.374   .     A
C286   C1256   1.428   1_554 S
N291   Zn301   2.029   .     S
N292   Zn302   2.029   .     S
O293   Zn301   1.980   .     S
O294   Zn302   1.980   .     S
O295   Zn302   1.982   .     S
O296   Zn301   1.982   .     S
O297   Zn301   1.974   .     S
O298   Zn302   1.974   .     S
O299   Zn302   1.983   .     S
O300   Zn301   1.983   .     S
O303   C304    1.413   .     S
O303   C167    1.395   1_655 S
C304   H307    1.110   .     S
C304   H306    1.114   .     S
C304   H197    1.109   1_655 S
O308   C309    1.413   .     S
C309   H312    1.113   .     S
C309   H310    1.109   .     S
H311   C201    1.113   1_655 S
O315   C316    1.412   .     S
C316   H319    1.105   .     S
C316   H317    1.114   .     S
C316   H804    1.106   .     S
H318   C1288   1.106   1_554 S
O320   C321    1.419   .     S
C321   H323    1.110   .     S
C321   H324    1.112   .     S
C321   H322    1.107   .     S
C325   O349    1.290   .     A
C325   C336    1.406   .     S
C325   O347    1.284   .     A
C326   O350    1.286   .     A
C326   C335    1.405   .     S
C326   O348    1.288   .     A
C327   O351    1.284   .     A
C327   O353    1.289   .     A
C327   C329    1.413   .     S
C328   O354    1.293   .     A
C328   C330    1.409   .     S
C328   O352    1.278   .     A
C329   C438    1.349   1_455 S
C329   O465    1.395   1_455 S
C330   C383    1.349   .     S
C330   O416    1.389   .     S
C331   C336    1.392   .     A
C331   H341    1.082   .     S
C332   C335    1.394   .     A
C332   H342    1.084   .     S
C332   C10     1.373   1_565 S
C333   C335    1.394   .     A
C333   H343    1.084   .     S
C333   C7      1.373   1_565 S
C334   C336    1.394   .     A
C334   H344    1.084   .     S
C337   Cl367   1.759   .     S
C337   N346    1.375   .     A
C337   C1311   1.430   1_554 S
C338   N345    1.367   .     A
C338   Cl368   1.761   .     S
C338   C826    1.428   .     S
C339   O369    1.381   .     S
C339   N345    1.370   .     A
C339   C823    1.430   .     S
C340   O374    1.381   .     S
C340   N346    1.374   .     A
C340   C1310   1.428   1_554 S
N345   Zn355   2.029   .     S
N346   Zn356   2.029   .     S
O347   Zn355   1.980   .     S
O348   Zn356   1.980   .     S
O349   Zn356   1.982   .     S
O350   Zn355   1.982   .     S
O351   Zn355   1.974   .     S
O352   Zn356   1.974   .     S
O353   Zn356   1.983   .     S
O354   Zn355   1.983   .     S
O357   C358    1.413   .     S
O357   C383    1.395   .     S
C358   H361    1.110   .     S
C358   H360    1.114   .     S
C358   H413    1.109   .     S
H359   C466    1.109   1_455 S
O362   C363    1.413   .     S
O362   C438    1.389   1_455 S
C363   H366    1.113   .     S
C363   H364    1.109   .     S
C363   H473    1.113   1_455 S
H365   C417    1.113   .     S
O369   C370    1.412   .     S
C370   H373    1.105   .     S
C370   H371    1.114   .     S
C370   H858    1.106   .     S
H372   C1342   1.106   1_554 S
O374   C375    1.419   .     S
C375   H377    1.110   .     S
C375   H378    1.112   .     S
C375   H376    1.107   .     S
C379   O403    1.290   .     A
C379   C390    1.406   .     S
C379   O401    1.284   .     A
C380   O404    1.286   .     A
C380   C389    1.405   .     S
C380   O402    1.288   .     A
C381   O405    1.284   .     A
C381   O407    1.289   .     A
C381   C383    1.413   .     S
C382   O408    1.293   .     A
C382   C384    1.409   .     S
C382   O406    1.278   .     A
C384   C437    1.349   .     S
C384   O470    1.389   .     S
C385   C390    1.392   .     A
C385   H395    1.082   .     S
C386   C389    1.394   .     A
C386   H396    1.084   .     S
C386   C64     1.373   1_565 S
C387   C389    1.394   .     A
C387   H397    1.084   .     S
C387   C61     1.373   1_565 S
C388   C390    1.394   .     A
C388   H398    1.084   .     S
C391   Cl421   1.759   .     S
C391   N400    1.375   .     A
C391   C1365   1.430   1_554 S
C392   N399    1.367   .     A
C392   Cl422   1.761   .     S
C392   C880    1.428   .     S
C393   O423    1.381   .     S
C393   N399    1.370   .     A
C393   C877    1.430   .     S
C394   O428    1.381   .     S
C394   N400    1.374   .     A
C394   C1364   1.428   1_554 S
N399   Zn409   2.029   .     S
N400   Zn410   2.029   .     S
O401   Zn409   1.980   .     S
O402   Zn410   1.980   .     S
O403   Zn410   1.982   .     S
O404   Zn409   1.982   .     S
O405   Zn409   1.974   .     S
O406   Zn410   1.974   .     S
O407   Zn410   1.983   .     S
O408   Zn409   1.983   .     S
O411   C412    1.413   .     S
O411   C437    1.395   .     S
C412   H415    1.110   .     S
C412   H414    1.114   .     S
C412   H467    1.109   .     S
O416   C417    1.413   .     S
C417   H420    1.113   .     S
C417   H418    1.109   .     S
H419   C471    1.113   .     S
O423   C424    1.412   .     S
C424   H427    1.105   .     S
C424   H425    1.114   .     S
C424   H912    1.106   .     S
H426   C1396   1.106   1_554 S
O428   C429    1.419   .     S
C429   H431    1.110   .     S
C429   H432    1.112   .     S
C429   H430    1.107   .     S
C433   O457    1.290   .     A
C433   C444    1.406   .     S
C433   O455    1.284   .     A
C434   O458    1.286   .     A
C434   C443    1.405   .     S
C434   O456    1.288   .     A
C435   O459    1.284   .     A
C435   O461    1.289   .     A
C435   C437    1.413   .     S
C436   O462    1.293   .     A
C436   C438    1.409   .     S
C436   O460    1.278   .     A
C438   C329    1.349   1_655 S
C438   O362    1.389   1_655 S
C439   C444    1.392   .     A
C439   H449    1.082   .     S
C440   C443    1.394   .     A
C440   H450    1.084   .     S
C440   C118    1.373   1_565 S
C441   C443    1.394   .     A
C441   H451    1.084   .     S
C441   C115    1.373   1_565 S
C442   C444    1.394   .     A
C442   H452    1.084   .     S
C445   Cl475   1.759   .     S
C445   N454    1.375   .     A
C445   C1419   1.430   1_554 S
C446   N453    1.367   .     A
C446   Cl476   1.761   .     S
C446   C934    1.428   .     S
C447   O477    1.381   .     S
C447   N453    1.370   .     A
C447   C931    1.430   .     S
C448   O482    1.381   .     S
C448   N454    1.374   .     A
C448   C1418   1.428   1_554 S
N453   Zn463   2.029   .     S
N454   Zn464   2.029   .     S
O455   Zn463   1.980   .     S
O456   Zn464   1.980   .     S
O457   Zn464   1.982   .     S
O458   Zn463   1.982   .     S
O459   Zn463   1.974   .     S
O460   Zn464   1.974   .     S
O461   Zn464   1.983   .     S
O462   Zn463   1.983   .     S
O465   C466    1.413   .     S
O465   C329    1.395   1_655 S
C466   H469    1.110   .     S
C466   H468    1.114   .     S
C466   H359    1.109   1_655 S
O470   C471    1.413   .     S
C471   H474    1.113   .     S
C471   H472    1.109   .     S
H473   C363    1.113   1_655 S
O477   C478    1.412   .     S
C478   H481    1.105   .     S
C478   H479    1.114   .     S
C478   H966    1.106   .     S
H480   C1450   1.106   1_554 S
O482   C483    1.419   .     S
C483   H485    1.110   .     S
C483   H486    1.112   .     S
C483   H484    1.107   .     S
C487   O511    1.290   .     A
C487   C498    1.406   .     S
C487   O509    1.284   .     A
C488   O512    1.286   .     A
C488   C497    1.405   .     S
C488   O510    1.288   .     A
C489   O513    1.284   .     A
C489   O515    1.289   .     A
C489   C491    1.413   .     S
C490   O516    1.293   .     A
C490   C492    1.409   .     S
C490   O514    1.278   .     A
C491   C600    1.349   1_455 S
C491   O627    1.395   1_455 S
C492   C545    1.349   .     S
C492   O578    1.389   .     S
C493   C498    1.392   .     A
C493   H503    1.082   .     S
C493   C819    1.373   1_545 S
C494   C497    1.394   .     A
C494   H504    1.084   .     S
C494   C658    1.373   .     S
C495   C497    1.394   .     A
C495   H505    1.084   .     S
C495   C655    1.373   .     S
C496   C498    1.394   .     A
C496   H506    1.084   .     S
C496   C818    1.373   1_545 S
C499   Cl529   1.759   .     S
C499   N508    1.375   .     A
C500   N507    1.367   .     A
C500   Cl530   1.761   .     S
C500   C988    1.428   .     S
C501   O531    1.381   .     S
C501   N507    1.370   .     A
C501   C985    1.430   .     S
C502   O536    1.381   .     S
C502   N508    1.374   .     A
N507   Zn517   2.029   .     S
N508   Zn518   2.029   .     S
O509   Zn517   1.980   .     S
O510   Zn518   1.980   .     S
O511   Zn518   1.982   .     S
O512   Zn517   1.982   .     S
O513   Zn517   1.974   .     S
O514   Zn518   1.974   .     S
O515   Zn518   1.983   .     S
O516   Zn517   1.983   .     S
O519   C520    1.413   .     S
O519   C545    1.395   .     S
C520   H523    1.110   .     S
C520   H522    1.114   .     S
C520   H575    1.109   .     S
H521   C628    1.109   1_455 S
O524   C525    1.413   .     S
O524   C600    1.389   1_455 S
C525   H528    1.113   .     S
C525   H526    1.109   .     S
C525   H635    1.113   1_455 S
H527   C579    1.113   .     S
O531   C532    1.412   .     S
C532   H535    1.105   .     S
C532   H533    1.114   .     S
C532   H1020   1.106   .     S
O536   C537    1.419   .     S
C537   H539    1.110   .     S
C537   H540    1.112   .     S
C537   H538    1.107   .     S
C541   O565    1.290   .     A
C541   C552    1.406   .     S
C541   O563    1.284   .     A
C542   O566    1.286   .     A
C542   C551    1.405   .     S
C542   O564    1.288   .     A
C543   O567    1.284   .     A
C543   O569    1.289   .     A
C543   C545    1.413   .     S
C544   O570    1.293   .     A
C544   C546    1.409   .     S
C544   O568    1.278   .     A
C546   C599    1.349   .     S
C546   O632    1.389   .     S
C547   C552    1.392   .     A
C547   H557    1.082   .     S
C547   C873    1.373   1_545 S
C548   C551    1.394   .     A
C548   H558    1.084   .     S
C548   C712    1.373   .     S
C549   C551    1.394   .     A
C549   H559    1.084   .     S
C549   C709    1.373   .     S
C550   C552    1.394   .     A
C550   H560    1.084   .     S
C550   C872    1.373   1_545 S
C553   Cl583   1.759   .     S
C553   N562    1.375   .     A
C554   N561    1.367   .     A
C554   Cl584   1.761   .     S
C554   C1042   1.428   .     S
C555   O585    1.381   .     S
C555   N561    1.370   .     A
C555   C1039   1.430   .     S
C556   O590    1.381   .     S
C556   N562    1.374   .     A
N561   Zn571   2.029   .     S
N562   Zn572   2.029   .     S
O563   Zn571   1.980   .     S
O564   Zn572   1.980   .     S
O565   Zn572   1.982   .     S
O566   Zn571   1.982   .     S
O567   Zn571   1.974   .     S
O568   Zn572   1.974   .     S
O569   Zn572   1.983   .     S
O570   Zn571   1.983   .     S
O573   C574    1.413   .     S
O573   C599    1.395   .     S
C574   H577    1.110   .     S
C574   H576    1.114   .     S
C574   H629    1.109   .     S
O578   C579    1.413   .     S
C579   H582    1.113   .     S
C579   H580    1.109   .     S
H581   C633    1.113   .     S
O585   C586    1.412   .     S
C586   H589    1.105   .     S
C586   H587    1.114   .     S
C586   H1074   1.106   .     S
O590   C591    1.419   .     S
C591   H593    1.110   .     S
C591   H594    1.112   .     S
C591   H592    1.107   .     S
C595   O619    1.290   .     A
C595   C606    1.406   .     S
C595   O617    1.284   .     A
C596   O620    1.286   .     A
C596   C605    1.405   .     S
C596   O618    1.288   .     A
C597   O621    1.284   .     A
C597   O623    1.289   .     A
C597   C599    1.413   .     S
C598   O624    1.293   .     A
C598   C600    1.409   .     S
C598   O622    1.278   .     A
C600   C491    1.349   1_655 S
C600   O524    1.389   1_655 S
C601   C606    1.392   .     A
C601   H611    1.082   .     S
C601   C927    1.373   1_545 S
C602   C605    1.394   .     A
C602   H612    1.084   .     S
C602   C766    1.373   .     S
C603   C605    1.394   .     A
C603   H613    1.084   .     S
C603   C763    1.373   .     S
C604   C606    1.394   .     A
C604   H614    1.084   .     S
C604   C926    1.373   1_545 S
C607   Cl637   1.759   .     S
C607   N616    1.375   .     A
C608   N615    1.367   .     A
C608   Cl638   1.761   .     S
C608   C1096   1.428   .     S
C609   O639    1.381   .     S
C609   N615    1.370   .     A
C609   C1093   1.430   .     S
C610   O644    1.381   .     S
C610   N616    1.374   .     A
N615   Zn625   2.029   .     S
N616   Zn626   2.029   .     S
O617   Zn625   1.980   .     S
O618   Zn626   1.980   .     S
O619   Zn626   1.982   .     S
O620   Zn625   1.982   .     S
O621   Zn625   1.974   .     S
O622   Zn626   1.974   .     S
O623   Zn626   1.983   .     S
O624   Zn625   1.983   .     S
O627   C628    1.413   .     S
O627   C491    1.395   1_655 S
C628   H631    1.110   .     S
C628   H630    1.114   .     S
C628   H521    1.109   1_655 S
O632   C633    1.413   .     S
C633   H636    1.113   .     S
C633   H634    1.109   .     S
H635   C525    1.113   1_655 S
O639   C640    1.412   .     S
C640   H643    1.105   .     S
C640   H641    1.114   .     S
C640   H1128   1.106   .     S
O644   C645    1.419   .     S
C645   H647    1.110   .     S
C645   H648    1.112   .     S
C645   H646    1.107   .     S
C649   O673    1.290   .     A
C649   C660    1.406   .     S
C649   O671    1.284   .     A
C650   O674    1.286   .     A
C650   C659    1.405   .     S
C650   O672    1.288   .     A
C651   O675    1.284   .     A
C651   O677    1.289   .     A
C651   C653    1.413   .     S
C652   O678    1.293   .     A
C652   C654    1.409   .     S
C652   O676    1.278   .     A
C653   C762    1.349   1_455 S
C653   O789    1.395   1_455 S
C654   C707    1.349   .     S
C654   O740    1.389   .     S
C655   C660    1.392   .     A
C655   H665    1.082   .     S
C656   C659    1.394   .     A
C656   H666    1.084   .     S
C656   C820    1.373   .     S
C657   C659    1.394   .     A
C657   H667    1.084   .     S
C657   C817    1.373   .     S
C658   C660    1.394   .     A
C658   H668    1.084   .     S
C661   Cl691   1.759   .     S
C661   N670    1.375   .     A
C662   N669    1.367   .     A
C662   Cl692   1.761   .     S
C662   C1150   1.428   .     S
C663   O693    1.381   .     S
C663   N669    1.370   .     A
C663   C1147   1.430   .     S
C664   O698    1.381   .     S
C664   N670    1.374   .     A
N669   Zn679   2.029   .     S
N670   Zn680   2.029   .     S
O671   Zn679   1.980   .     S
O672   Zn680   1.980   .     S
O673   Zn680   1.982   .     S
O674   Zn679   1.982   .     S
O675   Zn679   1.974   .     S
O676   Zn680   1.974   .     S
O677   Zn680   1.983   .     S
O678   Zn679   1.983   .     S
O681   C682    1.413   .     S
O681   C707    1.395   .     S
C682   H685    1.110   .     S
C682   H684    1.114   .     S
C682   H737    1.109   .     S
H683   C790    1.109   1_455 S
O686   C687    1.413   .     S
O686   C762    1.389   1_455 S
C687   H690    1.113   .     S
C687   H688    1.109   .     S
C687   H797    1.113   1_455 S
H689   C741    1.113   .     S
O693   C694    1.412   .     S
C694   H697    1.105   .     S
C694   H695    1.114   .     S
C694   H1182   1.106   .     S
O698   C699    1.419   .     S
C699   H701    1.110   .     S
C699   H702    1.112   .     S
C699   H700    1.107   .     S
C703   O727    1.290   .     A
C703   C714    1.406   .     S
C703   O725    1.284   .     A
C704   O728    1.286   .     A
C704   C713    1.405   .     S
C704   O726    1.288   .     A
C705   O729    1.284   .     A
C705   O731    1.289   .     A
C705   C707    1.413   .     S
C706   O732    1.293   .     A
C706   C708    1.409   .     S
C706   O730    1.278   .     A
C708   C761    1.349   .     S
C708   O794    1.389   .     S
C709   C714    1.392   .     A
C709   H719    1.082   .     S
C710   C713    1.394   .     A
C710   H720    1.084   .     S
C710   C874    1.373   .     S
C711   C713    1.394   .     A
C711   H721    1.084   .     S
C711   C871    1.373   .     S
C712   C714    1.394   .     A
C712   H722    1.084   .     S
C715   Cl745   1.759   .     S
C715   N724    1.375   .     A
C716   N723    1.367   .     A
C716   Cl746   1.761   .     S
C716   C1204   1.428   .     S
C717   O747    1.381   .     S
C717   N723    1.370   .     A
C717   C1201   1.430   .     S
C718   O752    1.381   .     S
C718   N724    1.374   .     A
N723   Zn733   2.029   .     S
N724   Zn734   2.029   .     S
O725   Zn733   1.980   .     S
O726   Zn734   1.980   .     S
O727   Zn734   1.982   .     S
O728   Zn733   1.982   .     S
O729   Zn733   1.974   .     S
O730   Zn734   1.974   .     S
O731   Zn734   1.983   .     S
O732   Zn733   1.983   .     S
O735   C736    1.413   .     S
O735   C761    1.395   .     S
C736   H739    1.110   .     S
C736   H738    1.114   .     S
C736   H791    1.109   .     S
O740   C741    1.413   .     S
C741   H744    1.113   .     S
C741   H742    1.109   .     S
H743   C795    1.113   .     S
O747   C748    1.412   .     S
C748   H751    1.105   .     S
C748   H749    1.114   .     S
C748   H1236   1.106   .     S
O752   C753    1.419   .     S
C753   H755    1.110   .     S
C753   H756    1.112   .     S
C753   H754    1.107   .     S
C757   O781    1.290   .     A
C757   C768    1.406   .     S
C757   O779    1.284   .     A
C758   O782    1.286   .     A
C758   C767    1.405   .     S
C758   O780    1.288   .     A
C759   O783    1.284   .     A
C759   O785    1.289   .     A
C759   C761    1.413   .     S
C760   O786    1.293   .     A
C760   C762    1.409   .     S
C760   O784    1.278   .     A
C762   C653    1.349   1_655 S
C762   O686    1.389   1_655 S
C763   C768    1.392   .     A
C763   H773    1.082   .     S
C764   C767    1.394   .     A
C764   H774    1.084   .     S
C764   C928    1.373   .     S
C765   C767    1.394   .     A
C765   H775    1.084   .     S
C765   C925    1.373   .     S
C766   C768    1.394   .     A
C766   H776    1.084   .     S
C769   Cl799   1.759   .     S
C769   N778    1.375   .     A
C770   N777    1.367   .     A
C770   Cl800   1.761   .     S
C770   C1258   1.428   .     S
C771   O801    1.381   .     S
C771   N777    1.370   .     A
C771   C1255   1.430   .     S
C772   O806    1.381   .     S
C772   N778    1.374   .     A
N777   Zn787   2.029   .     S
N778   Zn788   2.029   .     S
O779   Zn787   1.980   .     S
O780   Zn788   1.980   .     S
O781   Zn788   1.982   .     S
O782   Zn787   1.982   .     S
O783   Zn787   1.974   .     S
O784   Zn788   1.974   .     S
O785   Zn788   1.983   .     S
O786   Zn787   1.983   .     S
O789   C790    1.413   .     S
O789   C653    1.395   1_655 S
C790   H793    1.110   .     S
C790   H792    1.114   .     S
C790   H683    1.109   1_655 S
O794   C795    1.413   .     S
C795   H798    1.113   .     S
C795   H796    1.109   .     S
H797   C687    1.113   1_655 S
O801   C802    1.412   .     S
C802   H805    1.105   .     S
C802   H803    1.114   .     S
C802   H1290   1.106   .     S
O806   C807    1.419   .     S
C807   H809    1.110   .     S
C807   H810    1.112   .     S
C807   H808    1.107   .     S
C811   O835    1.290   .     A
C811   C822    1.406   .     S
C811   O833    1.284   .     A
C812   O836    1.286   .     A
C812   C821    1.405   .     S
C812   O834    1.288   .     A
C813   O837    1.284   .     A
C813   O839    1.289   .     A
C813   C815    1.413   .     S
C814   O840    1.293   .     A
C814   C816    1.409   .     S
C814   O838    1.278   .     A
C815   C924    1.349   1_455 S
C815   O951    1.395   1_455 S
C816   C869    1.349   .     S
C816   O902    1.389   .     S
C817   C822    1.392   .     A
C817   H827    1.082   .     S
C818   C821    1.394   .     A
C818   H828    1.084   .     S
C818   C496    1.373   1_565 S
C819   C821    1.394   .     A
C819   H829    1.084   .     S
C819   C493    1.373   1_565 S
C820   C822    1.394   .     A
C820   H830    1.084   .     S
C823   Cl853   1.759   .     S
C823   N832    1.375   .     A
C824   N831    1.367   .     A
C824   Cl854   1.761   .     S
C824   C1312   1.428   .     S
C825   O855    1.381   .     S
C825   N831    1.370   .     A
C825   C1309   1.430   .     S
C826   O860    1.381   .     S
C826   N832    1.374   .     A
N831   Zn841   2.029   .     S
N832   Zn842   2.029   .     S
O833   Zn841   1.980   .     S
O834   Zn842   1.980   .     S
O835   Zn842   1.982   .     S
O836   Zn841   1.982   .     S
O837   Zn841   1.974   .     S
O838   Zn842   1.974   .     S
O839   Zn842   1.983   .     S
O840   Zn841   1.983   .     S
O843   C844    1.413   .     S
O843   C869    1.395   .     S
C844   H847    1.110   .     S
C844   H846    1.114   .     S
C844   H899    1.109   .     S
H845   C952    1.109   1_455 S
O848   C849    1.413   .     S
O848   C924    1.389   1_455 S
C849   H852    1.113   .     S
C849   H850    1.109   .     S
C849   H959    1.113   1_455 S
H851   C903    1.113   .     S
O855   C856    1.412   .     S
C856   H859    1.105   .     S
C856   H857    1.114   .     S
C856   H1344   1.106   .     S
O860   C861    1.419   .     S
C861   H863    1.110   .     S
C861   H864    1.112   .     S
C861   H862    1.107   .     S
C865   O889    1.290   .     A
C865   C876    1.406   .     S
C865   O887    1.284   .     A
C866   O890    1.286   .     A
C866   C875    1.405   .     S
C866   O888    1.288   .     A
C867   O891    1.284   .     A
C867   O893    1.289   .     A
C867   C869    1.413   .     S
C868   O894    1.293   .     A
C868   C870    1.409   .     S
C868   O892    1.278   .     A
C870   C923    1.349   .     S
C870   O956    1.389   .     S
C871   C876    1.392   .     A
C871   H881    1.082   .     S
C872   C875    1.394   .     A
C872   H882    1.084   .     S
C872   C550    1.373   1_565 S
C873   C875    1.394   .     A
C873   H883    1.084   .     S
C873   C547    1.373   1_565 S
C874   C876    1.394   .     A
C874   H884    1.084   .     S
C877   Cl907   1.759   .     S
C877   N886    1.375   .     A
C878   N885    1.367   .     A
C878   Cl908   1.761   .     S
C878   C1366   1.428   .     S
C879   O909    1.381   .     S
C879   N885    1.370   .     A
C879   C1363   1.430   .     S
C880   O914    1.381   .     S
C880   N886    1.374   .     A
N885   Zn895   2.029   .     S
N886   Zn896   2.029   .     S
O887   Zn895   1.980   .     S
O888   Zn896   1.980   .     S
O889   Zn896   1.982   .     S
O890   Zn895   1.982   .     S
O891   Zn895   1.974   .     S
O892   Zn896   1.974   .     S
O893   Zn896   1.983   .     S
O894   Zn895   1.983   .     S
O897   C898    1.413   .     S
O897   C923    1.395   .     S
C898   H901    1.110   .     S
C898   H900    1.114   .     S
C898   H953    1.109   .     S
O902   C903    1.413   .     S
C903   H906    1.113   .     S
C903   H904    1.109   .     S
H905   C957    1.113   .     S
O909   C910    1.412   .     S
C910   H913    1.105   .     S
C910   H911    1.114   .     S
C910   H1398   1.106   .     S
O914   C915    1.419   .     S
C915   H917    1.110   .     S
C915   H918    1.112   .     S
C915   H916    1.107   .     S
C919   O943    1.290   .     A
C919   C930    1.406   .     S
C919   O941    1.284   .     A
C920   O944    1.286   .     A
C920   C929    1.405   .     S
C920   O942    1.288   .     A
C921   O945    1.284   .     A
C921   O947    1.289   .     A
C921   C923    1.413   .     S
C922   O948    1.293   .     A
C922   C924    1.409   .     S
C922   O946    1.278   .     A
C924   C815    1.349   1_655 S
C924   O848    1.389   1_655 S
C925   C930    1.392   .     A
C925   H935    1.082   .     S
C926   C929    1.394   .     A
C926   H936    1.084   .     S
C926   C604    1.373   1_565 S
C927   C929    1.394   .     A
C927   H937    1.084   .     S
C927   C601    1.373   1_565 S
C928   C930    1.394   .     A
C928   H938    1.084   .     S
C931   Cl961   1.759   .     S
C931   N940    1.375   .     A
C932   N939    1.367   .     A
C932   Cl962   1.761   .     S
C932   C1420   1.428   .     S
C933   O963    1.381   .     S
C933   N939    1.370   .     A
C933   C1417   1.430   .     S
C934   O968    1.381   .     S
C934   N940    1.374   .     A
N939   Zn949   2.029   .     S
N940   Zn950   2.029   .     S
O941   Zn949   1.980   .     S
O942   Zn950   1.980   .     S
O943   Zn950   1.982   .     S
O944   Zn949   1.982   .     S
O945   Zn949   1.974   .     S
O946   Zn950   1.974   .     S
O947   Zn950   1.983   .     S
O948   Zn949   1.983   .     S
O951   C952    1.413   .     S
O951   C815    1.395   1_655 S
C952   H955    1.110   .     S
C952   H954    1.114   .     S
C952   H845    1.109   1_655 S
O956   C957    1.413   .     S
C957   H960    1.113   .     S
C957   H958    1.109   .     S
H959   C849    1.113   1_655 S
O963   C964    1.412   .     S
C964   H967    1.105   .     S
C964   H965    1.114   .     S
C964   H1452   1.106   .     S
O968   C969    1.419   .     S
C969   H971    1.110   .     S
C969   H972    1.112   .     S
C969   H970    1.107   .     S
C973   O997    1.290   .     A
C973   C984    1.406   .     S
C973   O995    1.284   .     A
C974   O998    1.286   .     A
C974   C983    1.405   .     S
C974   O996    1.288   .     A
C975   O999    1.284   .     A
C975   O1001   1.289   .     A
C975   C977    1.413   .     S
C976   O1002   1.293   .     A
C976   C978    1.409   .     S
C976   O1000   1.278   .     A
C977   C1086   1.349   1_455 S
C977   O1113   1.395   1_455 S
C978   C1031   1.349   .     S
C978   O1064   1.389   .     S
C979   C984    1.392   .     A
C979   H989    1.082   .     S
C979   C1305   1.373   1_545 S
C980   C983    1.394   .     A
C980   H990    1.084   .     S
C980   C1144   1.373   .     S
C981   C983    1.394   .     A
C981   H991    1.084   .     S
C981   C1141   1.373   .     S
C982   C984    1.394   .     A
C982   H992    1.084   .     S
C982   C1304   1.373   1_545 S
C985   Cl1015  1.759   .     S
C985   N994    1.375   .     A
C986   N993    1.367   .     A
C986   Cl1016  1.761   .     S
C986   C16     1.428   1_556 S
C987   O1017   1.381   .     S
C987   N993    1.370   .     A
C987   C13     1.430   1_556 S
C988   O1022   1.381   .     S
C988   N994    1.374   .     A
N993   Zn1003  2.029   .     S
N994   Zn1004  2.029   .     S
O995   Zn1003  1.980   .     S
O996   Zn1004  1.980   .     S
O997   Zn1004  1.982   .     S
O998   Zn1003  1.982   .     S
O999   Zn1003  1.974   .     S
O1000  Zn1004  1.974   .     S
O1001  Zn1004  1.983   .     S
O1002  Zn1003  1.983   .     S
O1005  C1006   1.413   .     S
O1005  C1031   1.395   .     S
C1006  H1009   1.110   .     S
C1006  H1008   1.114   .     S
C1006  H1061   1.109   .     S
H1007  C1114   1.109   1_455 S
O1010  C1011   1.413   .     S
O1010  C1086   1.389   1_455 S
C1011  H1014   1.113   .     S
C1011  H1012   1.109   .     S
C1011  H1121   1.113   1_455 S
H1013  C1065   1.113   .     S
O1017  C1018   1.412   .     S
C1018  H1021   1.105   .     S
C1018  H1019   1.114   .     S
C1018  H48     1.106   1_556 S
O1022  C1023   1.419   .     S
C1023  H1025   1.110   .     S
C1023  H1026   1.112   .     S
C1023  H1024   1.107   .     S
C1027  O1051   1.290   .     A
C1027  C1038   1.406   .     S
C1027  O1049   1.284   .     A
C1028  O1052   1.286   .     A
C1028  C1037   1.405   .     S
C1028  O1050   1.288   .     A
C1029  O1053   1.284   .     A
C1029  O1055   1.289   .     A
C1029  C1031   1.413   .     S
C1030  O1056   1.293   .     A
C1030  C1032   1.409   .     S
C1030  O1054   1.278   .     A
C1032  C1085   1.349   .     S
C1032  O1118   1.389   .     S
C1033  C1038   1.392   .     A
C1033  H1043   1.082   .     S
C1033  C1359   1.373   1_545 S
C1034  C1037   1.394   .     A
C1034  H1044   1.084   .     S
C1034  C1198   1.373   .     S
C1035  C1037   1.394   .     A
C1035  H1045   1.084   .     S
C1035  C1195   1.373   .     S
C1036  C1038   1.394   .     A
C1036  H1046   1.084   .     S
C1036  C1358   1.373   1_545 S
C1039  Cl1069  1.759   .     S
C1039  N1048   1.375   .     A
C1040  N1047   1.367   .     A
C1040  Cl1070  1.761   .     S
C1040  C70     1.428   1_556 S
C1041  O1071   1.381   .     S
C1041  N1047   1.370   .     A
C1041  C67     1.430   1_556 S
C1042  O1076   1.381   .     S
C1042  N1048   1.374   .     A
N1047  Zn1057  2.029   .     S
N1048  Zn1058  2.029   .     S
O1049  Zn1057  1.980   .     S
O1050  Zn1058  1.980   .     S
O1051  Zn1058  1.982   .     S
O1052  Zn1057  1.982   .     S
O1053  Zn1057  1.974   .     S
O1054  Zn1058  1.974   .     S
O1055  Zn1058  1.983   .     S
O1056  Zn1057  1.983   .     S
O1059  C1060   1.413   .     S
O1059  C1085   1.395   .     S
C1060  H1063   1.110   .     S
C1060  H1062   1.114   .     S
C1060  H1115   1.109   .     S
O1064  C1065   1.413   .     S
C1065  H1068   1.113   .     S
C1065  H1066   1.109   .     S
H1067  C1119   1.113   .     S
O1071  C1072   1.412   .     S
C1072  H1075   1.105   .     S
C1072  H1073   1.114   .     S
C1072  H102    1.106   1_556 S
O1076  C1077   1.419   .     S
C1077  H1079   1.110   .     S
C1077  H1080   1.112   .     S
C1077  H1078   1.107   .     S
C1081  O1105   1.290   .     A
C1081  C1092   1.406   .     S
C1081  O1103   1.284   .     A
C1082  O1106   1.286   .     A
C1082  C1091   1.405   .     S
C1082  O1104   1.288   .     A
C1083  O1107   1.284   .     A
C1083  O1109   1.289   .     A
C1083  C1085   1.413   .     S
C1084  O1110   1.293   .     A
C1084  C1086   1.409   .     S
C1084  O1108   1.278   .     A
C1086  C977    1.349   1_655 S
C1086  O1010   1.389   1_655 S
C1087  C1092   1.392   .     A
C1087  H1097   1.082   .     S
C1087  C1413   1.373   1_545 S
C1088  C1091   1.394   .     A
C1088  H1098   1.084   .     S
C1088  C1252   1.373   .     S
C1089  C1091   1.394   .     A
C1089  H1099   1.084   .     S
C1089  C1249   1.373   .     S
C1090  C1092   1.394   .     A
C1090  H1100   1.084   .     S
C1090  C1412   1.373   1_545 S
C1093  Cl1123  1.759   .     S
C1093  N1102   1.375   .     A
C1094  N1101   1.367   .     A
C1094  Cl1124  1.761   .     S
C1094  C124    1.428   1_556 S
C1095  O1125   1.381   .     S
C1095  N1101   1.370   .     A
C1095  C121    1.430   1_556 S
C1096  O1130   1.381   .     S
C1096  N1102   1.374   .     A
N1101  Zn1111  2.029   .     S
N1102  Zn1112  2.029   .     S
O1103  Zn1111  1.980   .     S
O1104  Zn1112  1.980   .     S
O1105  Zn1112  1.982   .     S
O1106  Zn1111  1.982   .     S
O1107  Zn1111  1.974   .     S
O1108  Zn1112  1.974   .     S
O1109  Zn1112  1.983   .     S
O1110  Zn1111  1.983   .     S
O1113  C1114   1.413   .     S
O1113  C977    1.395   1_655 S
C1114  H1117   1.110   .     S
C1114  H1116   1.114   .     S
C1114  H1007   1.109   1_655 S
O1118  C1119   1.413   .     S
C1119  H1122   1.113   .     S
C1119  H1120   1.109   .     S
H1121  C1011   1.113   1_655 S
O1125  C1126   1.412   .     S
C1126  H1129   1.105   .     S
C1126  H1127   1.114   .     S
C1126  H156    1.106   1_556 S
O1130  C1131   1.419   .     S
C1131  H1133   1.110   .     S
C1131  H1134   1.112   .     S
C1131  H1132   1.107   .     S
C1135  O1159   1.290   .     A
C1135  C1146   1.406   .     S
C1135  O1157   1.284   .     A
C1136  O1160   1.286   .     A
C1136  C1145   1.405   .     S
C1136  O1158   1.288   .     A
C1137  O1161   1.284   .     A
C1137  O1163   1.289   .     A
C1137  C1139   1.413   .     S
C1138  O1164   1.293   .     A
C1138  C1140   1.409   .     S
C1138  O1162   1.278   .     A
C1139  C1248   1.349   1_455 S
C1139  O1275   1.395   1_455 S
C1140  C1193   1.349   .     S
C1140  O1226   1.389   .     S
C1141  C1146   1.392   .     A
C1141  H1151   1.082   .     S
C1142  C1145   1.394   .     A
C1142  H1152   1.084   .     S
C1142  C1306   1.373   .     S
C1143  C1145   1.394   .     A
C1143  H1153   1.084   .     S
C1143  C1303   1.373   .     S
C1144  C1146   1.394   .     A
C1144  H1154   1.084   .     S
C1147  Cl1177  1.759   .     S
C1147  N1156   1.375   .     A
C1148  N1155   1.367   .     A
C1148  Cl1178  1.761   .     S
C1148  C178    1.428   1_556 S
C1149  O1179   1.381   .     S
C1149  N1155   1.370   .     A
C1149  C175    1.430   1_556 S
C1150  O1184   1.381   .     S
C1150  N1156   1.374   .     A
N1155  Zn1165  2.029   .     S
N1156  Zn1166  2.029   .     S
O1157  Zn1165  1.980   .     S
O1158  Zn1166  1.980   .     S
O1159  Zn1166  1.982   .     S
O1160  Zn1165  1.982   .     S
O1161  Zn1165  1.974   .     S
O1162  Zn1166  1.974   .     S
O1163  Zn1166  1.983   .     S
O1164  Zn1165  1.983   .     S
O1167  C1168   1.413   .     S
O1167  C1193   1.395   .     S
C1168  H1171   1.110   .     S
C1168  H1170   1.114   .     S
C1168  H1223   1.109   .     S
H1169  C1276   1.109   1_455 S
O1172  C1173   1.413   .     S
O1172  C1248   1.389   1_455 S
C1173  H1176   1.113   .     S
C1173  H1174   1.109   .     S
C1173  H1283   1.113   1_455 S
H1175  C1227   1.113   .     S
O1179  C1180   1.412   .     S
C1180  H1183   1.105   .     S
C1180  H1181   1.114   .     S
C1180  H210    1.106   1_556 S
O1184  C1185   1.419   .     S
C1185  H1187   1.110   .     S
C1185  H1188   1.112   .     S
C1185  H1186   1.107   .     S
C1189  O1213   1.290   .     A
C1189  C1200   1.406   .     S
C1189  O1211   1.284   .     A
C1190  O1214   1.286   .     A
C1190  C1199   1.405   .     S
C1190  O1212   1.288   .     A
C1191  O1215   1.284   .     A
C1191  O1217   1.289   .     A
C1191  C1193   1.413   .     S
C1192  O1218   1.293   .     A
C1192  C1194   1.409   .     S
C1192  O1216   1.278   .     A
C1194  C1247   1.349   .     S
C1194  O1280   1.389   .     S
C1195  C1200   1.392   .     A
C1195  H1205   1.082   .     S
C1196  C1199   1.394   .     A
C1196  H1206   1.084   .     S
C1196  C1360   1.373   .     S
C1197  C1199   1.394   .     A
C1197  H1207   1.084   .     S
C1197  C1357   1.373   .     S
C1198  C1200   1.394   .     A
C1198  H1208   1.084   .     S
C1201  Cl1231  1.759   .     S
C1201  N1210   1.375   .     A
C1202  N1209   1.367   .     A
C1202  Cl1232  1.761   .     S
C1202  C232    1.428   1_556 S
C1203  O1233   1.381   .     S
C1203  N1209   1.370   .     A
C1203  C229    1.430   1_556 S
C1204  O1238   1.381   .     S
C1204  N1210   1.374   .     A
N1209  Zn1219  2.029   .     S
N1210  Zn1220  2.029   .     S
O1211  Zn1219  1.980   .     S
O1212  Zn1220  1.980   .     S
O1213  Zn1220  1.982   .     S
O1214  Zn1219  1.982   .     S
O1215  Zn1219  1.974   .     S
O1216  Zn1220  1.974   .     S
O1217  Zn1220  1.983   .     S
O1218  Zn1219  1.983   .     S
O1221  C1222   1.413   .     S
O1221  C1247   1.395   .     S
C1222  H1225   1.110   .     S
C1222  H1224   1.114   .     S
C1222  H1277   1.109   .     S
O1226  C1227   1.413   .     S
C1227  H1230   1.113   .     S
C1227  H1228   1.109   .     S
H1229  C1281   1.113   .     S
O1233  C1234   1.412   .     S
C1234  H1237   1.105   .     S
C1234  H1235   1.114   .     S
C1234  H264    1.106   1_556 S
O1238  C1239   1.419   .     S
C1239  H1241   1.110   .     S
C1239  H1242   1.112   .     S
C1239  H1240   1.107   .     S
C1243  O1267   1.290   .     A
C1243  C1254   1.406   .     S
C1243  O1265   1.284   .     A
C1244  O1268   1.286   .     A
C1244  C1253   1.405   .     S
C1244  O1266   1.288   .     A
C1245  O1269   1.284   .     A
C1245  O1271   1.289   .     A
C1245  C1247   1.413   .     S
C1246  O1272   1.293   .     A
C1246  C1248   1.409   .     S
C1246  O1270   1.278   .     A
C1248  C1139   1.349   1_655 S
C1248  O1172   1.389   1_655 S
C1249  C1254   1.392   .     A
C1249  H1259   1.082   .     S
C1250  C1253   1.394   .     A
C1250  H1260   1.084   .     S
C1250  C1414   1.373   .     S
C1251  C1253   1.394   .     A
C1251  H1261   1.084   .     S
C1251  C1411   1.373   .     S
C1252  C1254   1.394   .     A
C1252  H1262   1.084   .     S
C1255  Cl1285  1.759   .     S
C1255  N1264   1.375   .     A
C1256  N1263   1.367   .     A
C1256  Cl1286  1.761   .     S
C1256  C286    1.428   1_556 S
C1257  O1287   1.381   .     S
C1257  N1263   1.370   .     A
C1257  C283    1.430   1_556 S
C1258  O1292   1.381   .     S
C1258  N1264   1.374   .     A
N1263  Zn1273  2.029   .     S
N1264  Zn1274  2.029   .     S
O1265  Zn1273  1.980   .     S
O1266  Zn1274  1.980   .     S
O1267  Zn1274  1.982   .     S
O1268  Zn1273  1.982   .     S
O1269  Zn1273  1.974   .     S
O1270  Zn1274  1.974   .     S
O1271  Zn1274  1.983   .     S
O1272  Zn1273  1.983   .     S
O1275  C1276   1.413   .     S
O1275  C1139   1.395   1_655 S
C1276  H1279   1.110   .     S
C1276  H1278   1.114   .     S
C1276  H1169   1.109   1_655 S
O1280  C1281   1.413   .     S
C1281  H1284   1.113   .     S
C1281  H1282   1.109   .     S
H1283  C1173   1.113   1_655 S
O1287  C1288   1.412   .     S
C1288  H1291   1.105   .     S
C1288  H1289   1.114   .     S
C1288  H318    1.106   1_556 S
O1292  C1293   1.419   .     S
C1293  H1295   1.110   .     S
C1293  H1296   1.112   .     S
C1293  H1294   1.107   .     S
C1297  O1321   1.290   .     A
C1297  C1308   1.406   .     S
C1297  O1319   1.284   .     A
C1298  O1322   1.286   .     A
C1298  C1307   1.405   .     S
C1298  O1320   1.288   .     A
C1299  O1323   1.284   .     A
C1299  O1325   1.289   .     A
C1299  C1301   1.413   .     S
C1300  O1326   1.293   .     A
C1300  C1302   1.409   .     S
C1300  O1324   1.278   .     A
C1301  C1410   1.349   1_455 S
C1301  O1437   1.395   1_455 S
C1302  C1355   1.349   .     S
C1302  O1388   1.389   .     S
C1303  C1308   1.392   .     A
C1303  H1313   1.082   .     S
C1304  C1307   1.394   .     A
C1304  H1314   1.084   .     S
C1304  C982    1.373   1_565 S
C1305  C1307   1.394   .     A
C1305  H1315   1.084   .     S
C1305  C979    1.373   1_565 S
C1306  C1308   1.394   .     A
C1306  H1316   1.084   .     S
C1309  Cl1339  1.759   .     S
C1309  N1318   1.375   .     A
C1310  N1317   1.367   .     A
C1310  Cl1340  1.761   .     S
C1310  C340    1.428   1_556 S
C1311  O1341   1.381   .     S
C1311  N1317   1.370   .     A
C1311  C337    1.430   1_556 S
C1312  O1346   1.381   .     S
C1312  N1318   1.374   .     A
N1317  Zn1327  2.029   .     S
N1318  Zn1328  2.029   .     S
O1319  Zn1327  1.980   .     S
O1320  Zn1328  1.980   .     S
O1321  Zn1328  1.982   .     S
O1322  Zn1327  1.982   .     S
O1323  Zn1327  1.974   .     S
O1324  Zn1328  1.974   .     S
O1325  Zn1328  1.983   .     S
O1326  Zn1327  1.983   .     S
O1329  C1330   1.413   .     S
O1329  C1355   1.395   .     S
C1330  H1333   1.110   .     S
C1330  H1332   1.114   .     S
C1330  H1385   1.109   .     S
H1331  C1438   1.109   1_455 S
O1334  C1335   1.413   .     S
O1334  C1410   1.389   1_455 S
C1335  H1338   1.113   .     S
C1335  H1336   1.109   .     S
C1335  H1445   1.113   1_455 S
H1337  C1389   1.113   .     S
O1341  C1342   1.412   .     S
C1342  H1345   1.105   .     S
C1342  H1343   1.114   .     S
C1342  H372    1.106   1_556 S
O1346  C1347   1.419   .     S
C1347  H1349   1.110   .     S
C1347  H1350   1.112   .     S
C1347  H1348   1.107   .     S
C1351  O1375   1.290   .     A
C1351  C1362   1.406   .     S
C1351  O1373   1.284   .     A
C1352  O1376   1.286   .     A
C1352  C1361   1.405   .     S
C1352  O1374   1.288   .     A
C1353  O1377   1.284   .     A
C1353  O1379   1.289   .     A
C1353  C1355   1.413   .     S
C1354  O1380   1.293   .     A
C1354  C1356   1.409   .     S
C1354  O1378   1.278   .     A
C1356  C1409   1.349   .     S
C1356  O1442   1.389   .     S
C1357  C1362   1.392   .     A
C1357  H1367   1.082   .     S
C1358  C1361   1.394   .     A
C1358  H1368   1.084   .     S
C1358  C1036   1.373   1_565 S
C1359  C1361   1.394   .     A
C1359  H1369   1.084   .     S
C1359  C1033   1.373   1_565 S
C1360  C1362   1.394   .     A
C1360  H1370   1.084   .     S
C1363  Cl1393  1.759   .     S
C1363  N1372   1.375   .     A
C1364  N1371   1.367   .     A
C1364  Cl1394  1.761   .     S
C1364  C394    1.428   1_556 S
C1365  O1395   1.381   .     S
C1365  N1371   1.370   .     A
C1365  C391    1.430   1_556 S
C1366  O1400   1.381   .     S
C1366  N1372   1.374   .     A
N1371  Zn1381  2.029   .     S
N1372  Zn1382  2.029   .     S
O1373  Zn1381  1.980   .     S
O1374  Zn1382  1.980   .     S
O1375  Zn1382  1.982   .     S
O1376  Zn1381  1.982   .     S
O1377  Zn1381  1.974   .     S
O1378  Zn1382  1.974   .     S
O1379  Zn1382  1.983   .     S
O1380  Zn1381  1.983   .     S
O1383  C1384   1.413   .     S
O1383  C1409   1.395   .     S
C1384  H1387   1.110   .     S
C1384  H1386   1.114   .     S
C1384  H1439   1.109   .     S
O1388  C1389   1.413   .     S
C1389  H1392   1.113   .     S
C1389  H1390   1.109   .     S
H1391  C1443   1.113   .     S
O1395  C1396   1.412   .     S
C1396  H1399   1.105   .     S
C1396  H1397   1.114   .     S
C1396  H426    1.106   1_556 S
O1400  C1401   1.419   .     S
C1401  H1403   1.110   .     S
C1401  H1404   1.112   .     S
C1401  H1402   1.107   .     S
C1405  O1429   1.290   .     A
C1405  C1416   1.406   .     S
C1405  O1427   1.284   .     A
C1406  O1430   1.286   .     A
C1406  C1415   1.405   .     S
C1406  O1428   1.288   .     A
C1407  O1431   1.284   .     A
C1407  O1433   1.289   .     A
C1407  C1409   1.413   .     S
C1408  O1434   1.293   .     A
C1408  C1410   1.409   .     S
C1408  O1432   1.278   .     A
C1410  C1301   1.349   1_655 S
C1410  O1334   1.389   1_655 S
C1411  C1416   1.392   .     A
C1411  H1421   1.082   .     S
C1412  C1415   1.394   .     A
C1412  H1422   1.084   .     S
C1412  C1090   1.373   1_565 S
C1413  C1415   1.394   .     A
C1413  H1423   1.084   .     S
C1413  C1087   1.373   1_565 S
C1414  C1416   1.394   .     A
C1414  H1424   1.084   .     S
C1417  Cl1447  1.759   .     S
C1417  N1426   1.375   .     A
C1418  N1425   1.367   .     A
C1418  Cl1448  1.761   .     S
C1418  C448    1.428   1_556 S
C1419  O1449   1.381   .     S
C1419  N1425   1.370   .     A
C1419  C445    1.430   1_556 S
C1420  O1454   1.381   .     S
C1420  N1426   1.374   .     A
N1425  Zn1435  2.029   .     S
N1426  Zn1436  2.029   .     S
O1427  Zn1435  1.980   .     S
O1428  Zn1436  1.980   .     S
O1429  Zn1436  1.982   .     S
O1430  Zn1435  1.982   .     S
O1431  Zn1435  1.974   .     S
O1432  Zn1436  1.974   .     S
O1433  Zn1436  1.983   .     S
O1434  Zn1435  1.983   .     S
O1437  C1438   1.413   .     S
O1437  C1301   1.395   1_655 S
C1438  H1441   1.110   .     S
C1438  H1440   1.114   .     S
C1438  H1331   1.109   1_655 S
O1442  C1443   1.413   .     S
C1443  H1446   1.113   .     S
C1443  H1444   1.109   .     S
H1445  C1335   1.113   1_655 S
O1449  C1450   1.412   .     S
C1450  H1453   1.105   .     S
C1450  H1451   1.114   .     S
C1450  H480    1.106   1_556 S
O1454  C1455   1.419   .     S
C1455  H1457   1.110   .     S
C1455  H1458   1.112   .     S
C1455  H1456   1.107   .     S
