data_str_m3_o2_o5_pcu_sym.59
_audit_creation_date              2020-01-03
_audit_creation_method            'Materials Studio'
_symmetry_space_group_name_H-M    'P1'
_symmetry_Int_Tables_number       1
_symmetry_cell_setting            triclinic
loop_
_symmetry_equiv_pos_as_xyz
  x,y,z
_cell_length_a                    30.0595
_cell_length_b                    28.6908
_cell_length_c                    26.8552
_cell_angle_alpha                 89.8510
_cell_angle_beta                  94.9664
_cell_angle_gamma                 89.9117
loop_
_atom_site_label
_atom_site_type_symbol
_atom_site_fract_x
_atom_site_fract_y
_atom_site_fract_z
_atom_site_U_iso_or_equiv
_atom_site_adp_type
_atom_site_occupancy
C1     C     0.16410   0.25012   0.16892   0.00000  Uiso   1.00
C2     C     0.21516   0.44758   0.14151   0.00000  Uiso   1.00
C3     C     0.24989   0.25005   0.07294   0.00000  Uiso   1.00
C4     C     0.25016   0.24997   0.26040   0.00000  Uiso   1.00
C5     C     0.25093   0.02623   0.16621   0.00000  Uiso   1.00
C6     C     0.25072   0.47315   0.16612   0.00000  Uiso   1.00
C7     C     0.25002   0.25013   0.02178   0.00000  Uiso   1.00
C8     C     0.25010   0.25001   0.31156   0.00000  Uiso   1.00
C9     C     0.04481   0.28756   0.16609   0.00000  Uiso   1.00
C10    C     0.45480   0.20713   0.17284   0.00000  Uiso   1.00
C11    C     0.45423   0.28876   0.19540   0.00000  Uiso   1.00
C12    C     0.33626   0.25003   0.16585   0.00000  Uiso   1.00
C13    C     0.05234   0.21218   0.20687   0.00000  Uiso   1.00
C14    C     0.09006   0.28946   0.16246   0.00000  Uiso   1.00
C15    C     0.40840   0.20759   0.16363   0.00000  Uiso   1.00
C16    C     0.40908   0.29133   0.18186   0.00000  Uiso   1.00
C17    C     0.09809   0.21209   0.20105   0.00000  Uiso   1.00
C18    C     0.11687   0.25051   0.17725   0.00000  Uiso   1.00
C19    C     0.38506   0.24997   0.16888   0.00000  Uiso   1.00
C20    C     0.02578   0.24937   0.18844   0.00000  Uiso   1.00
C21    C     0.47753   0.24759   0.18847   0.00000  Uiso   1.00
C22    C     0.23210   0.10075   0.12551   0.00000  Uiso   1.00
C23    C     0.28027   0.39859   0.19828   0.00000  Uiso   1.00
C24    C     0.26826   0.10058   0.20766   0.00000  Uiso   1.00
C25    C     0.22022   0.39898   0.13464   0.00000  Uiso   1.00
C26    C     0.24081   0.05231   0.12212   0.00000  Uiso   1.00
C27    C     0.28598   0.44705   0.19087   0.00000  Uiso   1.00
C28    C     0.26088   0.05184   0.21050   0.00000  Uiso   1.00
H29    H     0.02451   0.31627   0.15074   0.00000  Uiso   1.00
H30    H     0.40712   0.14146   0.14650   0.00000  Uiso   1.00
H31    H     0.37384   0.33857   0.14684   0.00000  Uiso   1.00
H32    H     0.10634   0.15187   0.23453   0.00000  Uiso   1.00
H33    H     0.25449   0.00218   0.07704   0.00000  Uiso   1.00
H34    H     0.32957   0.49719   0.19191   0.00000  Uiso   1.00
H35    H     0.24761   0.00123   0.25539   0.00000  Uiso   1.00
H36    H     0.17206   0.49832   0.14004   0.00000  Uiso   1.00
H37    H     0.47325   0.17569   0.16586   0.00000  Uiso   1.00
H38    H     0.47176   0.32035   0.20728   0.00000  Uiso   1.00
H39    H     0.03737   0.18310   0.22504   0.00000  Uiso   1.00
H40    H     0.14415   0.17690   0.06318   0.00000  Uiso   1.00
H41    H     0.33852   0.31563   0.28792   0.00000  Uiso   1.00
H42    H     0.34538   0.18196   0.27983   0.00000  Uiso   1.00
H43    H     0.16292   0.31666   0.04418   0.00000  Uiso   1.00
H44    H     0.12466   0.34466   0.17096   0.00000  Uiso   1.00
N45    N     0.25000   0.12623   0.16667   0.00000  Uiso   1.00
N46    N     0.25000   0.37376   0.16667   0.00000  Uiso   1.00
O47    O     0.18453   0.28974   0.16667   0.00000  Uiso   1.00
O48    O     0.16677   0.08426   0.05277   0.00000  Uiso   1.00
O49    O     0.15811   0.16281   0.09448   0.00000  Uiso   1.00
O50    O     0.33337   0.41079   0.28447   0.00000  Uiso   1.00
O51    O     0.26451   0.36738   0.28758   0.00000  Uiso   1.00
O52    O     0.33208   0.32641   0.25296   0.00000  Uiso   1.00
O53    O     0.27163   0.13780   0.29866   0.00000  Uiso   1.00
O54    O     0.33312   0.08704   0.28147   0.00000  Uiso   1.00
O55    O     0.33339   0.16984   0.24686   0.00000  Uiso   1.00
O56    O     0.16739   0.41141   0.04823   0.00000  Uiso   1.00
O57    O     0.23690   0.36877   0.04553   0.00000  Uiso   1.00
O58    O     0.31547   0.21026   0.16666   0.00000  Uiso   1.00
O59    O     0.16966   0.32671   0.07929   0.00000  Uiso   1.00
O60    O     0.10673   0.32935   0.14290   0.00000  Uiso   1.00
O61    O     0.38572   0.16769   0.14768   0.00000  Uiso   1.00
O62    O     0.39011   0.33503   0.18036   0.00000  Uiso   1.00
O63    O     0.12492   0.17556   0.21918   0.00000  Uiso   1.00
O64    O     0.23713   0.03158   0.07550   0.00000  Uiso   1.00
O65    O     0.32512   0.46782   0.21026   0.00000  Uiso   1.00
O66    O     0.26509   0.03048   0.25692   0.00000  Uiso   1.00
O67    O     0.17635   0.46897   0.12174   0.00000  Uiso   1.00
O68    O     0.31547   0.28974   0.16666   0.00000  Uiso   1.00
O69    O     0.18453   0.21026   0.16667   0.00000  Uiso   1.00
O70    O     0.25000   0.28973   0.09511   0.00000  Uiso   1.00
O71    O     0.25000   0.21027   0.23822   0.00000  Uiso   1.00
O72    O     0.25000   0.28973   0.23822   0.00000  Uiso   1.00
O73    O     0.25000   0.21027   0.09511   0.00000  Uiso   1.00
O74    O     0.22026   0.14432   0.03660   0.00000  Uiso   1.00
S75    S     0.19434   0.12345   0.07616   0.00000  Uiso   1.00
S76    S     0.30310   0.37601   0.25696   0.00000  Uiso   1.00
S77    S     0.30179   0.12417   0.25967   0.00000  Uiso   1.00
S78    S     0.19795   0.37670   0.07579   0.00000  Uiso   1.00
Zn79   Zn    0.25000   0.30307   0.16667   0.00000  Uiso   1.00
Zn80   Zn    0.25000   0.19693   0.16667   0.00000  Uiso   1.00
C81    C     0.66410   0.25012   0.16892   0.00000  Uiso   1.00
C82    C     0.71516   0.44758   0.14151   0.00000  Uiso   1.00
C83    C     0.74989   0.25005   0.07294   0.00000  Uiso   1.00
C84    C     0.75016   0.24997   0.26040   0.00000  Uiso   1.00
C85    C     0.75093   0.02623   0.16621   0.00000  Uiso   1.00
C86    C     0.75072   0.47315   0.16612   0.00000  Uiso   1.00
C87    C     0.75002   0.25013   0.02178   0.00000  Uiso   1.00
C88    C     0.75010   0.25001   0.31156   0.00000  Uiso   1.00
C89    C     0.54481   0.28756   0.16609   0.00000  Uiso   1.00
C90    C     0.95480   0.20713   0.17284   0.00000  Uiso   1.00
C91    C     0.95423   0.28876   0.19540   0.00000  Uiso   1.00
C92    C     0.83626   0.25003   0.16585   0.00000  Uiso   1.00
C93    C     0.55234   0.21218   0.20687   0.00000  Uiso   1.00
C94    C     0.59006   0.28946   0.16246   0.00000  Uiso   1.00
C95    C     0.90840   0.20759   0.16363   0.00000  Uiso   1.00
C96    C     0.90908   0.29133   0.18186   0.00000  Uiso   1.00
C97    C     0.59809   0.21209   0.20105   0.00000  Uiso   1.00
C98    C     0.61687   0.25051   0.17725   0.00000  Uiso   1.00
C99    C     0.88506   0.24997   0.16888   0.00000  Uiso   1.00
C100   C     0.52578   0.24937   0.18844   0.00000  Uiso   1.00
C101   C     0.97753   0.24759   0.18847   0.00000  Uiso   1.00
C102   C     0.73210   0.10075   0.12551   0.00000  Uiso   1.00
C103   C     0.78027   0.39859   0.19828   0.00000  Uiso   1.00
C104   C     0.76826   0.10058   0.20766   0.00000  Uiso   1.00
C105   C     0.72022   0.39898   0.13464   0.00000  Uiso   1.00
C106   C     0.74081   0.05231   0.12212   0.00000  Uiso   1.00
C107   C     0.78598   0.44705   0.19087   0.00000  Uiso   1.00
C108   C     0.76088   0.05184   0.21050   0.00000  Uiso   1.00
H109   H     0.52451   0.31627   0.15074   0.00000  Uiso   1.00
H110   H     0.90712   0.14146   0.14650   0.00000  Uiso   1.00
H111   H     0.87384   0.33857   0.14684   0.00000  Uiso   1.00
H112   H     0.60634   0.15187   0.23453   0.00000  Uiso   1.00
H113   H     0.75449   0.00218   0.07704   0.00000  Uiso   1.00
H114   H     0.82957   0.49719   0.19191   0.00000  Uiso   1.00
H115   H     0.74761   0.00123   0.25539   0.00000  Uiso   1.00
H116   H     0.67206   0.49832   0.14004   0.00000  Uiso   1.00
H117   H     0.97325   0.17569   0.16586   0.00000  Uiso   1.00
H118   H     0.97176   0.32035   0.20728   0.00000  Uiso   1.00
H119   H     0.53737   0.18310   0.22504   0.00000  Uiso   1.00
H120   H     0.64415   0.17690   0.06318   0.00000  Uiso   1.00
H121   H     0.83852   0.31563   0.28792   0.00000  Uiso   1.00
H122   H     0.84538   0.18196   0.27983   0.00000  Uiso   1.00
H123   H     0.66292   0.31666   0.04418   0.00000  Uiso   1.00
H124   H     0.62466   0.34466   0.17096   0.00000  Uiso   1.00
N125   N     0.75000   0.12623   0.16667   0.00000  Uiso   1.00
N126   N     0.75000   0.37376   0.16667   0.00000  Uiso   1.00
O127   O     0.68453   0.28974   0.16667   0.00000  Uiso   1.00
O128   O     0.66677   0.08426   0.05277   0.00000  Uiso   1.00
O129   O     0.65811   0.16281   0.09448   0.00000  Uiso   1.00
O130   O     0.83337   0.41079   0.28447   0.00000  Uiso   1.00
O131   O     0.76451   0.36738   0.28758   0.00000  Uiso   1.00
O132   O     0.83208   0.32641   0.25296   0.00000  Uiso   1.00
O133   O     0.77163   0.13780   0.29866   0.00000  Uiso   1.00
O134   O     0.83312   0.08704   0.28147   0.00000  Uiso   1.00
O135   O     0.83339   0.16984   0.24686   0.00000  Uiso   1.00
O136   O     0.66739   0.41141   0.04823   0.00000  Uiso   1.00
O137   O     0.73690   0.36877   0.04553   0.00000  Uiso   1.00
O138   O     0.81547   0.21026   0.16666   0.00000  Uiso   1.00
O139   O     0.66966   0.32671   0.07929   0.00000  Uiso   1.00
O140   O     0.60673   0.32935   0.14290   0.00000  Uiso   1.00
O141   O     0.88572   0.16769   0.14768   0.00000  Uiso   1.00
O142   O     0.89011   0.33503   0.18036   0.00000  Uiso   1.00
O143   O     0.62492   0.17556   0.21918   0.00000  Uiso   1.00
O144   O     0.73713   0.03158   0.07550   0.00000  Uiso   1.00
O145   O     0.82512   0.46782   0.21026   0.00000  Uiso   1.00
O146   O     0.76509   0.03048   0.25692   0.00000  Uiso   1.00
O147   O     0.67635   0.46897   0.12174   0.00000  Uiso   1.00
O148   O     0.81547   0.28974   0.16666   0.00000  Uiso   1.00
O149   O     0.68453   0.21026   0.16667   0.00000  Uiso   1.00
O150   O     0.75000   0.28973   0.09511   0.00000  Uiso   1.00
O151   O     0.75000   0.21027   0.23822   0.00000  Uiso   1.00
O152   O     0.75000   0.28973   0.23822   0.00000  Uiso   1.00
O153   O     0.75000   0.21027   0.09511   0.00000  Uiso   1.00
O154   O     0.72026   0.14432   0.03660   0.00000  Uiso   1.00
S155   S     0.69434   0.12345   0.07616   0.00000  Uiso   1.00
S156   S     0.80310   0.37601   0.25696   0.00000  Uiso   1.00
S157   S     0.80179   0.12417   0.25967   0.00000  Uiso   1.00
S158   S     0.69795   0.37670   0.07579   0.00000  Uiso   1.00
Zn159  Zn    0.75000   0.30307   0.16667   0.00000  Uiso   1.00
Zn160  Zn    0.75000   0.19693   0.16667   0.00000  Uiso   1.00
C161   C     0.16410   0.75012   0.16892   0.00000  Uiso   1.00
C162   C     0.21516   0.94758   0.14151   0.00000  Uiso   1.00
C163   C     0.24989   0.75005   0.07294   0.00000  Uiso   1.00
C164   C     0.25016   0.74997   0.26040   0.00000  Uiso   1.00
C165   C     0.25093   0.52623   0.16621   0.00000  Uiso   1.00
C166   C     0.25072   0.97315   0.16612   0.00000  Uiso   1.00
C167   C     0.25002   0.75013   0.02178   0.00000  Uiso   1.00
C168   C     0.25010   0.75001   0.31156   0.00000  Uiso   1.00
C169   C     0.04481   0.78756   0.16609   0.00000  Uiso   1.00
C170   C     0.45480   0.70713   0.17284   0.00000  Uiso   1.00
C171   C     0.45423   0.78876   0.19540   0.00000  Uiso   1.00
C172   C     0.33626   0.75003   0.16585   0.00000  Uiso   1.00
C173   C     0.05234   0.71218   0.20687   0.00000  Uiso   1.00
C174   C     0.09006   0.78946   0.16246   0.00000  Uiso   1.00
C175   C     0.40840   0.70759   0.16363   0.00000  Uiso   1.00
C176   C     0.40908   0.79133   0.18186   0.00000  Uiso   1.00
C177   C     0.09809   0.71209   0.20105   0.00000  Uiso   1.00
C178   C     0.11687   0.75051   0.17725   0.00000  Uiso   1.00
C179   C     0.38506   0.74997   0.16888   0.00000  Uiso   1.00
C180   C     0.02578   0.74937   0.18844   0.00000  Uiso   1.00
C181   C     0.47753   0.74759   0.18847   0.00000  Uiso   1.00
C182   C     0.23210   0.60075   0.12551   0.00000  Uiso   1.00
C183   C     0.28027   0.89859   0.19828   0.00000  Uiso   1.00
C184   C     0.26826   0.60058   0.20766   0.00000  Uiso   1.00
C185   C     0.22022   0.89898   0.13464   0.00000  Uiso   1.00
C186   C     0.24081   0.55231   0.12212   0.00000  Uiso   1.00
C187   C     0.28598   0.94705   0.19087   0.00000  Uiso   1.00
C188   C     0.26088   0.55184   0.21050   0.00000  Uiso   1.00
H189   H     0.02451   0.81627   0.15074   0.00000  Uiso   1.00
H190   H     0.40712   0.64146   0.14650   0.00000  Uiso   1.00
H191   H     0.37384   0.83857   0.14684   0.00000  Uiso   1.00
H192   H     0.10634   0.65187   0.23453   0.00000  Uiso   1.00
H193   H     0.25449   0.50218   0.07704   0.00000  Uiso   1.00
H194   H     0.32957   0.99719   0.19191   0.00000  Uiso   1.00
H195   H     0.24761   0.50123   0.25539   0.00000  Uiso   1.00
H196   H     0.17206   0.99832   0.14004   0.00000  Uiso   1.00
H197   H     0.47325   0.67569   0.16586   0.00000  Uiso   1.00
H198   H     0.47176   0.82035   0.20728   0.00000  Uiso   1.00
H199   H     0.03737   0.68310   0.22504   0.00000  Uiso   1.00
H200   H     0.14415   0.67690   0.06318   0.00000  Uiso   1.00
H201   H     0.33852   0.81563   0.28792   0.00000  Uiso   1.00
H202   H     0.34538   0.68196   0.27983   0.00000  Uiso   1.00
H203   H     0.16292   0.81666   0.04418   0.00000  Uiso   1.00
H204   H     0.12466   0.84466   0.17096   0.00000  Uiso   1.00
N205   N     0.25000   0.62623   0.16667   0.00000  Uiso   1.00
N206   N     0.25000   0.87376   0.16667   0.00000  Uiso   1.00
O207   O     0.18453   0.78974   0.16667   0.00000  Uiso   1.00
O208   O     0.16677   0.58426   0.05277   0.00000  Uiso   1.00
O209   O     0.15811   0.66281   0.09448   0.00000  Uiso   1.00
O210   O     0.33337   0.91079   0.28447   0.00000  Uiso   1.00
O211   O     0.26451   0.86738   0.28758   0.00000  Uiso   1.00
O212   O     0.33208   0.82641   0.25296   0.00000  Uiso   1.00
O213   O     0.27163   0.63780   0.29866   0.00000  Uiso   1.00
O214   O     0.33312   0.58704   0.28147   0.00000  Uiso   1.00
O215   O     0.33339   0.66984   0.24686   0.00000  Uiso   1.00
O216   O     0.16739   0.91141   0.04823   0.00000  Uiso   1.00
O217   O     0.23690   0.86877   0.04553   0.00000  Uiso   1.00
O218   O     0.31547   0.71026   0.16666   0.00000  Uiso   1.00
O219   O     0.16966   0.82671   0.07929   0.00000  Uiso   1.00
O220   O     0.10673   0.82935   0.14290   0.00000  Uiso   1.00
O221   O     0.38572   0.66769   0.14768   0.00000  Uiso   1.00
O222   O     0.39011   0.83503   0.18036   0.00000  Uiso   1.00
O223   O     0.12492   0.67556   0.21918   0.00000  Uiso   1.00
O224   O     0.23713   0.53158   0.07550   0.00000  Uiso   1.00
O225   O     0.32512   0.96782   0.21026   0.00000  Uiso   1.00
O226   O     0.26509   0.53048   0.25692   0.00000  Uiso   1.00
O227   O     0.17635   0.96897   0.12174   0.00000  Uiso   1.00
O228   O     0.31547   0.78974   0.16666   0.00000  Uiso   1.00
O229   O     0.18453   0.71026   0.16667   0.00000  Uiso   1.00
O230   O     0.25000   0.78973   0.09511   0.00000  Uiso   1.00
O231   O     0.25000   0.71027   0.23822   0.00000  Uiso   1.00
O232   O     0.25000   0.78973   0.23822   0.00000  Uiso   1.00
O233   O     0.25000   0.71027   0.09511   0.00000  Uiso   1.00
O234   O     0.22026   0.64432   0.03660   0.00000  Uiso   1.00
S235   S     0.19434   0.62345   0.07616   0.00000  Uiso   1.00
S236   S     0.30310   0.87601   0.25696   0.00000  Uiso   1.00
S237   S     0.30179   0.62417   0.25967   0.00000  Uiso   1.00
S238   S     0.19795   0.87670   0.07579   0.00000  Uiso   1.00
Zn239  Zn    0.25000   0.80307   0.16667   0.00000  Uiso   1.00
Zn240  Zn    0.25000   0.69693   0.16667   0.00000  Uiso   1.00
C241   C     0.66410   0.75012   0.16892   0.00000  Uiso   1.00
C242   C     0.71516   0.94758   0.14151   0.00000  Uiso   1.00
C243   C     0.74989   0.75005   0.07294   0.00000  Uiso   1.00
C244   C     0.75016   0.74997   0.26040   0.00000  Uiso   1.00
C245   C     0.75093   0.52623   0.16621   0.00000  Uiso   1.00
C246   C     0.75072   0.97315   0.16612   0.00000  Uiso   1.00
C247   C     0.75002   0.75013   0.02178   0.00000  Uiso   1.00
C248   C     0.75010   0.75001   0.31156   0.00000  Uiso   1.00
C249   C     0.54481   0.78756   0.16609   0.00000  Uiso   1.00
C250   C     0.95480   0.70713   0.17284   0.00000  Uiso   1.00
C251   C     0.95423   0.78876   0.19540   0.00000  Uiso   1.00
C252   C     0.83626   0.75003   0.16585   0.00000  Uiso   1.00
C253   C     0.55234   0.71218   0.20687   0.00000  Uiso   1.00
C254   C     0.59006   0.78946   0.16246   0.00000  Uiso   1.00
C255   C     0.90840   0.70759   0.16363   0.00000  Uiso   1.00
C256   C     0.90908   0.79133   0.18186   0.00000  Uiso   1.00
C257   C     0.59809   0.71209   0.20105   0.00000  Uiso   1.00
C258   C     0.61687   0.75051   0.17725   0.00000  Uiso   1.00
C259   C     0.88506   0.74997   0.16888   0.00000  Uiso   1.00
C260   C     0.52578   0.74937   0.18844   0.00000  Uiso   1.00
C261   C     0.97753   0.74759   0.18847   0.00000  Uiso   1.00
C262   C     0.73210   0.60075   0.12551   0.00000  Uiso   1.00
C263   C     0.78027   0.89859   0.19828   0.00000  Uiso   1.00
C264   C     0.76826   0.60058   0.20766   0.00000  Uiso   1.00
C265   C     0.72022   0.89898   0.13464   0.00000  Uiso   1.00
C266   C     0.74081   0.55231   0.12212   0.00000  Uiso   1.00
C267   C     0.78598   0.94705   0.19087   0.00000  Uiso   1.00
C268   C     0.76088   0.55184   0.21050   0.00000  Uiso   1.00
H269   H     0.52451   0.81627   0.15074   0.00000  Uiso   1.00
H270   H     0.90712   0.64146   0.14650   0.00000  Uiso   1.00
H271   H     0.87384   0.83857   0.14684   0.00000  Uiso   1.00
H272   H     0.60634   0.65187   0.23453   0.00000  Uiso   1.00
H273   H     0.75449   0.50218   0.07704   0.00000  Uiso   1.00
H274   H     0.82957   0.99719   0.19191   0.00000  Uiso   1.00
H275   H     0.74761   0.50123   0.25539   0.00000  Uiso   1.00
H276   H     0.67206   0.99832   0.14004   0.00000  Uiso   1.00
H277   H     0.97325   0.67569   0.16586   0.00000  Uiso   1.00
H278   H     0.97176   0.82035   0.20728   0.00000  Uiso   1.00
H279   H     0.53737   0.68310   0.22504   0.00000  Uiso   1.00
H280   H     0.64415   0.67690   0.06318   0.00000  Uiso   1.00
H281   H     0.83852   0.81563   0.28792   0.00000  Uiso   1.00
H282   H     0.84538   0.68196   0.27983   0.00000  Uiso   1.00
H283   H     0.66292   0.81666   0.04418   0.00000  Uiso   1.00
H284   H     0.62466   0.84466   0.17096   0.00000  Uiso   1.00
N285   N     0.75000   0.62623   0.16667   0.00000  Uiso   1.00
N286   N     0.75000   0.87376   0.16667   0.00000  Uiso   1.00
O287   O     0.68453   0.78974   0.16667   0.00000  Uiso   1.00
O288   O     0.66677   0.58426   0.05277   0.00000  Uiso   1.00
O289   O     0.65811   0.66281   0.09448   0.00000  Uiso   1.00
O290   O     0.83337   0.91079   0.28447   0.00000  Uiso   1.00
O291   O     0.76451   0.86738   0.28758   0.00000  Uiso   1.00
O292   O     0.83208   0.82641   0.25296   0.00000  Uiso   1.00
O293   O     0.77163   0.63780   0.29866   0.00000  Uiso   1.00
O294   O     0.83312   0.58704   0.28147   0.00000  Uiso   1.00
O295   O     0.83339   0.66984   0.24686   0.00000  Uiso   1.00
O296   O     0.66739   0.91141   0.04823   0.00000  Uiso   1.00
O297   O     0.73690   0.86877   0.04553   0.00000  Uiso   1.00
O298   O     0.81547   0.71026   0.16666   0.00000  Uiso   1.00
O299   O     0.66966   0.82671   0.07929   0.00000  Uiso   1.00
O300   O     0.60673   0.82935   0.14290   0.00000  Uiso   1.00
O301   O     0.88572   0.66769   0.14768   0.00000  Uiso   1.00
O302   O     0.89011   0.83503   0.18036   0.00000  Uiso   1.00
O303   O     0.62492   0.67556   0.21918   0.00000  Uiso   1.00
O304   O     0.73713   0.53158   0.07550   0.00000  Uiso   1.00
O305   O     0.82512   0.96782   0.21026   0.00000  Uiso   1.00
O306   O     0.76509   0.53048   0.25692   0.00000  Uiso   1.00
O307   O     0.67635   0.96897   0.12174   0.00000  Uiso   1.00
O308   O     0.81547   0.78974   0.16666   0.00000  Uiso   1.00
O309   O     0.68453   0.71026   0.16667   0.00000  Uiso   1.00
O310   O     0.75000   0.78973   0.09511   0.00000  Uiso   1.00
O311   O     0.75000   0.71027   0.23822   0.00000  Uiso   1.00
O312   O     0.75000   0.78973   0.23822   0.00000  Uiso   1.00
O313   O     0.75000   0.71027   0.09511   0.00000  Uiso   1.00
O314   O     0.72026   0.64432   0.03660   0.00000  Uiso   1.00
S315   S     0.69434   0.62345   0.07616   0.00000  Uiso   1.00
S316   S     0.80310   0.87601   0.25696   0.00000  Uiso   1.00
S317   S     0.80179   0.62417   0.25967   0.00000  Uiso   1.00
S318   S     0.69795   0.87670   0.07579   0.00000  Uiso   1.00
Zn319  Zn    0.75000   0.80307   0.16667   0.00000  Uiso   1.00
Zn320  Zn    0.75000   0.69693   0.16667   0.00000  Uiso   1.00
C321   C     0.16410   0.25012   0.50225   0.00000  Uiso   1.00
C322   C     0.21516   0.44758   0.47485   0.00000  Uiso   1.00
C323   C     0.24989   0.25005   0.40627   0.00000  Uiso   1.00
C324   C     0.25016   0.24997   0.59373   0.00000  Uiso   1.00
C325   C     0.25093   0.02623   0.49955   0.00000  Uiso   1.00
C326   C     0.25072   0.47315   0.49945   0.00000  Uiso   1.00
C327   C     0.25002   0.25013   0.35511   0.00000  Uiso   1.00
C328   C     0.25010   0.25001   0.64489   0.00000  Uiso   1.00
C329   C     0.04481   0.28756   0.49942   0.00000  Uiso   1.00
C330   C     0.45480   0.20713   0.50617   0.00000  Uiso   1.00
C331   C     0.45423   0.28876   0.52873   0.00000  Uiso   1.00
C332   C     0.33626   0.25003   0.49918   0.00000  Uiso   1.00
C333   C     0.05234   0.21218   0.54020   0.00000  Uiso   1.00
C334   C     0.09006   0.28946   0.49579   0.00000  Uiso   1.00
C335   C     0.40840   0.20759   0.49696   0.00000  Uiso   1.00
C336   C     0.40908   0.29133   0.51520   0.00000  Uiso   1.00
C337   C     0.09809   0.21209   0.53438   0.00000  Uiso   1.00
C338   C     0.11687   0.25051   0.51058   0.00000  Uiso   1.00
C339   C     0.38506   0.24997   0.50221   0.00000  Uiso   1.00
C340   C     0.02578   0.24937   0.52177   0.00000  Uiso   1.00
C341   C     0.47753   0.24759   0.52181   0.00000  Uiso   1.00
C342   C     0.23210   0.10075   0.45884   0.00000  Uiso   1.00
C343   C     0.28027   0.39859   0.53161   0.00000  Uiso   1.00
C344   C     0.26826   0.10058   0.54100   0.00000  Uiso   1.00
C345   C     0.22022   0.39898   0.46798   0.00000  Uiso   1.00
C346   C     0.24081   0.05231   0.45545   0.00000  Uiso   1.00
C347   C     0.28598   0.44705   0.52420   0.00000  Uiso   1.00
C348   C     0.26088   0.05184   0.54383   0.00000  Uiso   1.00
H349   H     0.02451   0.31627   0.48407   0.00000  Uiso   1.00
H350   H     0.40712   0.14146   0.47984   0.00000  Uiso   1.00
H351   H     0.37384   0.33857   0.48018   0.00000  Uiso   1.00
H352   H     0.10634   0.15187   0.56786   0.00000  Uiso   1.00
H353   H     0.25449   0.00218   0.41037   0.00000  Uiso   1.00
H354   H     0.32957   0.49719   0.52524   0.00000  Uiso   1.00
H355   H     0.24761   0.00123   0.58872   0.00000  Uiso   1.00
H356   H     0.17206   0.49832   0.47337   0.00000  Uiso   1.00
H357   H     0.47325   0.17569   0.49920   0.00000  Uiso   1.00
H358   H     0.47176   0.32035   0.54062   0.00000  Uiso   1.00
H359   H     0.03737   0.18310   0.55838   0.00000  Uiso   1.00
H360   H     0.14415   0.17690   0.39651   0.00000  Uiso   1.00
H361   H     0.33852   0.31563   0.62126   0.00000  Uiso   1.00
H362   H     0.34538   0.18196   0.61317   0.00000  Uiso   1.00
H363   H     0.16292   0.31666   0.37752   0.00000  Uiso   1.00
H364   H     0.12466   0.34466   0.50429   0.00000  Uiso   1.00
N365   N     0.25000   0.12623   0.50000   0.00000  Uiso   1.00
N366   N     0.25000   0.37376   0.50000   0.00000  Uiso   1.00
O367   O     0.18453   0.28974   0.50000   0.00000  Uiso   1.00
O368   O     0.16677   0.08426   0.38611   0.00000  Uiso   1.00
O369   O     0.15811   0.16281   0.42781   0.00000  Uiso   1.00
O370   O     0.33337   0.41079   0.61780   0.00000  Uiso   1.00
O371   O     0.26451   0.36738   0.62091   0.00000  Uiso   1.00
O372   O     0.33208   0.32641   0.58630   0.00000  Uiso   1.00
O373   O     0.27163   0.13780   0.63199   0.00000  Uiso   1.00
O374   O     0.33312   0.08704   0.61480   0.00000  Uiso   1.00
O375   O     0.33339   0.16984   0.58020   0.00000  Uiso   1.00
O376   O     0.16739   0.41141   0.38156   0.00000  Uiso   1.00
O377   O     0.23690   0.36877   0.37886   0.00000  Uiso   1.00
O378   O     0.31547   0.21026   0.50000   0.00000  Uiso   1.00
O379   O     0.16966   0.32671   0.41262   0.00000  Uiso   1.00
O380   O     0.10673   0.32935   0.47623   0.00000  Uiso   1.00
O381   O     0.38572   0.16769   0.48101   0.00000  Uiso   1.00
O382   O     0.39011   0.33503   0.51370   0.00000  Uiso   1.00
O383   O     0.12492   0.17556   0.55251   0.00000  Uiso   1.00
O384   O     0.23713   0.03158   0.40883   0.00000  Uiso   1.00
O385   O     0.32512   0.46782   0.54359   0.00000  Uiso   1.00
O386   O     0.26509   0.03048   0.59025   0.00000  Uiso   1.00
O387   O     0.17635   0.46897   0.45508   0.00000  Uiso   1.00
O388   O     0.31547   0.28974   0.50000   0.00000  Uiso   1.00
O389   O     0.18453   0.21026   0.50000   0.00000  Uiso   1.00
O390   O     0.25000   0.28973   0.42845   0.00000  Uiso   1.00
O391   O     0.25000   0.21027   0.57155   0.00000  Uiso   1.00
O392   O     0.25000   0.28973   0.57155   0.00000  Uiso   1.00
O393   O     0.25000   0.21027   0.42845   0.00000  Uiso   1.00
O394   O     0.22026   0.14432   0.36993   0.00000  Uiso   1.00
S395   S     0.19434   0.12345   0.40949   0.00000  Uiso   1.00
S396   S     0.30310   0.37601   0.59030   0.00000  Uiso   1.00
S397   S     0.30179   0.12417   0.59300   0.00000  Uiso   1.00
S398   S     0.19795   0.37670   0.40912   0.00000  Uiso   1.00
Zn399  Zn    0.25000   0.30307   0.50000   0.00000  Uiso   1.00
Zn400  Zn    0.25000   0.19693   0.50000   0.00000  Uiso   1.00
C401   C     0.66410   0.25012   0.50225   0.00000  Uiso   1.00
C402   C     0.71516   0.44758   0.47485   0.00000  Uiso   1.00
C403   C     0.74989   0.25005   0.40627   0.00000  Uiso   1.00
C404   C     0.75016   0.24997   0.59373   0.00000  Uiso   1.00
C405   C     0.75093   0.02623   0.49955   0.00000  Uiso   1.00
C406   C     0.75072   0.47315   0.49945   0.00000  Uiso   1.00
C407   C     0.75002   0.25013   0.35511   0.00000  Uiso   1.00
C408   C     0.75010   0.25001   0.64489   0.00000  Uiso   1.00
C409   C     0.54481   0.28756   0.49942   0.00000  Uiso   1.00
C410   C     0.95480   0.20713   0.50617   0.00000  Uiso   1.00
C411   C     0.95423   0.28876   0.52873   0.00000  Uiso   1.00
C412   C     0.83626   0.25003   0.49918   0.00000  Uiso   1.00
C413   C     0.55234   0.21218   0.54020   0.00000  Uiso   1.00
C414   C     0.59006   0.28946   0.49579   0.00000  Uiso   1.00
C415   C     0.90840   0.20759   0.49696   0.00000  Uiso   1.00
C416   C     0.90908   0.29133   0.51520   0.00000  Uiso   1.00
C417   C     0.59809   0.21209   0.53438   0.00000  Uiso   1.00
C418   C     0.61687   0.25051   0.51058   0.00000  Uiso   1.00
C419   C     0.88506   0.24997   0.50221   0.00000  Uiso   1.00
C420   C     0.52578   0.24937   0.52177   0.00000  Uiso   1.00
C421   C     0.97753   0.24759   0.52181   0.00000  Uiso   1.00
C422   C     0.73210   0.10075   0.45884   0.00000  Uiso   1.00
C423   C     0.78027   0.39859   0.53161   0.00000  Uiso   1.00
C424   C     0.76826   0.10058   0.54100   0.00000  Uiso   1.00
C425   C     0.72022   0.39898   0.46798   0.00000  Uiso   1.00
C426   C     0.74081   0.05231   0.45545   0.00000  Uiso   1.00
C427   C     0.78598   0.44705   0.52420   0.00000  Uiso   1.00
C428   C     0.76088   0.05184   0.54383   0.00000  Uiso   1.00
H429   H     0.52451   0.31627   0.48407   0.00000  Uiso   1.00
H430   H     0.90712   0.14146   0.47984   0.00000  Uiso   1.00
H431   H     0.87384   0.33857   0.48018   0.00000  Uiso   1.00
H432   H     0.60634   0.15187   0.56786   0.00000  Uiso   1.00
H433   H     0.75449   0.00218   0.41037   0.00000  Uiso   1.00
H434   H     0.82957   0.49719   0.52524   0.00000  Uiso   1.00
H435   H     0.74761   0.00123   0.58872   0.00000  Uiso   1.00
H436   H     0.67206   0.49832   0.47337   0.00000  Uiso   1.00
H437   H     0.97325   0.17569   0.49920   0.00000  Uiso   1.00
H438   H     0.97176   0.32035   0.54062   0.00000  Uiso   1.00
H439   H     0.53737   0.18310   0.55838   0.00000  Uiso   1.00
H440   H     0.64415   0.17690   0.39651   0.00000  Uiso   1.00
H441   H     0.83852   0.31563   0.62126   0.00000  Uiso   1.00
H442   H     0.84538   0.18196   0.61317   0.00000  Uiso   1.00
H443   H     0.66292   0.31666   0.37752   0.00000  Uiso   1.00
H444   H     0.62466   0.34466   0.50429   0.00000  Uiso   1.00
N445   N     0.75000   0.12623   0.50000   0.00000  Uiso   1.00
N446   N     0.75000   0.37376   0.50000   0.00000  Uiso   1.00
O447   O     0.68453   0.28974   0.50000   0.00000  Uiso   1.00
O448   O     0.66677   0.08426   0.38611   0.00000  Uiso   1.00
O449   O     0.65811   0.16281   0.42781   0.00000  Uiso   1.00
O450   O     0.83337   0.41079   0.61780   0.00000  Uiso   1.00
O451   O     0.76451   0.36738   0.62091   0.00000  Uiso   1.00
O452   O     0.83208   0.32641   0.58630   0.00000  Uiso   1.00
O453   O     0.77163   0.13780   0.63199   0.00000  Uiso   1.00
O454   O     0.83312   0.08704   0.61480   0.00000  Uiso   1.00
O455   O     0.83339   0.16984   0.58020   0.00000  Uiso   1.00
O456   O     0.66739   0.41141   0.38156   0.00000  Uiso   1.00
O457   O     0.73690   0.36877   0.37886   0.00000  Uiso   1.00
O458   O     0.81547   0.21026   0.50000   0.00000  Uiso   1.00
O459   O     0.66966   0.32671   0.41262   0.00000  Uiso   1.00
O460   O     0.60673   0.32935   0.47623   0.00000  Uiso   1.00
O461   O     0.88572   0.16769   0.48101   0.00000  Uiso   1.00
O462   O     0.89011   0.33503   0.51370   0.00000  Uiso   1.00
O463   O     0.62492   0.17556   0.55251   0.00000  Uiso   1.00
O464   O     0.73713   0.03158   0.40883   0.00000  Uiso   1.00
O465   O     0.82512   0.46782   0.54359   0.00000  Uiso   1.00
O466   O     0.76509   0.03048   0.59025   0.00000  Uiso   1.00
O467   O     0.67635   0.46897   0.45508   0.00000  Uiso   1.00
O468   O     0.81547   0.28974   0.50000   0.00000  Uiso   1.00
O469   O     0.68453   0.21026   0.50000   0.00000  Uiso   1.00
O470   O     0.75000   0.28973   0.42845   0.00000  Uiso   1.00
O471   O     0.75000   0.21027   0.57155   0.00000  Uiso   1.00
O472   O     0.75000   0.28973   0.57155   0.00000  Uiso   1.00
O473   O     0.75000   0.21027   0.42845   0.00000  Uiso   1.00
O474   O     0.72026   0.14432   0.36993   0.00000  Uiso   1.00
S475   S     0.69434   0.12345   0.40949   0.00000  Uiso   1.00
S476   S     0.80310   0.37601   0.59030   0.00000  Uiso   1.00
S477   S     0.80179   0.12417   0.59300   0.00000  Uiso   1.00
S478   S     0.69795   0.37670   0.40912   0.00000  Uiso   1.00
Zn479  Zn    0.75000   0.30307   0.50000   0.00000  Uiso   1.00
Zn480  Zn    0.75000   0.19693   0.50000   0.00000  Uiso   1.00
C481   C     0.16410   0.75012   0.50225   0.00000  Uiso   1.00
C482   C     0.21516   0.94758   0.47485   0.00000  Uiso   1.00
C483   C     0.24989   0.75005   0.40627   0.00000  Uiso   1.00
C484   C     0.25016   0.74997   0.59373   0.00000  Uiso   1.00
C485   C     0.25093   0.52623   0.49955   0.00000  Uiso   1.00
C486   C     0.25072   0.97315   0.49945   0.00000  Uiso   1.00
C487   C     0.25002   0.75013   0.35511   0.00000  Uiso   1.00
C488   C     0.25010   0.75001   0.64489   0.00000  Uiso   1.00
C489   C     0.04481   0.78756   0.49942   0.00000  Uiso   1.00
C490   C     0.45480   0.70713   0.50617   0.00000  Uiso   1.00
C491   C     0.45423   0.78876   0.52873   0.00000  Uiso   1.00
C492   C     0.33626   0.75003   0.49918   0.00000  Uiso   1.00
C493   C     0.05234   0.71218   0.54020   0.00000  Uiso   1.00
C494   C     0.09006   0.78946   0.49579   0.00000  Uiso   1.00
C495   C     0.40840   0.70759   0.49696   0.00000  Uiso   1.00
C496   C     0.40908   0.79133   0.51520   0.00000  Uiso   1.00
C497   C     0.09809   0.71209   0.53438   0.00000  Uiso   1.00
C498   C     0.11687   0.75051   0.51058   0.00000  Uiso   1.00
C499   C     0.38506   0.74997   0.50221   0.00000  Uiso   1.00
C500   C     0.02578   0.74937   0.52177   0.00000  Uiso   1.00
C501   C     0.47753   0.74759   0.52181   0.00000  Uiso   1.00
C502   C     0.23210   0.60075   0.45884   0.00000  Uiso   1.00
C503   C     0.28027   0.89859   0.53161   0.00000  Uiso   1.00
C504   C     0.26826   0.60058   0.54100   0.00000  Uiso   1.00
C505   C     0.22022   0.89898   0.46798   0.00000  Uiso   1.00
C506   C     0.24081   0.55231   0.45545   0.00000  Uiso   1.00
C507   C     0.28598   0.94705   0.52420   0.00000  Uiso   1.00
C508   C     0.26088   0.55184   0.54383   0.00000  Uiso   1.00
H509   H     0.02451   0.81627   0.48407   0.00000  Uiso   1.00
H510   H     0.40712   0.64146   0.47984   0.00000  Uiso   1.00
H511   H     0.37384   0.83857   0.48018   0.00000  Uiso   1.00
H512   H     0.10634   0.65187   0.56786   0.00000  Uiso   1.00
H513   H     0.25449   0.50218   0.41037   0.00000  Uiso   1.00
H514   H     0.32957   0.99719   0.52524   0.00000  Uiso   1.00
H515   H     0.24761   0.50123   0.58872   0.00000  Uiso   1.00
H516   H     0.17206   0.99832   0.47337   0.00000  Uiso   1.00
H517   H     0.47325   0.67569   0.49920   0.00000  Uiso   1.00
H518   H     0.47176   0.82035   0.54062   0.00000  Uiso   1.00
H519   H     0.03737   0.68310   0.55838   0.00000  Uiso   1.00
H520   H     0.14415   0.67690   0.39651   0.00000  Uiso   1.00
H521   H     0.33852   0.81563   0.62126   0.00000  Uiso   1.00
H522   H     0.34538   0.68196   0.61317   0.00000  Uiso   1.00
H523   H     0.16292   0.81666   0.37752   0.00000  Uiso   1.00
H524   H     0.12466   0.84466   0.50429   0.00000  Uiso   1.00
N525   N     0.25000   0.62623   0.50000   0.00000  Uiso   1.00
N526   N     0.25000   0.87376   0.50000   0.00000  Uiso   1.00
O527   O     0.18453   0.78974   0.50000   0.00000  Uiso   1.00
O528   O     0.16677   0.58426   0.38611   0.00000  Uiso   1.00
O529   O     0.15811   0.66281   0.42781   0.00000  Uiso   1.00
O530   O     0.33337   0.91079   0.61780   0.00000  Uiso   1.00
O531   O     0.26451   0.86738   0.62091   0.00000  Uiso   1.00
O532   O     0.33208   0.82641   0.58630   0.00000  Uiso   1.00
O533   O     0.27163   0.63780   0.63199   0.00000  Uiso   1.00
O534   O     0.33312   0.58704   0.61480   0.00000  Uiso   1.00
O535   O     0.33339   0.66984   0.58020   0.00000  Uiso   1.00
O536   O     0.16739   0.91141   0.38156   0.00000  Uiso   1.00
O537   O     0.23690   0.86877   0.37886   0.00000  Uiso   1.00
O538   O     0.31547   0.71026   0.50000   0.00000  Uiso   1.00
O539   O     0.16966   0.82671   0.41262   0.00000  Uiso   1.00
O540   O     0.10673   0.82935   0.47623   0.00000  Uiso   1.00
O541   O     0.38572   0.66769   0.48101   0.00000  Uiso   1.00
O542   O     0.39011   0.83503   0.51370   0.00000  Uiso   1.00
O543   O     0.12492   0.67556   0.55251   0.00000  Uiso   1.00
O544   O     0.23713   0.53158   0.40883   0.00000  Uiso   1.00
O545   O     0.32512   0.96782   0.54359   0.00000  Uiso   1.00
O546   O     0.26509   0.53048   0.59025   0.00000  Uiso   1.00
O547   O     0.17635   0.96897   0.45508   0.00000  Uiso   1.00
O548   O     0.31547   0.78974   0.50000   0.00000  Uiso   1.00
O549   O     0.18453   0.71026   0.50000   0.00000  Uiso   1.00
O550   O     0.25000   0.78973   0.42845   0.00000  Uiso   1.00
O551   O     0.25000   0.71027   0.57155   0.00000  Uiso   1.00
O552   O     0.25000   0.78973   0.57155   0.00000  Uiso   1.00
O553   O     0.25000   0.71027   0.42845   0.00000  Uiso   1.00
O554   O     0.22026   0.64432   0.36993   0.00000  Uiso   1.00
S555   S     0.19434   0.62345   0.40949   0.00000  Uiso   1.00
S556   S     0.30310   0.87601   0.59030   0.00000  Uiso   1.00
S557   S     0.30179   0.62417   0.59300   0.00000  Uiso   1.00
S558   S     0.19795   0.87670   0.40912   0.00000  Uiso   1.00
Zn559  Zn    0.25000   0.80307   0.50000   0.00000  Uiso   1.00
Zn560  Zn    0.25000   0.69693   0.50000   0.00000  Uiso   1.00
C561   C     0.66410   0.75012   0.50225   0.00000  Uiso   1.00
C562   C     0.71516   0.94758   0.47485   0.00000  Uiso   1.00
C563   C     0.74989   0.75005   0.40627   0.00000  Uiso   1.00
C564   C     0.75016   0.74997   0.59373   0.00000  Uiso   1.00
C565   C     0.75093   0.52623   0.49955   0.00000  Uiso   1.00
C566   C     0.75072   0.97315   0.49945   0.00000  Uiso   1.00
C567   C     0.75002   0.75013   0.35511   0.00000  Uiso   1.00
C568   C     0.75010   0.75001   0.64489   0.00000  Uiso   1.00
C569   C     0.54481   0.78756   0.49942   0.00000  Uiso   1.00
C570   C     0.95480   0.70713   0.50617   0.00000  Uiso   1.00
C571   C     0.95423   0.78876   0.52873   0.00000  Uiso   1.00
C572   C     0.83626   0.75003   0.49918   0.00000  Uiso   1.00
C573   C     0.55234   0.71218   0.54020   0.00000  Uiso   1.00
C574   C     0.59006   0.78946   0.49579   0.00000  Uiso   1.00
C575   C     0.90840   0.70759   0.49696   0.00000  Uiso   1.00
C576   C     0.90908   0.79133   0.51520   0.00000  Uiso   1.00
C577   C     0.59809   0.71209   0.53438   0.00000  Uiso   1.00
C578   C     0.61687   0.75051   0.51058   0.00000  Uiso   1.00
C579   C     0.88506   0.74997   0.50221   0.00000  Uiso   1.00
C580   C     0.52578   0.74937   0.52177   0.00000  Uiso   1.00
C581   C     0.97753   0.74759   0.52181   0.00000  Uiso   1.00
C582   C     0.73210   0.60075   0.45884   0.00000  Uiso   1.00
C583   C     0.78027   0.89859   0.53161   0.00000  Uiso   1.00
C584   C     0.76826   0.60058   0.54100   0.00000  Uiso   1.00
C585   C     0.72022   0.89898   0.46798   0.00000  Uiso   1.00
C586   C     0.74081   0.55231   0.45545   0.00000  Uiso   1.00
C587   C     0.78598   0.94705   0.52420   0.00000  Uiso   1.00
C588   C     0.76088   0.55184   0.54383   0.00000  Uiso   1.00
H589   H     0.52451   0.81627   0.48407   0.00000  Uiso   1.00
H590   H     0.90712   0.64146   0.47984   0.00000  Uiso   1.00
H591   H     0.87384   0.83857   0.48018   0.00000  Uiso   1.00
H592   H     0.60634   0.65187   0.56786   0.00000  Uiso   1.00
H593   H     0.75449   0.50218   0.41037   0.00000  Uiso   1.00
H594   H     0.82957   0.99719   0.52524   0.00000  Uiso   1.00
H595   H     0.74761   0.50123   0.58872   0.00000  Uiso   1.00
H596   H     0.67206   0.99832   0.47337   0.00000  Uiso   1.00
H597   H     0.97325   0.67569   0.49920   0.00000  Uiso   1.00
H598   H     0.97176   0.82035   0.54062   0.00000  Uiso   1.00
H599   H     0.53737   0.68310   0.55838   0.00000  Uiso   1.00
H600   H     0.64415   0.67690   0.39651   0.00000  Uiso   1.00
H601   H     0.83852   0.81563   0.62126   0.00000  Uiso   1.00
H602   H     0.84538   0.68196   0.61317   0.00000  Uiso   1.00
H603   H     0.66292   0.81666   0.37752   0.00000  Uiso   1.00
H604   H     0.62466   0.84466   0.50429   0.00000  Uiso   1.00
N605   N     0.75000   0.62623   0.50000   0.00000  Uiso   1.00
N606   N     0.75000   0.87376   0.50000   0.00000  Uiso   1.00
O607   O     0.68453   0.78974   0.50000   0.00000  Uiso   1.00
O608   O     0.66677   0.58426   0.38611   0.00000  Uiso   1.00
O609   O     0.65811   0.66281   0.42781   0.00000  Uiso   1.00
O610   O     0.83337   0.91079   0.61780   0.00000  Uiso   1.00
O611   O     0.76451   0.86738   0.62091   0.00000  Uiso   1.00
O612   O     0.83208   0.82641   0.58630   0.00000  Uiso   1.00
O613   O     0.77163   0.63780   0.63199   0.00000  Uiso   1.00
O614   O     0.83312   0.58704   0.61480   0.00000  Uiso   1.00
O615   O     0.83339   0.66984   0.58020   0.00000  Uiso   1.00
O616   O     0.66739   0.91141   0.38156   0.00000  Uiso   1.00
O617   O     0.73690   0.86877   0.37886   0.00000  Uiso   1.00
O618   O     0.81547   0.71026   0.50000   0.00000  Uiso   1.00
O619   O     0.66966   0.82671   0.41262   0.00000  Uiso   1.00
O620   O     0.60673   0.82935   0.47623   0.00000  Uiso   1.00
O621   O     0.88572   0.66769   0.48101   0.00000  Uiso   1.00
O622   O     0.89011   0.83503   0.51370   0.00000  Uiso   1.00
O623   O     0.62492   0.67556   0.55251   0.00000  Uiso   1.00
O624   O     0.73713   0.53158   0.40883   0.00000  Uiso   1.00
O625   O     0.82512   0.96782   0.54359   0.00000  Uiso   1.00
O626   O     0.76509   0.53048   0.59025   0.00000  Uiso   1.00
O627   O     0.67635   0.96897   0.45508   0.00000  Uiso   1.00
O628   O     0.81547   0.78974   0.50000   0.00000  Uiso   1.00
O629   O     0.68453   0.71026   0.50000   0.00000  Uiso   1.00
O630   O     0.75000   0.78973   0.42845   0.00000  Uiso   1.00
O631   O     0.75000   0.71027   0.57155   0.00000  Uiso   1.00
O632   O     0.75000   0.78973   0.57155   0.00000  Uiso   1.00
O633   O     0.75000   0.71027   0.42845   0.00000  Uiso   1.00
O634   O     0.72026   0.64432   0.36993   0.00000  Uiso   1.00
S635   S     0.69434   0.62345   0.40949   0.00000  Uiso   1.00
S636   S     0.80310   0.87601   0.59030   0.00000  Uiso   1.00
S637   S     0.80179   0.62417   0.59300   0.00000  Uiso   1.00
S638   S     0.69795   0.87670   0.40912   0.00000  Uiso   1.00
Zn639  Zn    0.75000   0.80307   0.50000   0.00000  Uiso   1.00
Zn640  Zn    0.75000   0.69693   0.50000   0.00000  Uiso   1.00
C641   C     0.16410   0.25012   0.83558   0.00000  Uiso   1.00
C642   C     0.21516   0.44758   0.80818   0.00000  Uiso   1.00
C643   C     0.24989   0.25005   0.73960   0.00000  Uiso   1.00
C644   C     0.25016   0.24997   0.92707   0.00000  Uiso   1.00
C645   C     0.25093   0.02623   0.83288   0.00000  Uiso   1.00
C646   C     0.25072   0.47315   0.83278   0.00000  Uiso   1.00
C647   C     0.25002   0.25013   0.68845   0.00000  Uiso   1.00
C648   C     0.25010   0.25001   0.97822   0.00000  Uiso   1.00
C649   C     0.04481   0.28756   0.83276   0.00000  Uiso   1.00
C650   C     0.45480   0.20713   0.83950   0.00000  Uiso   1.00
C651   C     0.45423   0.28876   0.86207   0.00000  Uiso   1.00
C652   C     0.33626   0.25003   0.83251   0.00000  Uiso   1.00
C653   C     0.05234   0.21218   0.87353   0.00000  Uiso   1.00
C654   C     0.09006   0.28946   0.82912   0.00000  Uiso   1.00
C655   C     0.40840   0.20759   0.83030   0.00000  Uiso   1.00
C656   C     0.40908   0.29133   0.84853   0.00000  Uiso   1.00
C657   C     0.09809   0.21209   0.86772   0.00000  Uiso   1.00
C658   C     0.11687   0.25051   0.84391   0.00000  Uiso   1.00
C659   C     0.38506   0.24997   0.83554   0.00000  Uiso   1.00
C660   C     0.02578   0.24937   0.85511   0.00000  Uiso   1.00
C661   C     0.47753   0.24759   0.85514   0.00000  Uiso   1.00
C662   C     0.23210   0.10075   0.79218   0.00000  Uiso   1.00
C663   C     0.28027   0.39859   0.86495   0.00000  Uiso   1.00
C664   C     0.26826   0.10058   0.87433   0.00000  Uiso   1.00
C665   C     0.22022   0.39898   0.80131   0.00000  Uiso   1.00
C666   C     0.24081   0.05231   0.78878   0.00000  Uiso   1.00
C667   C     0.28598   0.44705   0.85753   0.00000  Uiso   1.00
C668   C     0.26088   0.05184   0.87717   0.00000  Uiso   1.00
H669   H     0.02451   0.31627   0.81740   0.00000  Uiso   1.00
H670   H     0.40712   0.14146   0.81317   0.00000  Uiso   1.00
H671   H     0.37384   0.33857   0.81351   0.00000  Uiso   1.00
H672   H     0.10634   0.15187   0.90119   0.00000  Uiso   1.00
H673   H     0.25449   0.00218   0.74371   0.00000  Uiso   1.00
H674   H     0.32957   0.49719   0.85858   0.00000  Uiso   1.00
H675   H     0.24761   0.00123   0.92205   0.00000  Uiso   1.00
H676   H     0.17206   0.49832   0.80671   0.00000  Uiso   1.00
H677   H     0.47325   0.17569   0.83253   0.00000  Uiso   1.00
H678   H     0.47176   0.32035   0.87395   0.00000  Uiso   1.00
H679   H     0.03737   0.18310   0.89171   0.00000  Uiso   1.00
H680   H     0.14415   0.17690   0.72984   0.00000  Uiso   1.00
H681   H     0.33852   0.31563   0.95459   0.00000  Uiso   1.00
H682   H     0.34538   0.18196   0.94650   0.00000  Uiso   1.00
H683   H     0.16292   0.31666   0.71085   0.00000  Uiso   1.00
H684   H     0.12466   0.34466   0.83762   0.00000  Uiso   1.00
N685   N     0.25000   0.12623   0.83333   0.00000  Uiso   1.00
N686   N     0.25000   0.37376   0.83333   0.00000  Uiso   1.00
O687   O     0.18453   0.28974   0.83334   0.00000  Uiso   1.00
O688   O     0.16677   0.08426   0.71944   0.00000  Uiso   1.00
O689   O     0.15811   0.16281   0.76114   0.00000  Uiso   1.00
O690   O     0.33337   0.41079   0.95113   0.00000  Uiso   1.00
O691   O     0.26451   0.36738   0.95424   0.00000  Uiso   1.00
O692   O     0.33208   0.32641   0.91963   0.00000  Uiso   1.00
O693   O     0.27163   0.13780   0.96532   0.00000  Uiso   1.00
O694   O     0.33312   0.08704   0.94814   0.00000  Uiso   1.00
O695   O     0.33339   0.16984   0.91353   0.00000  Uiso   1.00
O696   O     0.16739   0.41141   0.71489   0.00000  Uiso   1.00
O697   O     0.23690   0.36877   0.71220   0.00000  Uiso   1.00
O698   O     0.31547   0.21026   0.83333   0.00000  Uiso   1.00
O699   O     0.16966   0.32671   0.74595   0.00000  Uiso   1.00
O700   O     0.10673   0.32935   0.80956   0.00000  Uiso   1.00
O701   O     0.38572   0.16769   0.81434   0.00000  Uiso   1.00
O702   O     0.39011   0.33503   0.84703   0.00000  Uiso   1.00
O703   O     0.12492   0.17556   0.88584   0.00000  Uiso   1.00
O704   O     0.23713   0.03158   0.74217   0.00000  Uiso   1.00
O705   O     0.32512   0.46782   0.87693   0.00000  Uiso   1.00
O706   O     0.26509   0.03048   0.92358   0.00000  Uiso   1.00
O707   O     0.17635   0.46897   0.78841   0.00000  Uiso   1.00
O708   O     0.31547   0.28974   0.83333   0.00000  Uiso   1.00
O709   O     0.18453   0.21026   0.83334   0.00000  Uiso   1.00
O710   O     0.25000   0.28973   0.76178   0.00000  Uiso   1.00
O711   O     0.25000   0.21027   0.90489   0.00000  Uiso   1.00
O712   O     0.25000   0.28973   0.90489   0.00000  Uiso   1.00
O713   O     0.25000   0.21027   0.76178   0.00000  Uiso   1.00
O714   O     0.22026   0.14432   0.70327   0.00000  Uiso   1.00
S715   S     0.19434   0.12345   0.74283   0.00000  Uiso   1.00
S716   S     0.30310   0.37601   0.92363   0.00000  Uiso   1.00
S717   S     0.30179   0.12417   0.92634   0.00000  Uiso   1.00
S718   S     0.19795   0.37670   0.74246   0.00000  Uiso   1.00
Zn719  Zn    0.25000   0.30307   0.83333   0.00000  Uiso   1.00
Zn720  Zn    0.25000   0.19693   0.83333   0.00000  Uiso   1.00
C721   C     0.66410   0.25012   0.83558   0.00000  Uiso   1.00
C722   C     0.71516   0.44758   0.80818   0.00000  Uiso   1.00
C723   C     0.74989   0.25005   0.73960   0.00000  Uiso   1.00
C724   C     0.75016   0.24997   0.92707   0.00000  Uiso   1.00
C725   C     0.75093   0.02623   0.83288   0.00000  Uiso   1.00
C726   C     0.75072   0.47315   0.83278   0.00000  Uiso   1.00
C727   C     0.75002   0.25013   0.68845   0.00000  Uiso   1.00
C728   C     0.75010   0.25001   0.97822   0.00000  Uiso   1.00
C729   C     0.54481   0.28756   0.83276   0.00000  Uiso   1.00
C730   C     0.95480   0.20713   0.83950   0.00000  Uiso   1.00
C731   C     0.95423   0.28876   0.86207   0.00000  Uiso   1.00
C732   C     0.83626   0.25003   0.83251   0.00000  Uiso   1.00
C733   C     0.55234   0.21218   0.87353   0.00000  Uiso   1.00
C734   C     0.59006   0.28946   0.82912   0.00000  Uiso   1.00
C735   C     0.90840   0.20759   0.83030   0.00000  Uiso   1.00
C736   C     0.90908   0.29133   0.84853   0.00000  Uiso   1.00
C737   C     0.59809   0.21209   0.86772   0.00000  Uiso   1.00
C738   C     0.61687   0.25051   0.84391   0.00000  Uiso   1.00
C739   C     0.88506   0.24997   0.83554   0.00000  Uiso   1.00
C740   C     0.52578   0.24937   0.85511   0.00000  Uiso   1.00
C741   C     0.97753   0.24759   0.85514   0.00000  Uiso   1.00
C742   C     0.73210   0.10075   0.79218   0.00000  Uiso   1.00
C743   C     0.78027   0.39859   0.86495   0.00000  Uiso   1.00
C744   C     0.76826   0.10058   0.87433   0.00000  Uiso   1.00
C745   C     0.72022   0.39898   0.80131   0.00000  Uiso   1.00
C746   C     0.74081   0.05231   0.78878   0.00000  Uiso   1.00
C747   C     0.78598   0.44705   0.85753   0.00000  Uiso   1.00
C748   C     0.76088   0.05184   0.87717   0.00000  Uiso   1.00
H749   H     0.52451   0.31627   0.81740   0.00000  Uiso   1.00
H750   H     0.90712   0.14146   0.81317   0.00000  Uiso   1.00
H751   H     0.87384   0.33857   0.81351   0.00000  Uiso   1.00
H752   H     0.60634   0.15187   0.90119   0.00000  Uiso   1.00
H753   H     0.75449   0.00218   0.74371   0.00000  Uiso   1.00
H754   H     0.82957   0.49719   0.85858   0.00000  Uiso   1.00
H755   H     0.74761   0.00123   0.92205   0.00000  Uiso   1.00
H756   H     0.67206   0.49832   0.80671   0.00000  Uiso   1.00
H757   H     0.97325   0.17569   0.83253   0.00000  Uiso   1.00
H758   H     0.97176   0.32035   0.87395   0.00000  Uiso   1.00
H759   H     0.53737   0.18310   0.89171   0.00000  Uiso   1.00
H760   H     0.64415   0.17690   0.72984   0.00000  Uiso   1.00
H761   H     0.83852   0.31563   0.95459   0.00000  Uiso   1.00
H762   H     0.84538   0.18196   0.94650   0.00000  Uiso   1.00
H763   H     0.66292   0.31666   0.71085   0.00000  Uiso   1.00
H764   H     0.62466   0.34466   0.83762   0.00000  Uiso   1.00
N765   N     0.75000   0.12623   0.83333   0.00000  Uiso   1.00
N766   N     0.75000   0.37376   0.83333   0.00000  Uiso   1.00
O767   O     0.68453   0.28974   0.83334   0.00000  Uiso   1.00
O768   O     0.66677   0.08426   0.71944   0.00000  Uiso   1.00
O769   O     0.65811   0.16281   0.76114   0.00000  Uiso   1.00
O770   O     0.83337   0.41079   0.95113   0.00000  Uiso   1.00
O771   O     0.76451   0.36738   0.95424   0.00000  Uiso   1.00
O772   O     0.83208   0.32641   0.91963   0.00000  Uiso   1.00
O773   O     0.77163   0.13780   0.96532   0.00000  Uiso   1.00
O774   O     0.83312   0.08704   0.94814   0.00000  Uiso   1.00
O775   O     0.83339   0.16984   0.91353   0.00000  Uiso   1.00
O776   O     0.66739   0.41141   0.71489   0.00000  Uiso   1.00
O777   O     0.73690   0.36877   0.71220   0.00000  Uiso   1.00
O778   O     0.81547   0.21026   0.83333   0.00000  Uiso   1.00
O779   O     0.66966   0.32671   0.74595   0.00000  Uiso   1.00
O780   O     0.60673   0.32935   0.80956   0.00000  Uiso   1.00
O781   O     0.88572   0.16769   0.81434   0.00000  Uiso   1.00
O782   O     0.89011   0.33503   0.84703   0.00000  Uiso   1.00
O783   O     0.62492   0.17556   0.88584   0.00000  Uiso   1.00
O784   O     0.73713   0.03158   0.74217   0.00000  Uiso   1.00
O785   O     0.82512   0.46782   0.87693   0.00000  Uiso   1.00
O786   O     0.76509   0.03048   0.92358   0.00000  Uiso   1.00
O787   O     0.67635   0.46897   0.78841   0.00000  Uiso   1.00
O788   O     0.81547   0.28974   0.83333   0.00000  Uiso   1.00
O789   O     0.68453   0.21026   0.83334   0.00000  Uiso   1.00
O790   O     0.75000   0.28973   0.76178   0.00000  Uiso   1.00
O791   O     0.75000   0.21027   0.90489   0.00000  Uiso   1.00
O792   O     0.75000   0.28973   0.90489   0.00000  Uiso   1.00
O793   O     0.75000   0.21027   0.76178   0.00000  Uiso   1.00
O794   O     0.72026   0.14432   0.70327   0.00000  Uiso   1.00
S795   S     0.69434   0.12345   0.74283   0.00000  Uiso   1.00
S796   S     0.80310   0.37601   0.92363   0.00000  Uiso   1.00
S797   S     0.80179   0.12417   0.92634   0.00000  Uiso   1.00
S798   S     0.69795   0.37670   0.74246   0.00000  Uiso   1.00
Zn799  Zn    0.75000   0.30307   0.83333   0.00000  Uiso   1.00
Zn800  Zn    0.75000   0.19693   0.83333   0.00000  Uiso   1.00
C801   C     0.16410   0.75012   0.83558   0.00000  Uiso   1.00
C802   C     0.21516   0.94758   0.80818   0.00000  Uiso   1.00
C803   C     0.24989   0.75005   0.73960   0.00000  Uiso   1.00
C804   C     0.25016   0.74997   0.92707   0.00000  Uiso   1.00
C805   C     0.25093   0.52623   0.83288   0.00000  Uiso   1.00
C806   C     0.25072   0.97315   0.83278   0.00000  Uiso   1.00
C807   C     0.25002   0.75013   0.68845   0.00000  Uiso   1.00
C808   C     0.25010   0.75001   0.97822   0.00000  Uiso   1.00
C809   C     0.04481   0.78756   0.83276   0.00000  Uiso   1.00
C810   C     0.45480   0.70713   0.83950   0.00000  Uiso   1.00
C811   C     0.45423   0.78876   0.86207   0.00000  Uiso   1.00
C812   C     0.33626   0.75003   0.83251   0.00000  Uiso   1.00
C813   C     0.05234   0.71218   0.87353   0.00000  Uiso   1.00
C814   C     0.09006   0.78946   0.82912   0.00000  Uiso   1.00
C815   C     0.40840   0.70759   0.83030   0.00000  Uiso   1.00
C816   C     0.40908   0.79133   0.84853   0.00000  Uiso   1.00
C817   C     0.09809   0.71209   0.86772   0.00000  Uiso   1.00
C818   C     0.11687   0.75051   0.84391   0.00000  Uiso   1.00
C819   C     0.38506   0.74997   0.83554   0.00000  Uiso   1.00
C820   C     0.02578   0.74937   0.85511   0.00000  Uiso   1.00
C821   C     0.47753   0.74759   0.85514   0.00000  Uiso   1.00
C822   C     0.23210   0.60075   0.79218   0.00000  Uiso   1.00
C823   C     0.28027   0.89859   0.86495   0.00000  Uiso   1.00
C824   C     0.26826   0.60058   0.87433   0.00000  Uiso   1.00
C825   C     0.22022   0.89898   0.80131   0.00000  Uiso   1.00
C826   C     0.24081   0.55231   0.78878   0.00000  Uiso   1.00
C827   C     0.28598   0.94705   0.85753   0.00000  Uiso   1.00
C828   C     0.26088   0.55184   0.87717   0.00000  Uiso   1.00
H829   H     0.02451   0.81627   0.81740   0.00000  Uiso   1.00
H830   H     0.40712   0.64146   0.81317   0.00000  Uiso   1.00
H831   H     0.37384   0.83857   0.81351   0.00000  Uiso   1.00
H832   H     0.10634   0.65187   0.90119   0.00000  Uiso   1.00
H833   H     0.25449   0.50218   0.74371   0.00000  Uiso   1.00
H834   H     0.32957   0.99719   0.85858   0.00000  Uiso   1.00
H835   H     0.24761   0.50123   0.92205   0.00000  Uiso   1.00
H836   H     0.17206   0.99832   0.80671   0.00000  Uiso   1.00
H837   H     0.47325   0.67569   0.83253   0.00000  Uiso   1.00
H838   H     0.47176   0.82035   0.87395   0.00000  Uiso   1.00
H839   H     0.03737   0.68310   0.89171   0.00000  Uiso   1.00
H840   H     0.14415   0.67690   0.72984   0.00000  Uiso   1.00
H841   H     0.33852   0.81563   0.95459   0.00000  Uiso   1.00
H842   H     0.34538   0.68196   0.94650   0.00000  Uiso   1.00
H843   H     0.16292   0.81666   0.71085   0.00000  Uiso   1.00
H844   H     0.12466   0.84466   0.83762   0.00000  Uiso   1.00
N845   N     0.25000   0.62623   0.83333   0.00000  Uiso   1.00
N846   N     0.25000   0.87376   0.83333   0.00000  Uiso   1.00
O847   O     0.18453   0.78974   0.83334   0.00000  Uiso   1.00
O848   O     0.16677   0.58426   0.71944   0.00000  Uiso   1.00
O849   O     0.15811   0.66281   0.76114   0.00000  Uiso   1.00
O850   O     0.33337   0.91079   0.95113   0.00000  Uiso   1.00
O851   O     0.26451   0.86738   0.95424   0.00000  Uiso   1.00
O852   O     0.33208   0.82641   0.91963   0.00000  Uiso   1.00
O853   O     0.27163   0.63780   0.96532   0.00000  Uiso   1.00
O854   O     0.33312   0.58704   0.94814   0.00000  Uiso   1.00
O855   O     0.33339   0.66984   0.91353   0.00000  Uiso   1.00
O856   O     0.16739   0.91141   0.71489   0.00000  Uiso   1.00
O857   O     0.23690   0.86877   0.71220   0.00000  Uiso   1.00
O858   O     0.31547   0.71026   0.83333   0.00000  Uiso   1.00
O859   O     0.16966   0.82671   0.74595   0.00000  Uiso   1.00
O860   O     0.10673   0.82935   0.80956   0.00000  Uiso   1.00
O861   O     0.38572   0.66769   0.81434   0.00000  Uiso   1.00
O862   O     0.39011   0.83503   0.84703   0.00000  Uiso   1.00
O863   O     0.12492   0.67556   0.88584   0.00000  Uiso   1.00
O864   O     0.23713   0.53158   0.74217   0.00000  Uiso   1.00
O865   O     0.32512   0.96782   0.87693   0.00000  Uiso   1.00
O866   O     0.26509   0.53048   0.92358   0.00000  Uiso   1.00
O867   O     0.17635   0.96897   0.78841   0.00000  Uiso   1.00
O868   O     0.31547   0.78974   0.83333   0.00000  Uiso   1.00
O869   O     0.18453   0.71026   0.83334   0.00000  Uiso   1.00
O870   O     0.25000   0.78973   0.76178   0.00000  Uiso   1.00
O871   O     0.25000   0.71027   0.90489   0.00000  Uiso   1.00
O872   O     0.25000   0.78973   0.90489   0.00000  Uiso   1.00
O873   O     0.25000   0.71027   0.76178   0.00000  Uiso   1.00
O874   O     0.22026   0.64432   0.70327   0.00000  Uiso   1.00
S875   S     0.19434   0.62345   0.74283   0.00000  Uiso   1.00
S876   S     0.30310   0.87601   0.92363   0.00000  Uiso   1.00
S877   S     0.30179   0.62417   0.92634   0.00000  Uiso   1.00
S878   S     0.19795   0.87670   0.74246   0.00000  Uiso   1.00
Zn879  Zn    0.25000   0.80307   0.83333   0.00000  Uiso   1.00
Zn880  Zn    0.25000   0.69693   0.83333   0.00000  Uiso   1.00
C881   C     0.66410   0.75012   0.83558   0.00000  Uiso   1.00
C882   C     0.71516   0.94758   0.80818   0.00000  Uiso   1.00
C883   C     0.74989   0.75005   0.73960   0.00000  Uiso   1.00
C884   C     0.75016   0.74997   0.92707   0.00000  Uiso   1.00
C885   C     0.75093   0.52623   0.83288   0.00000  Uiso   1.00
C886   C     0.75072   0.97315   0.83278   0.00000  Uiso   1.00
C887   C     0.75002   0.75013   0.68845   0.00000  Uiso   1.00
C888   C     0.75010   0.75001   0.97822   0.00000  Uiso   1.00
C889   C     0.54481   0.78756   0.83276   0.00000  Uiso   1.00
C890   C     0.95480   0.70713   0.83950   0.00000  Uiso   1.00
C891   C     0.95423   0.78876   0.86207   0.00000  Uiso   1.00
C892   C     0.83626   0.75003   0.83251   0.00000  Uiso   1.00
C893   C     0.55234   0.71218   0.87353   0.00000  Uiso   1.00
C894   C     0.59006   0.78946   0.82912   0.00000  Uiso   1.00
C895   C     0.90840   0.70759   0.83030   0.00000  Uiso   1.00
C896   C     0.90908   0.79133   0.84853   0.00000  Uiso   1.00
C897   C     0.59809   0.71209   0.86772   0.00000  Uiso   1.00
C898   C     0.61687   0.75051   0.84391   0.00000  Uiso   1.00
C899   C     0.88506   0.74997   0.83554   0.00000  Uiso   1.00
C900   C     0.52578   0.74937   0.85511   0.00000  Uiso   1.00
C901   C     0.97753   0.74759   0.85514   0.00000  Uiso   1.00
C902   C     0.73210   0.60075   0.79218   0.00000  Uiso   1.00
C903   C     0.78027   0.89859   0.86495   0.00000  Uiso   1.00
C904   C     0.76826   0.60058   0.87433   0.00000  Uiso   1.00
C905   C     0.72022   0.89898   0.80131   0.00000  Uiso   1.00
C906   C     0.74081   0.55231   0.78878   0.00000  Uiso   1.00
C907   C     0.78598   0.94705   0.85753   0.00000  Uiso   1.00
C908   C     0.76088   0.55184   0.87717   0.00000  Uiso   1.00
H909   H     0.52451   0.81627   0.81740   0.00000  Uiso   1.00
H910   H     0.90712   0.64146   0.81317   0.00000  Uiso   1.00
H911   H     0.87384   0.83857   0.81351   0.00000  Uiso   1.00
H912   H     0.60634   0.65187   0.90119   0.00000  Uiso   1.00
H913   H     0.75449   0.50218   0.74371   0.00000  Uiso   1.00
H914   H     0.82957   0.99719   0.85858   0.00000  Uiso   1.00
H915   H     0.74761   0.50123   0.92205   0.00000  Uiso   1.00
H916   H     0.67206   0.99832   0.80671   0.00000  Uiso   1.00
H917   H     0.97325   0.67569   0.83253   0.00000  Uiso   1.00
H918   H     0.97176   0.82035   0.87395   0.00000  Uiso   1.00
H919   H     0.53737   0.68310   0.89171   0.00000  Uiso   1.00
H920   H     0.64415   0.67690   0.72984   0.00000  Uiso   1.00
H921   H     0.83852   0.81563   0.95459   0.00000  Uiso   1.00
H922   H     0.84538   0.68196   0.94650   0.00000  Uiso   1.00
H923   H     0.66292   0.81666   0.71085   0.00000  Uiso   1.00
H924   H     0.62466   0.84466   0.83762   0.00000  Uiso   1.00
N925   N     0.75000   0.62623   0.83333   0.00000  Uiso   1.00
N926   N     0.75000   0.87376   0.83333   0.00000  Uiso   1.00
O927   O     0.68453   0.78974   0.83334   0.00000  Uiso   1.00
O928   O     0.66677   0.58426   0.71944   0.00000  Uiso   1.00
O929   O     0.65811   0.66281   0.76114   0.00000  Uiso   1.00
O930   O     0.83337   0.91079   0.95113   0.00000  Uiso   1.00
O931   O     0.76451   0.86738   0.95424   0.00000  Uiso   1.00
O932   O     0.83208   0.82641   0.91963   0.00000  Uiso   1.00
O933   O     0.77163   0.63780   0.96532   0.00000  Uiso   1.00
O934   O     0.83312   0.58704   0.94814   0.00000  Uiso   1.00
O935   O     0.83339   0.66984   0.91353   0.00000  Uiso   1.00
O936   O     0.66739   0.91141   0.71489   0.00000  Uiso   1.00
O937   O     0.73690   0.86877   0.71220   0.00000  Uiso   1.00
O938   O     0.81547   0.71026   0.83333   0.00000  Uiso   1.00
O939   O     0.66966   0.82671   0.74595   0.00000  Uiso   1.00
O940   O     0.60673   0.82935   0.80956   0.00000  Uiso   1.00
O941   O     0.88572   0.66769   0.81434   0.00000  Uiso   1.00
O942   O     0.89011   0.83503   0.84703   0.00000  Uiso   1.00
O943   O     0.62492   0.67556   0.88584   0.00000  Uiso   1.00
O944   O     0.73713   0.53158   0.74217   0.00000  Uiso   1.00
O945   O     0.82512   0.96782   0.87693   0.00000  Uiso   1.00
O946   O     0.76509   0.53048   0.92358   0.00000  Uiso   1.00
O947   O     0.67635   0.96897   0.78841   0.00000  Uiso   1.00
O948   O     0.81547   0.78974   0.83333   0.00000  Uiso   1.00
O949   O     0.68453   0.71026   0.83334   0.00000  Uiso   1.00
O950   O     0.75000   0.78973   0.76178   0.00000  Uiso   1.00
O951   O     0.75000   0.71027   0.90489   0.00000  Uiso   1.00
O952   O     0.75000   0.78973   0.90489   0.00000  Uiso   1.00
O953   O     0.75000   0.71027   0.76178   0.00000  Uiso   1.00
O954   O     0.72026   0.64432   0.70327   0.00000  Uiso   1.00
S955   S     0.69434   0.62345   0.74283   0.00000  Uiso   1.00
S956   S     0.80310   0.87601   0.92363   0.00000  Uiso   1.00
S957   S     0.80179   0.62417   0.92634   0.00000  Uiso   1.00
S958   S     0.69795   0.87670   0.74246   0.00000  Uiso   1.00
Zn959  Zn    0.75000   0.80307   0.83333   0.00000  Uiso   1.00
Zn960  Zn    0.75000   0.69693   0.83333   0.00000  Uiso   1.00
loop_
_geom_bond_atom_site_label_1
_geom_bond_atom_site_label_2
_geom_bond_distance
_geom_bond_site_symmetry_2
_ccdc_geom_bond_type
C1     C18     1.456   .     S
C1     O47     1.297   .     A
C1     O69     1.301   .     A
C2     C25     1.417   .     A
C2     C6      1.414   .     A
C2     O67     1.381   .     S
C3     C7      1.374   .     S
C3     O70     1.286   .     A
C3     O73     1.286   .     A
C4     C8      1.374   .     S
C4     O72     1.285   .     A
C4     O71     1.287   .     A
C5     C28     1.410   .     A
C5     C26     1.410   .     A
C5     C166    1.523   1_545 S
C6     C27     1.414   .     A
C6     C165    1.523   .     S
C7     C648    1.170   1_554 S
C8     C327    1.170   .     S
C9     C14     1.373   .     A
C9     C20     1.395   .     A
C9     H29     1.084   .     S
C10    H37     1.083   .     S
C10    C15     1.395   .     A
C10    C21     1.395   .     A
C11    C21     1.393   .     A
C11    H38     1.084   .     S
C11    C16     1.376   .     A
C12    O68     1.300   .     A
C12    O58     1.303   .     A
C12    C19     1.462   .     S
C13    C20     1.395   .     A
C13    C17     1.397   .     A
C13    H39     1.084   .     S
C14    C18     1.413   .     A
C14    O60     1.372   .     S
C15    C19     1.416   .     A
C15    O61     1.383   .     S
C16    C19     1.418   .     A
C16    O62     1.375   .     S
C17    C18     1.415   .     A
C17    O63     1.383   .     S
C20    C101    1.451   1_455 S
C21    C100    1.451   .     S
C22    S75     1.789   .     S
C22    N45     1.396   .     A
C22    C26     1.419   .     A
C23    S76     1.784   .     S
C23    C27     1.417   .     A
C23    N46     1.388   .     A
C24    N45     1.395   .     A
C24    C28     1.419   .     A
C24    S77     1.785   .     S
C25    S78     1.783   .     S
C25    N46     1.388   .     A
C26    O64     1.383   .     S
C27    O65     1.381   .     S
C28    O66     1.383   .     S
H30    O61     0.992   .     S
H31    O62     0.991   .     S
H32    O63     0.992   .     S
H33    O64     0.990   .     S
H34    O65     0.990   .     S
H35    O66     0.990   .     S
H36    O67     0.990   .     S
H40    O49     0.991   .     S
H41    O52     0.991   .     S
H42    O55     0.991   .     S
H43    O59     0.991   .     S
H44    O60     0.992   .     S
N45    Zn80    2.028   .     S
N46    Zn79    2.028   .     S
O47    Zn79    2.005   .     S
O48    S75     1.504   .     D
O49    S75     1.672   .     S
O50    S76     1.503   .     D
O51    S76     1.499   .     D
O52    S76     1.676   .     S
O53    S77     1.496   .     D
O54    S77     1.504   .     D
O55    S77     1.672   .     S
O56    S78     1.503   .     D
O57    S78     1.499   .     D
O58    Zn80    2.005   .     S
O59    S78     1.675   .     S
O68    Zn79    2.004   .     S
O69    Zn80    2.004   .     S
O70    Zn79    1.960   .     S
O71    Zn80    1.960   .     S
O72    Zn79    1.958   .     S
O73    Zn80    1.958   .     S
O74    S75     1.495   .     D
C81    C98     1.456   .     S
C81    O127    1.297   .     A
C81    O149    1.301   .     A
C82    C105    1.417   .     A
C82    C86     1.414   .     A
C82    O147    1.381   .     S
C83    C87     1.374   .     S
C83    O150    1.286   .     A
C83    O153    1.286   .     A
C84    C88     1.374   .     S
C84    O152    1.285   .     A
C84    O151    1.287   .     A
C85    C108    1.410   .     A
C85    C106    1.410   .     A
C85    C246    1.523   1_545 S
C86    C107    1.414   .     A
C86    C245    1.523   .     S
C87    C728    1.170   1_554 S
C88    C407    1.170   .     S
C89    C94     1.373   .     A
C89    C100    1.395   .     A
C89    H109    1.084   .     S
C90    H117    1.083   .     S
C90    C95     1.395   .     A
C90    C101    1.395   .     A
C91    C101    1.393   .     A
C91    H118    1.084   .     S
C91    C96     1.376   .     A
C92    O148    1.300   .     A
C92    O138    1.303   .     A
C92    C99     1.462   .     S
C93    C100    1.395   .     A
C93    C97     1.397   .     A
C93    H119    1.084   .     S
C94    C98     1.413   .     A
C94    O140    1.372   .     S
C95    C99     1.416   .     A
C95    O141    1.383   .     S
C96    C99     1.418   .     A
C96    O142    1.375   .     S
C97    C98     1.415   .     A
C97    O143    1.383   .     S
C101   C20     1.451   1_655 S
C102   S155    1.789   .     S
C102   N125    1.396   .     A
C102   C106    1.419   .     A
C103   S156    1.784   .     S
C103   C107    1.417   .     A
C103   N126    1.388   .     A
C104   N125    1.395   .     A
C104   C108    1.419   .     A
C104   S157    1.785   .     S
C105   S158    1.783   .     S
C105   N126    1.388   .     A
C106   O144    1.383   .     S
C107   O145    1.381   .     S
C108   O146    1.383   .     S
H110   O141    0.992   .     S
H111   O142    0.991   .     S
H112   O143    0.992   .     S
H113   O144    0.990   .     S
H114   O145    0.990   .     S
H115   O146    0.990   .     S
H116   O147    0.990   .     S
H120   O129    0.991   .     S
H121   O132    0.991   .     S
H122   O135    0.991   .     S
H123   O139    0.991   .     S
H124   O140    0.992   .     S
N125   Zn160   2.028   .     S
N126   Zn159   2.028   .     S
O127   Zn159   2.005   .     S
O128   S155    1.504   .     D
O129   S155    1.672   .     S
O130   S156    1.503   .     D
O131   S156    1.499   .     D
O132   S156    1.676   .     S
O133   S157    1.496   .     D
O134   S157    1.504   .     D
O135   S157    1.672   .     S
O136   S158    1.503   .     D
O137   S158    1.499   .     D
O138   Zn160   2.005   .     S
O139   S158    1.675   .     S
O148   Zn159   2.004   .     S
O149   Zn160   2.004   .     S
O150   Zn159   1.960   .     S
O151   Zn160   1.960   .     S
O152   Zn159   1.958   .     S
O153   Zn160   1.958   .     S
O154   S155    1.495   .     D
C161   C178    1.456   .     S
C161   O207    1.297   .     A
C161   O229    1.301   .     A
C162   C185    1.417   .     A
C162   C166    1.414   .     A
C162   O227    1.381   .     S
C163   C167    1.374   .     S
C163   O230    1.286   .     A
C163   O233    1.286   .     A
C164   C168    1.374   .     S
C164   O232    1.285   .     A
C164   O231    1.287   .     A
C165   C188    1.410   .     A
C165   C186    1.410   .     A
C166   C187    1.414   .     A
C166   C5      1.523   1_565 S
C167   C808    1.170   1_554 S
C168   C487    1.170   .     S
C169   C174    1.373   .     A
C169   C180    1.395   .     A
C169   H189    1.084   .     S
C170   H197    1.083   .     S
C170   C175    1.395   .     A
C170   C181    1.395   .     A
C171   C181    1.393   .     A
C171   H198    1.084   .     S
C171   C176    1.376   .     A
C172   O228    1.300   .     A
C172   O218    1.303   .     A
C172   C179    1.462   .     S
C173   C180    1.395   .     A
C173   C177    1.397   .     A
C173   H199    1.084   .     S
C174   C178    1.413   .     A
C174   O220    1.372   .     S
C175   C179    1.416   .     A
C175   O221    1.383   .     S
C176   C179    1.418   .     A
C176   O222    1.375   .     S
C177   C178    1.415   .     A
C177   O223    1.383   .     S
C180   C261    1.451   1_455 S
C181   C260    1.451   .     S
C182   S235    1.789   .     S
C182   N205    1.396   .     A
C182   C186    1.419   .     A
C183   S236    1.784   .     S
C183   C187    1.417   .     A
C183   N206    1.388   .     A
C184   N205    1.395   .     A
C184   C188    1.419   .     A
C184   S237    1.785   .     S
C185   S238    1.783   .     S
C185   N206    1.388   .     A
C186   O224    1.383   .     S
C187   O225    1.381   .     S
C188   O226    1.383   .     S
H190   O221    0.992   .     S
H191   O222    0.991   .     S
H192   O223    0.992   .     S
H193   O224    0.990   .     S
H194   O225    0.990   .     S
H195   O226    0.990   .     S
H196   O227    0.990   .     S
H200   O209    0.991   .     S
H201   O212    0.991   .     S
H202   O215    0.991   .     S
H203   O219    0.991   .     S
H204   O220    0.992   .     S
N205   Zn240   2.028   .     S
N206   Zn239   2.028   .     S
O207   Zn239   2.005   .     S
O208   S235    1.504   .     D
O209   S235    1.672   .     S
O210   S236    1.503   .     D
O211   S236    1.499   .     D
O212   S236    1.676   .     S
O213   S237    1.496   .     D
O214   S237    1.504   .     D
O215   S237    1.672   .     S
O216   S238    1.503   .     D
O217   S238    1.499   .     D
O218   Zn240   2.005   .     S
O219   S238    1.675   .     S
O228   Zn239   2.004   .     S
O229   Zn240   2.004   .     S
O230   Zn239   1.960   .     S
O231   Zn240   1.960   .     S
O232   Zn239   1.958   .     S
O233   Zn240   1.958   .     S
O234   S235    1.495   .     D
C241   C258    1.456   .     S
C241   O287    1.297   .     A
C241   O309    1.301   .     A
C242   C265    1.417   .     A
C242   C246    1.414   .     A
C242   O307    1.381   .     S
C243   C247    1.374   .     S
C243   O310    1.286   .     A
C243   O313    1.286   .     A
C244   C248    1.374   .     S
C244   O312    1.285   .     A
C244   O311    1.287   .     A
C245   C268    1.410   .     A
C245   C266    1.410   .     A
C246   C267    1.414   .     A
C246   C85     1.523   1_565 S
C247   C888    1.170   1_554 S
C248   C567    1.170   .     S
C249   C254    1.373   .     A
C249   C260    1.395   .     A
C249   H269    1.084   .     S
C250   H277    1.083   .     S
C250   C255    1.395   .     A
C250   C261    1.395   .     A
C251   C261    1.393   .     A
C251   H278    1.084   .     S
C251   C256    1.376   .     A
C252   O308    1.300   .     A
C252   O298    1.303   .     A
C252   C259    1.462   .     S
C253   C260    1.395   .     A
C253   C257    1.397   .     A
C253   H279    1.084   .     S
C254   C258    1.413   .     A
C254   O300    1.372   .     S
C255   C259    1.416   .     A
C255   O301    1.383   .     S
C256   C259    1.418   .     A
C256   O302    1.375   .     S
C257   C258    1.415   .     A
C257   O303    1.383   .     S
C261   C180    1.451   1_655 S
C262   S315    1.789   .     S
C262   N285    1.396   .     A
C262   C266    1.419   .     A
C263   S316    1.784   .     S
C263   C267    1.417   .     A
C263   N286    1.388   .     A
C264   N285    1.395   .     A
C264   C268    1.419   .     A
C264   S317    1.785   .     S
C265   S318    1.783   .     S
C265   N286    1.388   .     A
C266   O304    1.383   .     S
C267   O305    1.381   .     S
C268   O306    1.383   .     S
H270   O301    0.992   .     S
H271   O302    0.991   .     S
H272   O303    0.992   .     S
H273   O304    0.990   .     S
H274   O305    0.990   .     S
H275   O306    0.990   .     S
H276   O307    0.990   .     S
H280   O289    0.991   .     S
H281   O292    0.991   .     S
H282   O295    0.991   .     S
H283   O299    0.991   .     S
H284   O300    0.992   .     S
N285   Zn320   2.028   .     S
N286   Zn319   2.028   .     S
O287   Zn319   2.005   .     S
O288   S315    1.504   .     D
O289   S315    1.672   .     S
O290   S316    1.503   .     D
O291   S316    1.499   .     D
O292   S316    1.676   .     S
O293   S317    1.496   .     D
O294   S317    1.504   .     D
O295   S317    1.672   .     S
O296   S318    1.503   .     D
O297   S318    1.499   .     D
O298   Zn320   2.005   .     S
O299   S318    1.675   .     S
O308   Zn319   2.004   .     S
O309   Zn320   2.004   .     S
O310   Zn319   1.960   .     S
O311   Zn320   1.960   .     S
O312   Zn319   1.958   .     S
O313   Zn320   1.958   .     S
O314   S315    1.495   .     D
C321   C338    1.456   .     S
C321   O367    1.297   .     A
C321   O389    1.301   .     A
C322   C345    1.417   .     A
C322   C326    1.414   .     A
C322   O387    1.381   .     S
C323   C327    1.374   .     S
C323   O390    1.286   .     A
C323   O393    1.286   .     A
C324   C328    1.374   .     S
C324   O392    1.285   .     A
C324   O391    1.287   .     A
C325   C348    1.410   .     A
C325   C346    1.410   .     A
C325   C486    1.523   1_545 S
C326   C347    1.414   .     A
C326   C485    1.523   .     S
C328   C647    1.170   .     S
C329   C334    1.373   .     A
C329   C340    1.395   .     A
C329   H349    1.084   .     S
C330   H357    1.083   .     S
C330   C335    1.395   .     A
C330   C341    1.395   .     A
C331   C341    1.393   .     A
C331   H358    1.084   .     S
C331   C336    1.376   .     A
C332   O388    1.300   .     A
C332   O378    1.303   .     A
C332   C339    1.462   .     S
C333   C340    1.395   .     A
C333   C337    1.397   .     A
C333   H359    1.084   .     S
C334   C338    1.413   .     A
C334   O380    1.372   .     S
C335   C339    1.416   .     A
C335   O381    1.383   .     S
C336   C339    1.418   .     A
C336   O382    1.375   .     S
C337   C338    1.415   .     A
C337   O383    1.383   .     S
C340   C421    1.451   1_455 S
C341   C420    1.451   .     S
C342   S395    1.789   .     S
C342   N365    1.396   .     A
C342   C346    1.419   .     A
C343   S396    1.784   .     S
C343   C347    1.417   .     A
C343   N366    1.388   .     A
C344   N365    1.395   .     A
C344   C348    1.419   .     A
C344   S397    1.785   .     S
C345   S398    1.783   .     S
C345   N366    1.388   .     A
C346   O384    1.383   .     S
C347   O385    1.381   .     S
C348   O386    1.383   .     S
H350   O381    0.992   .     S
H351   O382    0.991   .     S
H352   O383    0.992   .     S
H353   O384    0.990   .     S
H354   O385    0.990   .     S
H355   O386    0.990   .     S
H356   O387    0.990   .     S
H360   O369    0.991   .     S
H361   O372    0.991   .     S
H362   O375    0.991   .     S
H363   O379    0.991   .     S
H364   O380    0.992   .     S
N365   Zn400   2.028   .     S
N366   Zn399   2.028   .     S
O367   Zn399   2.005   .     S
O368   S395    1.504   .     D
O369   S395    1.672   .     S
O370   S396    1.503   .     D
O371   S396    1.499   .     D
O372   S396    1.676   .     S
O373   S397    1.496   .     D
O374   S397    1.504   .     D
O375   S397    1.672   .     S
O376   S398    1.503   .     D
O377   S398    1.499   .     D
O378   Zn400   2.005   .     S
O379   S398    1.675   .     S
O388   Zn399   2.004   .     S
O389   Zn400   2.004   .     S
O390   Zn399   1.960   .     S
O391   Zn400   1.960   .     S
O392   Zn399   1.958   .     S
O393   Zn400   1.958   .     S
O394   S395    1.495   .     D
C401   C418    1.456   .     S
C401   O447    1.297   .     A
C401   O469    1.301   .     A
C402   C425    1.417   .     A
C402   C406    1.414   .     A
C402   O467    1.381   .     S
C403   C407    1.374   .     S
C403   O470    1.286   .     A
C403   O473    1.286   .     A
C404   C408    1.374   .     S
C404   O472    1.285   .     A
C404   O471    1.287   .     A
C405   C428    1.410   .     A
C405   C426    1.410   .     A
C405   C566    1.523   1_545 S
C406   C427    1.414   .     A
C406   C565    1.523   .     S
C408   C727    1.170   .     S
C409   C414    1.373   .     A
C409   C420    1.395   .     A
C409   H429    1.084   .     S
C410   H437    1.083   .     S
C410   C415    1.395   .     A
C410   C421    1.395   .     A
C411   C421    1.393   .     A
C411   H438    1.084   .     S
C411   C416    1.376   .     A
C412   O468    1.300   .     A
C412   O458    1.303   .     A
C412   C419    1.462   .     S
C413   C420    1.395   .     A
C413   C417    1.397   .     A
C413   H439    1.084   .     S
C414   C418    1.413   .     A
C414   O460    1.372   .     S
C415   C419    1.416   .     A
C415   O461    1.383   .     S
C416   C419    1.418   .     A
C416   O462    1.375   .     S
C417   C418    1.415   .     A
C417   O463    1.383   .     S
C421   C340    1.451   1_655 S
C422   S475    1.789   .     S
C422   N445    1.396   .     A
C422   C426    1.419   .     A
C423   S476    1.784   .     S
C423   C427    1.417   .     A
C423   N446    1.388   .     A
C424   N445    1.395   .     A
C424   C428    1.419   .     A
C424   S477    1.785   .     S
C425   S478    1.783   .     S
C425   N446    1.388   .     A
C426   O464    1.383   .     S
C427   O465    1.381   .     S
C428   O466    1.383   .     S
H430   O461    0.992   .     S
H431   O462    0.991   .     S
H432   O463    0.992   .     S
H433   O464    0.990   .     S
H434   O465    0.990   .     S
H435   O466    0.990   .     S
H436   O467    0.990   .     S
H440   O449    0.991   .     S
H441   O452    0.991   .     S
H442   O455    0.991   .     S
H443   O459    0.991   .     S
H444   O460    0.992   .     S
N445   Zn480   2.028   .     S
N446   Zn479   2.028   .     S
O447   Zn479   2.005   .     S
O448   S475    1.504   .     D
O449   S475    1.672   .     S
O450   S476    1.503   .     D
O451   S476    1.499   .     D
O452   S476    1.676   .     S
O453   S477    1.496   .     D
O454   S477    1.504   .     D
O455   S477    1.672   .     S
O456   S478    1.503   .     D
O457   S478    1.499   .     D
O458   Zn480   2.005   .     S
O459   S478    1.675   .     S
O468   Zn479   2.004   .     S
O469   Zn480   2.004   .     S
O470   Zn479   1.960   .     S
O471   Zn480   1.960   .     S
O472   Zn479   1.958   .     S
O473   Zn480   1.958   .     S
O474   S475    1.495   .     D
C481   C498    1.456   .     S
C481   O527    1.297   .     A
C481   O549    1.301   .     A
C482   C505    1.417   .     A
C482   C486    1.414   .     A
C482   O547    1.381   .     S
C483   C487    1.374   .     S
C483   O550    1.286   .     A
C483   O553    1.286   .     A
C484   C488    1.374   .     S
C484   O552    1.285   .     A
C484   O551    1.287   .     A
C485   C508    1.410   .     A
C485   C506    1.410   .     A
C486   C507    1.414   .     A
C486   C325    1.523   1_565 S
C488   C807    1.170   .     S
C489   C494    1.373   .     A
C489   C500    1.395   .     A
C489   H509    1.084   .     S
C490   H517    1.083   .     S
C490   C495    1.395   .     A
C490   C501    1.395   .     A
C491   C501    1.393   .     A
C491   H518    1.084   .     S
C491   C496    1.376   .     A
C492   O548    1.300   .     A
C492   O538    1.303   .     A
C492   C499    1.462   .     S
C493   C500    1.395   .     A
C493   C497    1.397   .     A
C493   H519    1.084   .     S
C494   C498    1.413   .     A
C494   O540    1.372   .     S
C495   C499    1.416   .     A
C495   O541    1.383   .     S
C496   C499    1.418   .     A
C496   O542    1.375   .     S
C497   C498    1.415   .     A
C497   O543    1.383   .     S
C500   C581    1.451   1_455 S
C501   C580    1.451   .     S
C502   S555    1.789   .     S
C502   N525    1.396   .     A
C502   C506    1.419   .     A
C503   S556    1.784   .     S
C503   C507    1.417   .     A
C503   N526    1.388   .     A
C504   N525    1.395   .     A
C504   C508    1.419   .     A
C504   S557    1.785   .     S
C505   S558    1.783   .     S
C505   N526    1.388   .     A
C506   O544    1.383   .     S
C507   O545    1.381   .     S
C508   O546    1.383   .     S
H510   O541    0.992   .     S
H511   O542    0.991   .     S
H512   O543    0.992   .     S
H513   O544    0.990   .     S
H514   O545    0.990   .     S
H515   O546    0.990   .     S
H516   O547    0.990   .     S
H520   O529    0.991   .     S
H521   O532    0.991   .     S
H522   O535    0.991   .     S
H523   O539    0.991   .     S
H524   O540    0.992   .     S
N525   Zn560   2.028   .     S
N526   Zn559   2.028   .     S
O527   Zn559   2.005   .     S
O528   S555    1.504   .     D
O529   S555    1.672   .     S
O530   S556    1.503   .     D
O531   S556    1.499   .     D
O532   S556    1.676   .     S
O533   S557    1.496   .     D
O534   S557    1.504   .     D
O535   S557    1.672   .     S
O536   S558    1.503   .     D
O537   S558    1.499   .     D
O538   Zn560   2.005   .     S
O539   S558    1.675   .     S
O548   Zn559   2.004   .     S
O549   Zn560   2.004   .     S
O550   Zn559   1.960   .     S
O551   Zn560   1.960   .     S
O552   Zn559   1.958   .     S
O553   Zn560   1.958   .     S
O554   S555    1.495   .     D
C561   C578    1.456   .     S
C561   O607    1.297   .     A
C561   O629    1.301   .     A
C562   C585    1.417   .     A
C562   C566    1.414   .     A
C562   O627    1.381   .     S
C563   C567    1.374   .     S
C563   O630    1.286   .     A
C563   O633    1.286   .     A
C564   C568    1.374   .     S
C564   O632    1.285   .     A
C564   O631    1.287   .     A
C565   C588    1.410   .     A
C565   C586    1.410   .     A
C566   C587    1.414   .     A
C566   C405    1.523   1_565 S
C568   C887    1.170   .     S
C569   C574    1.373   .     A
C569   C580    1.395   .     A
C569   H589    1.084   .     S
C570   H597    1.083   .     S
C570   C575    1.395   .     A
C570   C581    1.395   .     A
C571   C581    1.393   .     A
C571   H598    1.084   .     S
C571   C576    1.376   .     A
C572   O628    1.300   .     A
C572   O618    1.303   .     A
C572   C579    1.462   .     S
C573   C580    1.395   .     A
C573   C577    1.397   .     A
C573   H599    1.084   .     S
C574   C578    1.413   .     A
C574   O620    1.372   .     S
C575   C579    1.416   .     A
C575   O621    1.383   .     S
C576   C579    1.418   .     A
C576   O622    1.375   .     S
C577   C578    1.415   .     A
C577   O623    1.383   .     S
C581   C500    1.451   1_655 S
C582   S635    1.789   .     S
C582   N605    1.396   .     A
C582   C586    1.419   .     A
C583   S636    1.784   .     S
C583   C587    1.417   .     A
C583   N606    1.388   .     A
C584   N605    1.395   .     A
C584   C588    1.419   .     A
C584   S637    1.785   .     S
C585   S638    1.783   .     S
C585   N606    1.388   .     A
C586   O624    1.383   .     S
C587   O625    1.381   .     S
C588   O626    1.383   .     S
H590   O621    0.992   .     S
H591   O622    0.991   .     S
H592   O623    0.992   .     S
H593   O624    0.990   .     S
H594   O625    0.990   .     S
H595   O626    0.990   .     S
H596   O627    0.990   .     S
H600   O609    0.991   .     S
H601   O612    0.991   .     S
H602   O615    0.991   .     S
H603   O619    0.991   .     S
H604   O620    0.992   .     S
N605   Zn640   2.028   .     S
N606   Zn639   2.028   .     S
O607   Zn639   2.005   .     S
O608   S635    1.504   .     D
O609   S635    1.672   .     S
O610   S636    1.503   .     D
O611   S636    1.499   .     D
O612   S636    1.676   .     S
O613   S637    1.496   .     D
O614   S637    1.504   .     D
O615   S637    1.672   .     S
O616   S638    1.503   .     D
O617   S638    1.499   .     D
O618   Zn640   2.005   .     S
O619   S638    1.675   .     S
O628   Zn639   2.004   .     S
O629   Zn640   2.004   .     S
O630   Zn639   1.960   .     S
O631   Zn640   1.960   .     S
O632   Zn639   1.958   .     S
O633   Zn640   1.958   .     S
O634   S635    1.495   .     D
C641   C658    1.456   .     S
C641   O687    1.297   .     A
C641   O709    1.301   .     A
C642   C665    1.417   .     A
C642   C646    1.414   .     A
C642   O707    1.381   .     S
C643   C647    1.374   .     S
C643   O710    1.286   .     A
C643   O713    1.286   .     A
C644   C648    1.374   .     S
C644   O712    1.285   .     A
C644   O711    1.287   .     A
C645   C668    1.410   .     A
C645   C666    1.410   .     A
C645   C806    1.523   1_545 S
C646   C667    1.414   .     A
C646   C805    1.523   .     S
C648   C7      1.170   1_556 S
C649   C654    1.373   .     A
C649   C660    1.395   .     A
C649   H669    1.084   .     S
C650   H677    1.083   .     S
C650   C655    1.395   .     A
C650   C661    1.395   .     A
C651   C661    1.393   .     A
C651   H678    1.084   .     S
C651   C656    1.376   .     A
C652   O708    1.300   .     A
C652   O698    1.303   .     A
C652   C659    1.462   .     S
C653   C660    1.395   .     A
C653   C657    1.397   .     A
C653   H679    1.084   .     S
C654   C658    1.413   .     A
C654   O700    1.372   .     S
C655   C659    1.416   .     A
C655   O701    1.383   .     S
C656   C659    1.418   .     A
C656   O702    1.375   .     S
C657   C658    1.415   .     A
C657   O703    1.383   .     S
C660   C741    1.451   1_455 S
C661   C740    1.451   .     S
C662   S715    1.789   .     S
C662   N685    1.396   .     A
C662   C666    1.419   .     A
C663   S716    1.784   .     S
C663   C667    1.417   .     A
C663   N686    1.388   .     A
C664   N685    1.395   .     A
C664   C668    1.419   .     A
C664   S717    1.785   .     S
C665   S718    1.783   .     S
C665   N686    1.388   .     A
C666   O704    1.383   .     S
C667   O705    1.381   .     S
C668   O706    1.383   .     S
H670   O701    0.992   .     S
H671   O702    0.991   .     S
H672   O703    0.992   .     S
H673   O704    0.990   .     S
H674   O705    0.990   .     S
H675   O706    0.990   .     S
H676   O707    0.990   .     S
H680   O689    0.991   .     S
H681   O692    0.991   .     S
H682   O695    0.991   .     S
H683   O699    0.991   .     S
H684   O700    0.992   .     S
N685   Zn720   2.028   .     S
N686   Zn719   2.028   .     S
O687   Zn719   2.005   .     S
O688   S715    1.504   .     D
O689   S715    1.672   .     S
O690   S716    1.503   .     D
O691   S716    1.499   .     D
O692   S716    1.676   .     S
O693   S717    1.496   .     D
O694   S717    1.504   .     D
O695   S717    1.672   .     S
O696   S718    1.503   .     D
O697   S718    1.499   .     D
O698   Zn720   2.005   .     S
O699   S718    1.675   .     S
O708   Zn719   2.004   .     S
O709   Zn720   2.004   .     S
O710   Zn719   1.960   .     S
O711   Zn720   1.960   .     S
O712   Zn719   1.958   .     S
O713   Zn720   1.958   .     S
O714   S715    1.495   .     D
C721   C738    1.456   .     S
C721   O767    1.297   .     A
C721   O789    1.301   .     A
C722   C745    1.417   .     A
C722   C726    1.414   .     A
C722   O787    1.381   .     S
C723   C727    1.374   .     S
C723   O790    1.286   .     A
C723   O793    1.286   .     A
C724   C728    1.374   .     S
C724   O792    1.285   .     A
C724   O791    1.287   .     A
C725   C748    1.410   .     A
C725   C746    1.410   .     A
C725   C886    1.523   1_545 S
C726   C747    1.414   .     A
C726   C885    1.523   .     S
C728   C87     1.170   1_556 S
C729   C734    1.373   .     A
C729   C740    1.395   .     A
C729   H749    1.084   .     S
C730   H757    1.083   .     S
C730   C735    1.395   .     A
C730   C741    1.395   .     A
C731   C741    1.393   .     A
C731   H758    1.084   .     S
C731   C736    1.376   .     A
C732   O788    1.300   .     A
C732   O778    1.303   .     A
C732   C739    1.462   .     S
C733   C740    1.395   .     A
C733   C737    1.397   .     A
C733   H759    1.084   .     S
C734   C738    1.413   .     A
C734   O780    1.372   .     S
C735   C739    1.416   .     A
C735   O781    1.383   .     S
C736   C739    1.418   .     A
C736   O782    1.375   .     S
C737   C738    1.415   .     A
C737   O783    1.383   .     S
C741   C660    1.451   1_655 S
C742   S795    1.789   .     S
C742   N765    1.396   .     A
C742   C746    1.419   .     A
C743   S796    1.784   .     S
C743   C747    1.417   .     A
C743   N766    1.388   .     A
C744   N765    1.395   .     A
C744   C748    1.419   .     A
C744   S797    1.785   .     S
C745   S798    1.783   .     S
C745   N766    1.388   .     A
C746   O784    1.383   .     S
C747   O785    1.381   .     S
C748   O786    1.383   .     S
H750   O781    0.992   .     S
H751   O782    0.991   .     S
H752   O783    0.992   .     S
H753   O784    0.990   .     S
H754   O785    0.990   .     S
H755   O786    0.990   .     S
H756   O787    0.990   .     S
H760   O769    0.991   .     S
H761   O772    0.991   .     S
H762   O775    0.991   .     S
H763   O779    0.991   .     S
H764   O780    0.992   .     S
N765   Zn800   2.028   .     S
N766   Zn799   2.028   .     S
O767   Zn799   2.005   .     S
O768   S795    1.504   .     D
O769   S795    1.672   .     S
O770   S796    1.503   .     D
O771   S796    1.499   .     D
O772   S796    1.676   .     S
O773   S797    1.496   .     D
O774   S797    1.504   .     D
O775   S797    1.672   .     S
O776   S798    1.503   .     D
O777   S798    1.499   .     D
O778   Zn800   2.005   .     S
O779   S798    1.675   .     S
O788   Zn799   2.004   .     S
O789   Zn800   2.004   .     S
O790   Zn799   1.960   .     S
O791   Zn800   1.960   .     S
O792   Zn799   1.958   .     S
O793   Zn800   1.958   .     S
O794   S795    1.495   .     D
C801   C818    1.456   .     S
C801   O847    1.297   .     A
C801   O869    1.301   .     A
C802   C825    1.417   .     A
C802   C806    1.414   .     A
C802   O867    1.381   .     S
C803   C807    1.374   .     S
C803   O870    1.286   .     A
C803   O873    1.286   .     A
C804   C808    1.374   .     S
C804   O872    1.285   .     A
C804   O871    1.287   .     A
C805   C828    1.410   .     A
C805   C826    1.410   .     A
C806   C827    1.414   .     A
C806   C645    1.523   1_565 S
C808   C167    1.170   1_556 S
C809   C814    1.373   .     A
C809   C820    1.395   .     A
C809   H829    1.084   .     S
C810   H837    1.083   .     S
C810   C815    1.395   .     A
C810   C821    1.395   .     A
C811   C821    1.393   .     A
C811   H838    1.084   .     S
C811   C816    1.376   .     A
C812   O868    1.300   .     A
C812   O858    1.303   .     A
C812   C819    1.462   .     S
C813   C820    1.395   .     A
C813   C817    1.397   .     A
C813   H839    1.084   .     S
C814   C818    1.413   .     A
C814   O860    1.372   .     S
C815   C819    1.416   .     A
C815   O861    1.383   .     S
C816   C819    1.418   .     A
C816   O862    1.375   .     S
C817   C818    1.415   .     A
C817   O863    1.383   .     S
C820   C901    1.451   1_455 S
C821   C900    1.451   .     S
C822   S875    1.789   .     S
C822   N845    1.396   .     A
C822   C826    1.419   .     A
C823   S876    1.784   .     S
C823   C827    1.417   .     A
C823   N846    1.388   .     A
C824   N845    1.395   .     A
C824   C828    1.419   .     A
C824   S877    1.785   .     S
C825   S878    1.783   .     S
C825   N846    1.388   .     A
C826   O864    1.383   .     S
C827   O865    1.381   .     S
C828   O866    1.383   .     S
H830   O861    0.992   .     S
H831   O862    0.991   .     S
H832   O863    0.992   .     S
H833   O864    0.990   .     S
H834   O865    0.990   .     S
H835   O866    0.990   .     S
H836   O867    0.990   .     S
H840   O849    0.991   .     S
H841   O852    0.991   .     S
H842   O855    0.991   .     S
H843   O859    0.991   .     S
H844   O860    0.992   .     S
N845   Zn880   2.028   .     S
N846   Zn879   2.028   .     S
O847   Zn879   2.005   .     S
O848   S875    1.504   .     D
O849   S875    1.672   .     S
O850   S876    1.503   .     D
O851   S876    1.499   .     D
O852   S876    1.676   .     S
O853   S877    1.496   .     D
O854   S877    1.504   .     D
O855   S877    1.672   .     S
O856   S878    1.503   .     D
O857   S878    1.499   .     D
O858   Zn880   2.005   .     S
O859   S878    1.675   .     S
O868   Zn879   2.004   .     S
O869   Zn880   2.004   .     S
O870   Zn879   1.960   .     S
O871   Zn880   1.960   .     S
O872   Zn879   1.958   .     S
O873   Zn880   1.958   .     S
O874   S875    1.495   .     D
C881   C898    1.456   .     S
C881   O927    1.297   .     A
C881   O949    1.301   .     A
C882   C905    1.417   .     A
C882   C886    1.414   .     A
C882   O947    1.381   .     S
C883   C887    1.374   .     S
C883   O950    1.286   .     A
C883   O953    1.286   .     A
C884   C888    1.374   .     S
C884   O952    1.285   .     A
C884   O951    1.287   .     A
C885   C908    1.410   .     A
C885   C906    1.410   .     A
C886   C907    1.414   .     A
C886   C725    1.523   1_565 S
C888   C247    1.170   1_556 S
C889   C894    1.373   .     A
C889   C900    1.395   .     A
C889   H909    1.084   .     S
C890   H917    1.083   .     S
C890   C895    1.395   .     A
C890   C901    1.395   .     A
C891   C901    1.393   .     A
C891   H918    1.084   .     S
C891   C896    1.376   .     A
C892   O948    1.300   .     A
C892   O938    1.303   .     A
C892   C899    1.462   .     S
C893   C900    1.395   .     A
C893   C897    1.397   .     A
C893   H919    1.084   .     S
C894   C898    1.413   .     A
C894   O940    1.372   .     S
C895   C899    1.416   .     A
C895   O941    1.383   .     S
C896   C899    1.418   .     A
C896   O942    1.375   .     S
C897   C898    1.415   .     A
C897   O943    1.383   .     S
C901   C820    1.451   1_655 S
C902   S955    1.789   .     S
C902   N925    1.396   .     A
C902   C906    1.419   .     A
C903   S956    1.784   .     S
C903   C907    1.417   .     A
C903   N926    1.388   .     A
C904   N925    1.395   .     A
C904   C908    1.419   .     A
C904   S957    1.785   .     S
C905   S958    1.783   .     S
C905   N926    1.388   .     A
C906   O944    1.383   .     S
C907   O945    1.381   .     S
C908   O946    1.383   .     S
H910   O941    0.992   .     S
H911   O942    0.991   .     S
H912   O943    0.992   .     S
H913   O944    0.990   .     S
H914   O945    0.990   .     S
H915   O946    0.990   .     S
H916   O947    0.990   .     S
H920   O929    0.991   .     S
H921   O932    0.991   .     S
H922   O935    0.991   .     S
H923   O939    0.991   .     S
H924   O940    0.992   .     S
N925   Zn960   2.028   .     S
N926   Zn959   2.028   .     S
O927   Zn959   2.005   .     S
O928   S955    1.504   .     D
O929   S955    1.672   .     S
O930   S956    1.503   .     D
O931   S956    1.499   .     D
O932   S956    1.676   .     S
O933   S957    1.496   .     D
O934   S957    1.504   .     D
O935   S957    1.672   .     S
O936   S958    1.503   .     D
O937   S958    1.499   .     D
O938   Zn960   2.005   .     S
O939   S958    1.675   .     S
O948   Zn959   2.004   .     S
O949   Zn960   2.004   .     S
O950   Zn959   1.960   .     S
O951   Zn960   1.960   .     S
O952   Zn959   1.958   .     S
O953   Zn960   1.958   .     S
O954   S955    1.495   .     D
