data_str_m3_o1_o18_pcu_sym.126
_audit_creation_date              2020-01-03
_audit_creation_method            'Materials Studio'
_symmetry_space_group_name_H-M    'P1'
_symmetry_Int_Tables_number       1
_symmetry_cell_setting            triclinic
loop_
_symmetry_equiv_pos_as_xyz
  x,y,z
_cell_length_a                    30.0758
_cell_length_b                    31.7979
_cell_length_c                    30.7426
_cell_angle_alpha                 93.1494
_cell_angle_beta                  67.2018
_cell_angle_gamma                 88.2676
loop_
_atom_site_label
_atom_site_type_symbol
_atom_site_fract_x
_atom_site_fract_y
_atom_site_fract_z
_atom_site_U_iso_or_equiv
_atom_site_adp_type
_atom_site_occupancy
C1     C     0.16599   0.24649   0.25053   0.00000  Uiso   1.00
C2     C     0.16737   0.08684   0.24942   0.00000  Uiso   1.00
C3     C     0.16331   0.22680   0.02132   0.00000  Uiso   1.00
C4     C     0.22608   0.13065   0.44457   0.00000  Uiso   1.00
C5     C     0.13257   0.24108   0.00011   0.00000  Uiso   1.00
C6     C     0.24920   0.11297   0.47215   0.00000  Uiso   1.00
C7     C     0.18309   0.31295   0.28059   0.00000  Uiso   1.00
C8     C     0.15034   0.02037   0.21930   0.00000  Uiso   1.00
C9     C     0.18446   0.02264   0.27961   0.00000  Uiso   1.00
C10    C     0.14881   0.31069   0.22039   0.00000  Uiso   1.00
C11    C     0.16822   0.04258   0.24889   0.00000  Uiso   1.00
C12    C     0.16516   0.29075   0.25103   0.00000  Uiso   1.00
C13    C     0.31990   0.13310   0.22858   0.00000  Uiso   1.00
C14    C     0.01359   0.20033   0.27122   0.00000  Uiso   1.00
C15    C     0.03358   0.13303   0.23042   0.00000  Uiso   1.00
C16    C     0.29968   0.19988   0.27074   0.00000  Uiso   1.00
C17    C     0.13607   0.16588   0.33827   0.00000  Uiso   1.00
C18    C     0.19752   0.16710   0.16169   0.00000  Uiso   1.00
C19    C     0.11689   0.16812   0.39028   0.00000  Uiso   1.00
C20    C     0.21873   0.16397   0.10962   0.00000  Uiso   1.00
C21    C     0.08462   0.22310   0.45276   0.00000  Uiso   1.00
C22    C     0.27398   0.12365   0.03966   0.00000  Uiso   1.00
C23    C     0.07878   0.19666   0.41721   0.00000  Uiso   1.00
C24    C     0.26582   0.14625   0.08319   0.00000  Uiso   1.00
C25    C     0.14753   0.15319   0.41065   0.00000  Uiso   1.00
C26    C     0.18965   0.17435   0.08541   0.00000  Uiso   1.00
C27    C     0.15461   0.17713   0.44674   0.00000  Uiso   1.00
C28    C     0.20654   0.16534   0.03646   0.00000  Uiso   1.00
C29    C     0.12409   0.21442   0.46624   0.00000  Uiso   1.00
C30    C     0.24288   0.13291   0.01617   0.00000  Uiso   1.00
C31    C     0.18915   0.16415   0.46548   0.00000  Uiso   1.00
C32    C     0.18521   0.18511   0.00888   0.00000  Uiso   1.00
H33    H     0.15447   0.19024   0.10434   0.00000  Uiso   1.00
H34    H     0.16656   0.12361   0.39591   0.00000  Uiso   1.00
H35    H     0.19544   0.29706   0.30449   0.00000  Uiso   1.00
H36    H     0.13806   0.03625   0.19534   0.00000  Uiso   1.00
H37    H     0.19717   0.04038   0.30317   0.00000  Uiso   1.00
H38    H     0.13579   0.29296   0.19707   0.00000  Uiso   1.00
N39    N     0.04759   0.16668   0.25001   0.00000  Uiso   1.00
N40    N     0.28574   0.16666   0.24999   0.00000  Uiso   1.00
O41    O     0.12846   0.22775   0.25000   0.00000  Uiso   1.00
O42    O     0.20488   0.10558   0.24999   0.00000  Uiso   1.00
O43    O     0.20490   0.22774   0.25000   0.00000  Uiso   1.00
O44    O     0.12843   0.10559   0.25000   0.00000  Uiso   1.00
O45    O     0.10661   0.16667   0.31612   0.00000  Uiso   1.00
O46    O     0.22672   0.16666   0.18387   0.00000  Uiso   1.00
O47    O     0.18305   0.16666   0.31612   0.00000  Uiso   1.00
O48    O     0.15028   0.16667   0.18388   0.00000  Uiso   1.00
Zn49   Zn    0.11562   0.16667   0.25000   0.00000  Uiso   1.00
Zn50   Zn    0.21771   0.16666   0.25000   0.00000  Uiso   1.00
O51    O     0.11164   0.28146   0.01291   0.00000  Uiso   1.00
H52    H     0.11363   0.29431   0.48359   0.00000  Uiso   1.00
O53    O     0.27845   0.07631   0.45655   0.00000  Uiso   1.00
H54    H     0.26815   0.05946   0.43437   0.00000  Uiso   1.00
S55    S     0.31668   0.16757   0.09079   0.00000  Uiso   1.00
O56    O     0.01125   0.13436   0.10413   0.00000  Uiso   1.00
O57    O     0.01611   0.18292   0.04449   0.00000  Uiso   1.00
O58    O     0.30031   0.20863   0.13171   0.00000  Uiso   1.00
H59    H     0.33015   0.21520   0.13651   0.00000  Uiso   1.00
S60    S     0.02024   0.18094   0.42576   0.00000  Uiso   1.00
O61    O     0.00798   0.18916   0.38411   0.00000  Uiso   1.00
O62    O     0.02050   0.13427   0.43067   0.00000  Uiso   1.00
O63    O     0.31085   0.20499   0.47497   0.00000  Uiso   1.00
H64    H     0.28888   0.22106   0.46405   0.00000  Uiso   1.00
O65    O     0.05027   0.25491   0.47716   0.00000  Uiso   1.00
H66    H     0.03355   0.26355   0.45663   0.00000  Uiso   1.00
O67    O     0.31461   0.09696   0.01737   0.00000  Uiso   1.00
H68    H     0.32823   0.08963   0.04076   0.00000  Uiso   1.00
S69    S     0.18104   0.26514   0.05554   0.00000  Uiso   1.00
O70    O     0.22925   0.25271   0.05649   0.00000  Uiso   1.00
O71    O     0.18498   0.30728   0.03479   0.00000  Uiso   1.00
O72    O     0.13924   0.27024   0.11121   0.00000  Uiso   1.00
H73    H     0.10892   0.27959   0.10818   0.00000  Uiso   1.00
S74    S     0.25662   0.11988   0.38192   0.00000  Uiso   1.00
O75    O     0.24989   0.15723   0.35699   0.00000  Uiso   1.00
O76    O     0.30980   0.11115   0.36865   0.00000  Uiso   1.00
O77    O     0.23543   0.07685   0.36387   0.00000  Uiso   1.00
H78    H     0.25714   0.07092   0.33020   0.00000  Uiso   1.00
S79    S     0.30872   0.08783   0.19774   0.00000  Uiso   1.00
O80    O     0.28725   0.05545   0.23271   0.00000  Uiso   1.00
O81    O     0.27591   0.09746   0.17296   0.00000  Uiso   1.00
O82    O     0.02733   0.06644   0.15597   0.00000  Uiso   1.00
H83    H     0.01873   0.03924   0.14485   0.00000  Uiso   1.00
S84    S     0.02534   0.24707   0.29969   0.00000  Uiso   1.00
O85    O     0.05853   0.23926   0.32458   0.00000  Uiso   1.00
O86    O     0.04669   0.27780   0.26267   0.00000  Uiso   1.00
O87    O     0.30743   0.27004   0.34103   0.00000  Uiso   1.00
H88    H     0.31657   0.29787   0.35001   0.00000  Uiso   1.00
O89    O     0.06609   0.09905   0.21238   0.00000  Uiso   1.00
H90    H     0.04898   0.07376   0.22607   0.00000  Uiso   1.00
O91    O     0.26781   0.23385   0.29153   0.00000  Uiso   1.00
H92    H     0.23614   0.22261   0.30933   0.00000  Uiso   1.00
C93    C     0.49933   0.24649   0.25053   0.00000  Uiso   1.00
C94    C     0.50070   0.08684   0.24942   0.00000  Uiso   1.00
C95    C     0.49664   0.22680   0.02132   0.00000  Uiso   1.00
C96    C     0.55942   0.13065   0.44457   0.00000  Uiso   1.00
C97    C     0.46590   0.24108   0.00011   0.00000  Uiso   1.00
C98    C     0.58253   0.11297   0.47215   0.00000  Uiso   1.00
C99    C     0.51642   0.31295   0.28059   0.00000  Uiso   1.00
C100   C     0.48368   0.02037   0.21930   0.00000  Uiso   1.00
C101   C     0.51780   0.02264   0.27961   0.00000  Uiso   1.00
C102   C     0.48214   0.31069   0.22039   0.00000  Uiso   1.00
C103   C     0.50156   0.04258   0.24889   0.00000  Uiso   1.00
C104   C     0.49849   0.29075   0.25103   0.00000  Uiso   1.00
C105   C     0.65324   0.13310   0.22858   0.00000  Uiso   1.00
C106   C     0.34693   0.20033   0.27122   0.00000  Uiso   1.00
C107   C     0.36692   0.13303   0.23042   0.00000  Uiso   1.00
C108   C     0.63301   0.19988   0.27074   0.00000  Uiso   1.00
C109   C     0.46940   0.16588   0.33827   0.00000  Uiso   1.00
C110   C     0.53085   0.16710   0.16169   0.00000  Uiso   1.00
C111   C     0.45023   0.16812   0.39028   0.00000  Uiso   1.00
C112   C     0.55206   0.16397   0.10962   0.00000  Uiso   1.00
C113   C     0.41796   0.22310   0.45276   0.00000  Uiso   1.00
C114   C     0.60731   0.12365   0.03966   0.00000  Uiso   1.00
C115   C     0.41212   0.19666   0.41721   0.00000  Uiso   1.00
C116   C     0.59916   0.14625   0.08319   0.00000  Uiso   1.00
C117   C     0.48086   0.15319   0.41065   0.00000  Uiso   1.00
C118   C     0.52299   0.17435   0.08541   0.00000  Uiso   1.00
C119   C     0.48794   0.17713   0.44674   0.00000  Uiso   1.00
C120   C     0.53987   0.16534   0.03646   0.00000  Uiso   1.00
C121   C     0.45742   0.21442   0.46624   0.00000  Uiso   1.00
C122   C     0.57621   0.13291   0.01617   0.00000  Uiso   1.00
C123   C     0.52248   0.16415   0.46548   0.00000  Uiso   1.00
C124   C     0.51854   0.18511   0.00888   0.00000  Uiso   1.00
H125   H     0.48780   0.19024   0.10434   0.00000  Uiso   1.00
H126   H     0.49990   0.12361   0.39591   0.00000  Uiso   1.00
H127   H     0.52878   0.29706   0.30449   0.00000  Uiso   1.00
H128   H     0.47140   0.03625   0.19534   0.00000  Uiso   1.00
H129   H     0.53051   0.04038   0.30317   0.00000  Uiso   1.00
H130   H     0.46912   0.29296   0.19707   0.00000  Uiso   1.00
N131   N     0.38093   0.16668   0.25001   0.00000  Uiso   1.00
N132   N     0.61907   0.16666   0.24999   0.00000  Uiso   1.00
O133   O     0.46179   0.22775   0.25000   0.00000  Uiso   1.00
O134   O     0.53821   0.10558   0.24999   0.00000  Uiso   1.00
O135   O     0.53823   0.22774   0.25000   0.00000  Uiso   1.00
O136   O     0.46177   0.10559   0.25000   0.00000  Uiso   1.00
O137   O     0.43994   0.16667   0.31612   0.00000  Uiso   1.00
O138   O     0.56006   0.16666   0.18387   0.00000  Uiso   1.00
O139   O     0.51639   0.16666   0.31612   0.00000  Uiso   1.00
O140   O     0.48361   0.16667   0.18388   0.00000  Uiso   1.00
Zn141  Zn    0.44896   0.16667   0.25000   0.00000  Uiso   1.00
Zn142  Zn    0.55104   0.16666   0.25000   0.00000  Uiso   1.00
O143   O     0.44498   0.28146   0.01291   0.00000  Uiso   1.00
H144   H     0.44696   0.29431   0.48359   0.00000  Uiso   1.00
O145   O     0.61178   0.07631   0.45655   0.00000  Uiso   1.00
H146   H     0.60148   0.05946   0.43437   0.00000  Uiso   1.00
S147   S     0.65002   0.16757   0.09079   0.00000  Uiso   1.00
O148   O     0.34459   0.13436   0.10413   0.00000  Uiso   1.00
O149   O     0.34945   0.18292   0.04449   0.00000  Uiso   1.00
O150   O     0.63365   0.20863   0.13171   0.00000  Uiso   1.00
H151   H     0.66349   0.21520   0.13651   0.00000  Uiso   1.00
S152   S     0.35357   0.18094   0.42576   0.00000  Uiso   1.00
O153   O     0.34131   0.18916   0.38411   0.00000  Uiso   1.00
O154   O     0.35383   0.13427   0.43067   0.00000  Uiso   1.00
O155   O     0.64419   0.20499   0.47497   0.00000  Uiso   1.00
H156   H     0.62221   0.22106   0.46405   0.00000  Uiso   1.00
O157   O     0.38360   0.25491   0.47716   0.00000  Uiso   1.00
H158   H     0.36688   0.26355   0.45663   0.00000  Uiso   1.00
O159   O     0.64794   0.09696   0.01737   0.00000  Uiso   1.00
H160   H     0.66157   0.08963   0.04076   0.00000  Uiso   1.00
S161   S     0.51438   0.26514   0.05554   0.00000  Uiso   1.00
O162   O     0.56258   0.25271   0.05649   0.00000  Uiso   1.00
O163   O     0.51831   0.30728   0.03479   0.00000  Uiso   1.00
O164   O     0.47258   0.27024   0.11121   0.00000  Uiso   1.00
H165   H     0.44226   0.27959   0.10818   0.00000  Uiso   1.00
S166   S     0.58995   0.11988   0.38192   0.00000  Uiso   1.00
O167   O     0.58322   0.15723   0.35699   0.00000  Uiso   1.00
O168   O     0.64313   0.11115   0.36865   0.00000  Uiso   1.00
O169   O     0.56877   0.07685   0.36387   0.00000  Uiso   1.00
H170   H     0.59047   0.07092   0.33020   0.00000  Uiso   1.00
S171   S     0.64206   0.08783   0.19774   0.00000  Uiso   1.00
O172   O     0.62058   0.05545   0.23271   0.00000  Uiso   1.00
O173   O     0.60924   0.09746   0.17296   0.00000  Uiso   1.00
O174   O     0.36066   0.06644   0.15597   0.00000  Uiso   1.00
H175   H     0.35206   0.03924   0.14485   0.00000  Uiso   1.00
S176   S     0.35867   0.24707   0.29969   0.00000  Uiso   1.00
O177   O     0.39186   0.23926   0.32458   0.00000  Uiso   1.00
O178   O     0.38002   0.27780   0.26267   0.00000  Uiso   1.00
O179   O     0.64077   0.27004   0.34103   0.00000  Uiso   1.00
H180   H     0.64990   0.29787   0.35001   0.00000  Uiso   1.00
O181   O     0.39942   0.09905   0.21238   0.00000  Uiso   1.00
H182   H     0.38231   0.07376   0.22607   0.00000  Uiso   1.00
O183   O     0.60114   0.23385   0.29153   0.00000  Uiso   1.00
H184   H     0.56947   0.22261   0.30933   0.00000  Uiso   1.00
C185   C     0.83266   0.24649   0.25053   0.00000  Uiso   1.00
C186   C     0.83403   0.08684   0.24942   0.00000  Uiso   1.00
C187   C     0.82998   0.22680   0.02132   0.00000  Uiso   1.00
C188   C     0.89275   0.13065   0.44457   0.00000  Uiso   1.00
C189   C     0.79923   0.24108   0.00011   0.00000  Uiso   1.00
C190   C     0.91587   0.11297   0.47215   0.00000  Uiso   1.00
C191   C     0.84975   0.31295   0.28059   0.00000  Uiso   1.00
C192   C     0.81701   0.02037   0.21930   0.00000  Uiso   1.00
C193   C     0.85113   0.02264   0.27961   0.00000  Uiso   1.00
C194   C     0.81548   0.31069   0.22039   0.00000  Uiso   1.00
C195   C     0.83489   0.04258   0.24889   0.00000  Uiso   1.00
C196   C     0.83182   0.29075   0.25103   0.00000  Uiso   1.00
C197   C     0.98657   0.13310   0.22858   0.00000  Uiso   1.00
C198   C     0.68026   0.20033   0.27122   0.00000  Uiso   1.00
C199   C     0.70025   0.13303   0.23042   0.00000  Uiso   1.00
C200   C     0.96634   0.19988   0.27074   0.00000  Uiso   1.00
C201   C     0.80274   0.16588   0.33827   0.00000  Uiso   1.00
C202   C     0.86419   0.16710   0.16169   0.00000  Uiso   1.00
C203   C     0.78356   0.16812   0.39028   0.00000  Uiso   1.00
C204   C     0.88539   0.16397   0.10962   0.00000  Uiso   1.00
C205   C     0.75129   0.22310   0.45276   0.00000  Uiso   1.00
C206   C     0.94065   0.12365   0.03966   0.00000  Uiso   1.00
C207   C     0.74545   0.19666   0.41721   0.00000  Uiso   1.00
C208   C     0.93249   0.14625   0.08319   0.00000  Uiso   1.00
C209   C     0.81419   0.15319   0.41065   0.00000  Uiso   1.00
C210   C     0.85632   0.17435   0.08541   0.00000  Uiso   1.00
C211   C     0.82128   0.17713   0.44674   0.00000  Uiso   1.00
C212   C     0.87321   0.16534   0.03646   0.00000  Uiso   1.00
C213   C     0.79075   0.21442   0.46624   0.00000  Uiso   1.00
C214   C     0.90955   0.13291   0.01617   0.00000  Uiso   1.00
C215   C     0.85581   0.16415   0.46548   0.00000  Uiso   1.00
C216   C     0.85187   0.18511   0.00888   0.00000  Uiso   1.00
H217   H     0.82114   0.19024   0.10434   0.00000  Uiso   1.00
H218   H     0.83323   0.12361   0.39591   0.00000  Uiso   1.00
H219   H     0.86211   0.29706   0.30449   0.00000  Uiso   1.00
H220   H     0.80473   0.03625   0.19534   0.00000  Uiso   1.00
H221   H     0.86384   0.04038   0.30317   0.00000  Uiso   1.00
H222   H     0.80245   0.29296   0.19707   0.00000  Uiso   1.00
N223   N     0.71426   0.16668   0.25001   0.00000  Uiso   1.00
N224   N     0.95241   0.16666   0.24999   0.00000  Uiso   1.00
O225   O     0.79512   0.22775   0.25000   0.00000  Uiso   1.00
O226   O     0.87154   0.10558   0.24999   0.00000  Uiso   1.00
O227   O     0.87157   0.22774   0.25000   0.00000  Uiso   1.00
O228   O     0.79510   0.10559   0.25000   0.00000  Uiso   1.00
O229   O     0.77328   0.16667   0.31612   0.00000  Uiso   1.00
O230   O     0.89339   0.16666   0.18387   0.00000  Uiso   1.00
O231   O     0.84972   0.16666   0.31612   0.00000  Uiso   1.00
O232   O     0.81695   0.16667   0.18388   0.00000  Uiso   1.00
Zn233  Zn    0.78229   0.16667   0.25000   0.00000  Uiso   1.00
Zn234  Zn    0.88438   0.16666   0.25000   0.00000  Uiso   1.00
O235   O     0.77831   0.28146   0.01291   0.00000  Uiso   1.00
H236   H     0.78029   0.29431   0.48359   0.00000  Uiso   1.00
O237   O     0.94511   0.07631   0.45655   0.00000  Uiso   1.00
H238   H     0.93481   0.05946   0.43437   0.00000  Uiso   1.00
S239   S     0.98335   0.16757   0.09079   0.00000  Uiso   1.00
O240   O     0.67792   0.13436   0.10413   0.00000  Uiso   1.00
O241   O     0.68278   0.18292   0.04449   0.00000  Uiso   1.00
O242   O     0.96698   0.20863   0.13171   0.00000  Uiso   1.00
H243   H     0.99682   0.21520   0.13651   0.00000  Uiso   1.00
S244   S     0.68691   0.18094   0.42576   0.00000  Uiso   1.00
O245   O     0.67464   0.18916   0.38411   0.00000  Uiso   1.00
O246   O     0.68716   0.13427   0.43067   0.00000  Uiso   1.00
O247   O     0.97752   0.20499   0.47497   0.00000  Uiso   1.00
H248   H     0.95555   0.22106   0.46405   0.00000  Uiso   1.00
O249   O     0.71694   0.25491   0.47716   0.00000  Uiso   1.00
H250   H     0.70021   0.26355   0.45663   0.00000  Uiso   1.00
O251   O     0.98127   0.09696   0.01737   0.00000  Uiso   1.00
H252   H     0.99490   0.08963   0.04076   0.00000  Uiso   1.00
S253   S     0.84771   0.26514   0.05554   0.00000  Uiso   1.00
O254   O     0.89591   0.25271   0.05649   0.00000  Uiso   1.00
O255   O     0.85164   0.30728   0.03479   0.00000  Uiso   1.00
O256   O     0.80591   0.27024   0.11121   0.00000  Uiso   1.00
H257   H     0.77559   0.27959   0.10818   0.00000  Uiso   1.00
S258   S     0.92329   0.11988   0.38192   0.00000  Uiso   1.00
O259   O     0.91655   0.15723   0.35699   0.00000  Uiso   1.00
O260   O     0.97647   0.11115   0.36865   0.00000  Uiso   1.00
O261   O     0.90210   0.07685   0.36387   0.00000  Uiso   1.00
H262   H     0.92380   0.07092   0.33020   0.00000  Uiso   1.00
S263   S     0.97539   0.08783   0.19774   0.00000  Uiso   1.00
O264   O     0.95392   0.05545   0.23271   0.00000  Uiso   1.00
O265   O     0.94258   0.09746   0.17296   0.00000  Uiso   1.00
O266   O     0.69400   0.06644   0.15597   0.00000  Uiso   1.00
H267   H     0.68539   0.03924   0.14485   0.00000  Uiso   1.00
S268   S     0.69201   0.24707   0.29969   0.00000  Uiso   1.00
O269   O     0.72520   0.23926   0.32458   0.00000  Uiso   1.00
O270   O     0.71336   0.27780   0.26267   0.00000  Uiso   1.00
O271   O     0.97410   0.27004   0.34103   0.00000  Uiso   1.00
H272   H     0.98323   0.29787   0.35001   0.00000  Uiso   1.00
O273   O     0.73276   0.09905   0.21238   0.00000  Uiso   1.00
H274   H     0.71565   0.07376   0.22607   0.00000  Uiso   1.00
O275   O     0.93447   0.23385   0.29153   0.00000  Uiso   1.00
H276   H     0.90280   0.22261   0.30933   0.00000  Uiso   1.00
C277   C     0.16599   0.57982   0.25053   0.00000  Uiso   1.00
C278   C     0.16737   0.42017   0.24942   0.00000  Uiso   1.00
C279   C     0.16331   0.56013   0.02132   0.00000  Uiso   1.00
C280   C     0.22608   0.46399   0.44457   0.00000  Uiso   1.00
C281   C     0.13257   0.57442   0.00011   0.00000  Uiso   1.00
C282   C     0.24920   0.44630   0.47215   0.00000  Uiso   1.00
C283   C     0.18309   0.64628   0.28059   0.00000  Uiso   1.00
C284   C     0.15034   0.35370   0.21930   0.00000  Uiso   1.00
C285   C     0.18446   0.35597   0.27961   0.00000  Uiso   1.00
C286   C     0.14881   0.64402   0.22039   0.00000  Uiso   1.00
C287   C     0.16822   0.37591   0.24889   0.00000  Uiso   1.00
C288   C     0.16516   0.62408   0.25103   0.00000  Uiso   1.00
C289   C     0.31990   0.46643   0.22858   0.00000  Uiso   1.00
C290   C     0.01359   0.53366   0.27122   0.00000  Uiso   1.00
C291   C     0.03358   0.46637   0.23042   0.00000  Uiso   1.00
C292   C     0.29968   0.53321   0.27074   0.00000  Uiso   1.00
C293   C     0.13607   0.49921   0.33827   0.00000  Uiso   1.00
C294   C     0.19752   0.50043   0.16169   0.00000  Uiso   1.00
C295   C     0.11689   0.50145   0.39028   0.00000  Uiso   1.00
C296   C     0.21873   0.49730   0.10962   0.00000  Uiso   1.00
C297   C     0.08462   0.55644   0.45276   0.00000  Uiso   1.00
C298   C     0.27398   0.45698   0.03966   0.00000  Uiso   1.00
C299   C     0.07878   0.53000   0.41721   0.00000  Uiso   1.00
C300   C     0.26582   0.47959   0.08319   0.00000  Uiso   1.00
C301   C     0.14753   0.48653   0.41065   0.00000  Uiso   1.00
C302   C     0.18965   0.50769   0.08541   0.00000  Uiso   1.00
C303   C     0.15461   0.51046   0.44674   0.00000  Uiso   1.00
C304   C     0.20654   0.49868   0.03646   0.00000  Uiso   1.00
C305   C     0.12409   0.54775   0.46624   0.00000  Uiso   1.00
C306   C     0.24288   0.46624   0.01617   0.00000  Uiso   1.00
C307   C     0.18915   0.49748   0.46548   0.00000  Uiso   1.00
C308   C     0.18521   0.51844   0.00888   0.00000  Uiso   1.00
H309   H     0.15447   0.52357   0.10434   0.00000  Uiso   1.00
H310   H     0.16656   0.45695   0.39591   0.00000  Uiso   1.00
H311   H     0.19544   0.63039   0.30449   0.00000  Uiso   1.00
H312   H     0.13806   0.36958   0.19534   0.00000  Uiso   1.00
H313   H     0.19717   0.37371   0.30317   0.00000  Uiso   1.00
H314   H     0.13579   0.62629   0.19707   0.00000  Uiso   1.00
N315   N     0.04759   0.50001   0.25001   0.00000  Uiso   1.00
N316   N     0.28574   0.49999   0.24999   0.00000  Uiso   1.00
O317   O     0.12846   0.56108   0.25000   0.00000  Uiso   1.00
O318   O     0.20488   0.43892   0.24999   0.00000  Uiso   1.00
O319   O     0.20490   0.56107   0.25000   0.00000  Uiso   1.00
O320   O     0.12843   0.43893   0.25000   0.00000  Uiso   1.00
O321   O     0.10661   0.50001   0.31612   0.00000  Uiso   1.00
O322   O     0.22672   0.49999   0.18387   0.00000  Uiso   1.00
O323   O     0.18305   0.50000   0.31612   0.00000  Uiso   1.00
O324   O     0.15028   0.50000   0.18388   0.00000  Uiso   1.00
Zn325  Zn    0.11562   0.50001   0.25000   0.00000  Uiso   1.00
Zn326  Zn    0.21771   0.49999   0.25000   0.00000  Uiso   1.00
O327   O     0.11164   0.61479   0.01291   0.00000  Uiso   1.00
H328   H     0.11363   0.62764   0.48359   0.00000  Uiso   1.00
O329   O     0.27845   0.40965   0.45655   0.00000  Uiso   1.00
H330   H     0.26815   0.39280   0.43437   0.00000  Uiso   1.00
S331   S     0.31668   0.50091   0.09079   0.00000  Uiso   1.00
O332   O     0.01125   0.46770   0.10413   0.00000  Uiso   1.00
O333   O     0.01611   0.51626   0.04449   0.00000  Uiso   1.00
O334   O     0.30031   0.54197   0.13171   0.00000  Uiso   1.00
H335   H     0.33015   0.54853   0.13651   0.00000  Uiso   1.00
S336   S     0.02024   0.51427   0.42576   0.00000  Uiso   1.00
O337   O     0.00798   0.52250   0.38411   0.00000  Uiso   1.00
O338   O     0.02050   0.46761   0.43067   0.00000  Uiso   1.00
O339   O     0.31085   0.53832   0.47497   0.00000  Uiso   1.00
H340   H     0.28888   0.55439   0.46405   0.00000  Uiso   1.00
O341   O     0.05027   0.58825   0.47716   0.00000  Uiso   1.00
H342   H     0.03355   0.59689   0.45663   0.00000  Uiso   1.00
O343   O     0.31461   0.43029   0.01737   0.00000  Uiso   1.00
H344   H     0.32823   0.42296   0.04076   0.00000  Uiso   1.00
S345   S     0.18104   0.59848   0.05554   0.00000  Uiso   1.00
O346   O     0.22925   0.58604   0.05649   0.00000  Uiso   1.00
O347   O     0.18498   0.64062   0.03479   0.00000  Uiso   1.00
O348   O     0.13924   0.60357   0.11121   0.00000  Uiso   1.00
H349   H     0.10892   0.61292   0.10818   0.00000  Uiso   1.00
S350   S     0.25662   0.45321   0.38192   0.00000  Uiso   1.00
O351   O     0.24989   0.49056   0.35699   0.00000  Uiso   1.00
O352   O     0.30980   0.44448   0.36865   0.00000  Uiso   1.00
O353   O     0.23543   0.41018   0.36387   0.00000  Uiso   1.00
H354   H     0.25714   0.40426   0.33020   0.00000  Uiso   1.00
S355   S     0.30872   0.42116   0.19774   0.00000  Uiso   1.00
O356   O     0.28725   0.38878   0.23271   0.00000  Uiso   1.00
O357   O     0.27591   0.43080   0.17296   0.00000  Uiso   1.00
O358   O     0.02733   0.39978   0.15597   0.00000  Uiso   1.00
H359   H     0.01873   0.37258   0.14485   0.00000  Uiso   1.00
S360   S     0.02534   0.58040   0.29969   0.00000  Uiso   1.00
O361   O     0.05853   0.57260   0.32458   0.00000  Uiso   1.00
O362   O     0.04669   0.61113   0.26267   0.00000  Uiso   1.00
O363   O     0.30743   0.60337   0.34103   0.00000  Uiso   1.00
H364   H     0.31657   0.63121   0.35001   0.00000  Uiso   1.00
O365   O     0.06609   0.43239   0.21238   0.00000  Uiso   1.00
H366   H     0.04898   0.40710   0.22607   0.00000  Uiso   1.00
O367   O     0.26781   0.56719   0.29153   0.00000  Uiso   1.00
H368   H     0.23614   0.55595   0.30933   0.00000  Uiso   1.00
C369   C     0.49933   0.57982   0.25053   0.00000  Uiso   1.00
C370   C     0.50070   0.42017   0.24942   0.00000  Uiso   1.00
C371   C     0.49664   0.56013   0.02132   0.00000  Uiso   1.00
C372   C     0.55942   0.46399   0.44457   0.00000  Uiso   1.00
C373   C     0.46590   0.57442   0.00011   0.00000  Uiso   1.00
C374   C     0.58253   0.44630   0.47215   0.00000  Uiso   1.00
C375   C     0.51642   0.64628   0.28059   0.00000  Uiso   1.00
C376   C     0.48368   0.35370   0.21930   0.00000  Uiso   1.00
C377   C     0.51780   0.35597   0.27961   0.00000  Uiso   1.00
C378   C     0.48214   0.64402   0.22039   0.00000  Uiso   1.00
C379   C     0.50156   0.37591   0.24889   0.00000  Uiso   1.00
C380   C     0.49849   0.62408   0.25103   0.00000  Uiso   1.00
C381   C     0.65324   0.46643   0.22858   0.00000  Uiso   1.00
C382   C     0.34693   0.53366   0.27122   0.00000  Uiso   1.00
C383   C     0.36692   0.46637   0.23042   0.00000  Uiso   1.00
C384   C     0.63301   0.53321   0.27074   0.00000  Uiso   1.00
C385   C     0.46940   0.49921   0.33827   0.00000  Uiso   1.00
C386   C     0.53085   0.50043   0.16169   0.00000  Uiso   1.00
C387   C     0.45023   0.50145   0.39028   0.00000  Uiso   1.00
C388   C     0.55206   0.49730   0.10962   0.00000  Uiso   1.00
C389   C     0.41796   0.55644   0.45276   0.00000  Uiso   1.00
C390   C     0.60731   0.45698   0.03966   0.00000  Uiso   1.00
C391   C     0.41212   0.53000   0.41721   0.00000  Uiso   1.00
C392   C     0.59916   0.47959   0.08319   0.00000  Uiso   1.00
C393   C     0.48086   0.48653   0.41065   0.00000  Uiso   1.00
C394   C     0.52299   0.50769   0.08541   0.00000  Uiso   1.00
C395   C     0.48794   0.51046   0.44674   0.00000  Uiso   1.00
C396   C     0.53987   0.49868   0.03646   0.00000  Uiso   1.00
C397   C     0.45742   0.54775   0.46624   0.00000  Uiso   1.00
C398   C     0.57621   0.46624   0.01617   0.00000  Uiso   1.00
C399   C     0.52248   0.49748   0.46548   0.00000  Uiso   1.00
C400   C     0.51854   0.51844   0.00888   0.00000  Uiso   1.00
H401   H     0.48780   0.52357   0.10434   0.00000  Uiso   1.00
H402   H     0.49990   0.45695   0.39591   0.00000  Uiso   1.00
H403   H     0.52878   0.63039   0.30449   0.00000  Uiso   1.00
H404   H     0.47140   0.36958   0.19534   0.00000  Uiso   1.00
H405   H     0.53051   0.37371   0.30317   0.00000  Uiso   1.00
H406   H     0.46912   0.62629   0.19707   0.00000  Uiso   1.00
N407   N     0.38093   0.50001   0.25001   0.00000  Uiso   1.00
N408   N     0.61907   0.49999   0.24999   0.00000  Uiso   1.00
O409   O     0.46179   0.56108   0.25000   0.00000  Uiso   1.00
O410   O     0.53821   0.43892   0.24999   0.00000  Uiso   1.00
O411   O     0.53823   0.56107   0.25000   0.00000  Uiso   1.00
O412   O     0.46177   0.43893   0.25000   0.00000  Uiso   1.00
O413   O     0.43994   0.50001   0.31612   0.00000  Uiso   1.00
O414   O     0.56006   0.49999   0.18387   0.00000  Uiso   1.00
O415   O     0.51639   0.50000   0.31612   0.00000  Uiso   1.00
O416   O     0.48361   0.50000   0.18388   0.00000  Uiso   1.00
Zn417  Zn    0.44896   0.50001   0.25000   0.00000  Uiso   1.00
Zn418  Zn    0.55104   0.49999   0.25000   0.00000  Uiso   1.00
O419   O     0.44498   0.61479   0.01291   0.00000  Uiso   1.00
H420   H     0.44696   0.62764   0.48359   0.00000  Uiso   1.00
O421   O     0.61178   0.40965   0.45655   0.00000  Uiso   1.00
H422   H     0.60148   0.39280   0.43437   0.00000  Uiso   1.00
S423   S     0.65002   0.50091   0.09079   0.00000  Uiso   1.00
O424   O     0.34459   0.46770   0.10413   0.00000  Uiso   1.00
O425   O     0.34945   0.51626   0.04449   0.00000  Uiso   1.00
O426   O     0.63365   0.54197   0.13171   0.00000  Uiso   1.00
H427   H     0.66349   0.54853   0.13651   0.00000  Uiso   1.00
S428   S     0.35357   0.51427   0.42576   0.00000  Uiso   1.00
O429   O     0.34131   0.52250   0.38411   0.00000  Uiso   1.00
O430   O     0.35383   0.46761   0.43067   0.00000  Uiso   1.00
O431   O     0.64419   0.53832   0.47497   0.00000  Uiso   1.00
H432   H     0.62221   0.55439   0.46405   0.00000  Uiso   1.00
O433   O     0.38360   0.58825   0.47716   0.00000  Uiso   1.00
H434   H     0.36688   0.59689   0.45663   0.00000  Uiso   1.00
O435   O     0.64794   0.43029   0.01737   0.00000  Uiso   1.00
H436   H     0.66157   0.42296   0.04076   0.00000  Uiso   1.00
S437   S     0.51438   0.59848   0.05554   0.00000  Uiso   1.00
O438   O     0.56258   0.58604   0.05649   0.00000  Uiso   1.00
O439   O     0.51831   0.64062   0.03479   0.00000  Uiso   1.00
O440   O     0.47258   0.60357   0.11121   0.00000  Uiso   1.00
H441   H     0.44226   0.61292   0.10818   0.00000  Uiso   1.00
S442   S     0.58995   0.45321   0.38192   0.00000  Uiso   1.00
O443   O     0.58322   0.49056   0.35699   0.00000  Uiso   1.00
O444   O     0.64313   0.44448   0.36865   0.00000  Uiso   1.00
O445   O     0.56877   0.41018   0.36387   0.00000  Uiso   1.00
H446   H     0.59047   0.40426   0.33020   0.00000  Uiso   1.00
S447   S     0.64206   0.42116   0.19774   0.00000  Uiso   1.00
O448   O     0.62058   0.38878   0.23271   0.00000  Uiso   1.00
O449   O     0.60924   0.43080   0.17296   0.00000  Uiso   1.00
O450   O     0.36066   0.39978   0.15597   0.00000  Uiso   1.00
H451   H     0.35206   0.37258   0.14485   0.00000  Uiso   1.00
S452   S     0.35867   0.58040   0.29969   0.00000  Uiso   1.00
O453   O     0.39186   0.57260   0.32458   0.00000  Uiso   1.00
O454   O     0.38002   0.61113   0.26267   0.00000  Uiso   1.00
O455   O     0.64077   0.60337   0.34103   0.00000  Uiso   1.00
H456   H     0.64990   0.63121   0.35001   0.00000  Uiso   1.00
O457   O     0.39942   0.43239   0.21238   0.00000  Uiso   1.00
H458   H     0.38231   0.40710   0.22607   0.00000  Uiso   1.00
O459   O     0.60114   0.56719   0.29153   0.00000  Uiso   1.00
H460   H     0.56947   0.55595   0.30933   0.00000  Uiso   1.00
C461   C     0.83266   0.57982   0.25053   0.00000  Uiso   1.00
C462   C     0.83403   0.42017   0.24942   0.00000  Uiso   1.00
C463   C     0.82998   0.56013   0.02132   0.00000  Uiso   1.00
C464   C     0.89275   0.46399   0.44457   0.00000  Uiso   1.00
C465   C     0.79923   0.57442   0.00011   0.00000  Uiso   1.00
C466   C     0.91587   0.44630   0.47215   0.00000  Uiso   1.00
C467   C     0.84975   0.64628   0.28059   0.00000  Uiso   1.00
C468   C     0.81701   0.35370   0.21930   0.00000  Uiso   1.00
C469   C     0.85113   0.35597   0.27961   0.00000  Uiso   1.00
C470   C     0.81548   0.64402   0.22039   0.00000  Uiso   1.00
C471   C     0.83489   0.37591   0.24889   0.00000  Uiso   1.00
C472   C     0.83182   0.62408   0.25103   0.00000  Uiso   1.00
C473   C     0.98657   0.46643   0.22858   0.00000  Uiso   1.00
C474   C     0.68026   0.53366   0.27122   0.00000  Uiso   1.00
C475   C     0.70025   0.46637   0.23042   0.00000  Uiso   1.00
C476   C     0.96634   0.53321   0.27074   0.00000  Uiso   1.00
C477   C     0.80274   0.49921   0.33827   0.00000  Uiso   1.00
C478   C     0.86419   0.50043   0.16169   0.00000  Uiso   1.00
C479   C     0.78356   0.50145   0.39028   0.00000  Uiso   1.00
C480   C     0.88539   0.49730   0.10962   0.00000  Uiso   1.00
C481   C     0.75129   0.55644   0.45276   0.00000  Uiso   1.00
C482   C     0.94065   0.45698   0.03966   0.00000  Uiso   1.00
C483   C     0.74545   0.53000   0.41721   0.00000  Uiso   1.00
C484   C     0.93249   0.47959   0.08319   0.00000  Uiso   1.00
C485   C     0.81419   0.48653   0.41065   0.00000  Uiso   1.00
C486   C     0.85632   0.50769   0.08541   0.00000  Uiso   1.00
C487   C     0.82128   0.51046   0.44674   0.00000  Uiso   1.00
C488   C     0.87321   0.49868   0.03646   0.00000  Uiso   1.00
C489   C     0.79075   0.54775   0.46624   0.00000  Uiso   1.00
C490   C     0.90955   0.46624   0.01617   0.00000  Uiso   1.00
C491   C     0.85581   0.49748   0.46548   0.00000  Uiso   1.00
C492   C     0.85187   0.51844   0.00888   0.00000  Uiso   1.00
H493   H     0.82114   0.52357   0.10434   0.00000  Uiso   1.00
H494   H     0.83323   0.45695   0.39591   0.00000  Uiso   1.00
H495   H     0.86211   0.63039   0.30449   0.00000  Uiso   1.00
H496   H     0.80473   0.36958   0.19534   0.00000  Uiso   1.00
H497   H     0.86384   0.37371   0.30317   0.00000  Uiso   1.00
H498   H     0.80245   0.62629   0.19707   0.00000  Uiso   1.00
N499   N     0.71426   0.50001   0.25001   0.00000  Uiso   1.00
N500   N     0.95241   0.49999   0.24999   0.00000  Uiso   1.00
O501   O     0.79512   0.56108   0.25000   0.00000  Uiso   1.00
O502   O     0.87154   0.43892   0.24999   0.00000  Uiso   1.00
O503   O     0.87157   0.56107   0.25000   0.00000  Uiso   1.00
O504   O     0.79510   0.43893   0.25000   0.00000  Uiso   1.00
O505   O     0.77328   0.50001   0.31612   0.00000  Uiso   1.00
O506   O     0.89339   0.49999   0.18387   0.00000  Uiso   1.00
O507   O     0.84972   0.50000   0.31612   0.00000  Uiso   1.00
O508   O     0.81695   0.50000   0.18388   0.00000  Uiso   1.00
Zn509  Zn    0.78229   0.50001   0.25000   0.00000  Uiso   1.00
Zn510  Zn    0.88438   0.49999   0.25000   0.00000  Uiso   1.00
O511   O     0.77831   0.61479   0.01291   0.00000  Uiso   1.00
H512   H     0.78029   0.62764   0.48359   0.00000  Uiso   1.00
O513   O     0.94511   0.40965   0.45655   0.00000  Uiso   1.00
H514   H     0.93481   0.39280   0.43437   0.00000  Uiso   1.00
S515   S     0.98335   0.50091   0.09079   0.00000  Uiso   1.00
O516   O     0.67792   0.46770   0.10413   0.00000  Uiso   1.00
O517   O     0.68278   0.51626   0.04449   0.00000  Uiso   1.00
O518   O     0.96698   0.54197   0.13171   0.00000  Uiso   1.00
H519   H     0.99682   0.54853   0.13651   0.00000  Uiso   1.00
S520   S     0.68691   0.51427   0.42576   0.00000  Uiso   1.00
O521   O     0.67464   0.52250   0.38411   0.00000  Uiso   1.00
O522   O     0.68716   0.46761   0.43067   0.00000  Uiso   1.00
O523   O     0.97752   0.53832   0.47497   0.00000  Uiso   1.00
H524   H     0.95555   0.55439   0.46405   0.00000  Uiso   1.00
O525   O     0.71694   0.58825   0.47716   0.00000  Uiso   1.00
H526   H     0.70021   0.59689   0.45663   0.00000  Uiso   1.00
O527   O     0.98127   0.43029   0.01737   0.00000  Uiso   1.00
H528   H     0.99490   0.42296   0.04076   0.00000  Uiso   1.00
S529   S     0.84771   0.59848   0.05554   0.00000  Uiso   1.00
O530   O     0.89591   0.58604   0.05649   0.00000  Uiso   1.00
O531   O     0.85164   0.64062   0.03479   0.00000  Uiso   1.00
O532   O     0.80591   0.60357   0.11121   0.00000  Uiso   1.00
H533   H     0.77559   0.61292   0.10818   0.00000  Uiso   1.00
S534   S     0.92329   0.45321   0.38192   0.00000  Uiso   1.00
O535   O     0.91655   0.49056   0.35699   0.00000  Uiso   1.00
O536   O     0.97647   0.44448   0.36865   0.00000  Uiso   1.00
O537   O     0.90210   0.41018   0.36387   0.00000  Uiso   1.00
H538   H     0.92380   0.40426   0.33020   0.00000  Uiso   1.00
S539   S     0.97539   0.42116   0.19774   0.00000  Uiso   1.00
O540   O     0.95392   0.38878   0.23271   0.00000  Uiso   1.00
O541   O     0.94258   0.43080   0.17296   0.00000  Uiso   1.00
O542   O     0.69400   0.39978   0.15597   0.00000  Uiso   1.00
H543   H     0.68539   0.37258   0.14485   0.00000  Uiso   1.00
S544   S     0.69201   0.58040   0.29969   0.00000  Uiso   1.00
O545   O     0.72520   0.57260   0.32458   0.00000  Uiso   1.00
O546   O     0.71336   0.61113   0.26267   0.00000  Uiso   1.00
O547   O     0.97410   0.60337   0.34103   0.00000  Uiso   1.00
H548   H     0.98323   0.63121   0.35001   0.00000  Uiso   1.00
O549   O     0.73276   0.43239   0.21238   0.00000  Uiso   1.00
H550   H     0.71565   0.40710   0.22607   0.00000  Uiso   1.00
O551   O     0.93447   0.56719   0.29153   0.00000  Uiso   1.00
H552   H     0.90280   0.55595   0.30933   0.00000  Uiso   1.00
C553   C     0.16599   0.91315   0.25053   0.00000  Uiso   1.00
C554   C     0.16737   0.75351   0.24942   0.00000  Uiso   1.00
C555   C     0.16331   0.89347   0.02132   0.00000  Uiso   1.00
C556   C     0.22608   0.79732   0.44457   0.00000  Uiso   1.00
C557   C     0.13257   0.90775   0.00011   0.00000  Uiso   1.00
C558   C     0.24920   0.77963   0.47215   0.00000  Uiso   1.00
C559   C     0.18309   0.97961   0.28059   0.00000  Uiso   1.00
C560   C     0.15034   0.68703   0.21930   0.00000  Uiso   1.00
C561   C     0.18446   0.68931   0.27961   0.00000  Uiso   1.00
C562   C     0.14881   0.97735   0.22039   0.00000  Uiso   1.00
C563   C     0.16822   0.70924   0.24889   0.00000  Uiso   1.00
C564   C     0.16516   0.95741   0.25103   0.00000  Uiso   1.00
C565   C     0.31990   0.79976   0.22858   0.00000  Uiso   1.00
C566   C     0.01359   0.86699   0.27122   0.00000  Uiso   1.00
C567   C     0.03358   0.79970   0.23042   0.00000  Uiso   1.00
C568   C     0.29968   0.86655   0.27074   0.00000  Uiso   1.00
C569   C     0.13607   0.83254   0.33827   0.00000  Uiso   1.00
C570   C     0.19752   0.83377   0.16169   0.00000  Uiso   1.00
C571   C     0.11689   0.83478   0.39028   0.00000  Uiso   1.00
C572   C     0.21873   0.83064   0.10962   0.00000  Uiso   1.00
C573   C     0.08462   0.88977   0.45276   0.00000  Uiso   1.00
C574   C     0.27398   0.79032   0.03966   0.00000  Uiso   1.00
C575   C     0.07878   0.86333   0.41721   0.00000  Uiso   1.00
C576   C     0.26582   0.81292   0.08319   0.00000  Uiso   1.00
C577   C     0.14753   0.81986   0.41065   0.00000  Uiso   1.00
C578   C     0.18965   0.84102   0.08541   0.00000  Uiso   1.00
C579   C     0.15461   0.84380   0.44674   0.00000  Uiso   1.00
C580   C     0.20654   0.83201   0.03646   0.00000  Uiso   1.00
C581   C     0.12409   0.88108   0.46624   0.00000  Uiso   1.00
C582   C     0.24288   0.79957   0.01617   0.00000  Uiso   1.00
C583   C     0.18915   0.83081   0.46548   0.00000  Uiso   1.00
C584   C     0.18521   0.85178   0.00888   0.00000  Uiso   1.00
H585   H     0.15447   0.85690   0.10434   0.00000  Uiso   1.00
H586   H     0.16656   0.79028   0.39591   0.00000  Uiso   1.00
H587   H     0.19544   0.96373   0.30449   0.00000  Uiso   1.00
H588   H     0.13806   0.70291   0.19534   0.00000  Uiso   1.00
H589   H     0.19717   0.70705   0.30317   0.00000  Uiso   1.00
H590   H     0.13579   0.95962   0.19707   0.00000  Uiso   1.00
N591   N     0.04759   0.83334   0.25001   0.00000  Uiso   1.00
N592   N     0.28574   0.83332   0.24999   0.00000  Uiso   1.00
O593   O     0.12846   0.89442   0.25000   0.00000  Uiso   1.00
O594   O     0.20488   0.77225   0.24999   0.00000  Uiso   1.00
O595   O     0.20490   0.89441   0.25000   0.00000  Uiso   1.00
O596   O     0.12843   0.77226   0.25000   0.00000  Uiso   1.00
O597   O     0.10661   0.83334   0.31612   0.00000  Uiso   1.00
O598   O     0.22672   0.83333   0.18387   0.00000  Uiso   1.00
O599   O     0.18305   0.83333   0.31612   0.00000  Uiso   1.00
O600   O     0.15028   0.83334   0.18388   0.00000  Uiso   1.00
Zn601  Zn    0.11562   0.83334   0.25000   0.00000  Uiso   1.00
Zn602  Zn    0.21771   0.83333   0.25000   0.00000  Uiso   1.00
O603   O     0.11164   0.94812   0.01291   0.00000  Uiso   1.00
H604   H     0.11363   0.96098   0.48359   0.00000  Uiso   1.00
O605   O     0.27845   0.74298   0.45655   0.00000  Uiso   1.00
H606   H     0.26815   0.72613   0.43437   0.00000  Uiso   1.00
S607   S     0.31668   0.83424   0.09079   0.00000  Uiso   1.00
O608   O     0.01125   0.80103   0.10413   0.00000  Uiso   1.00
O609   O     0.01611   0.84959   0.04449   0.00000  Uiso   1.00
O610   O     0.30031   0.87530   0.13171   0.00000  Uiso   1.00
H611   H     0.33015   0.88187   0.13651   0.00000  Uiso   1.00
S612   S     0.02024   0.84761   0.42576   0.00000  Uiso   1.00
O613   O     0.00798   0.85583   0.38411   0.00000  Uiso   1.00
O614   O     0.02050   0.80094   0.43067   0.00000  Uiso   1.00
O615   O     0.31085   0.87165   0.47497   0.00000  Uiso   1.00
H616   H     0.28888   0.88773   0.46405   0.00000  Uiso   1.00
O617   O     0.05027   0.92158   0.47716   0.00000  Uiso   1.00
H618   H     0.03355   0.93022   0.45663   0.00000  Uiso   1.00
O619   O     0.31461   0.76363   0.01737   0.00000  Uiso   1.00
H620   H     0.32823   0.75630   0.04076   0.00000  Uiso   1.00
S621   S     0.18104   0.93181   0.05554   0.00000  Uiso   1.00
O622   O     0.22925   0.91937   0.05649   0.00000  Uiso   1.00
O623   O     0.18498   0.97395   0.03479   0.00000  Uiso   1.00
O624   O     0.13924   0.93691   0.11121   0.00000  Uiso   1.00
H625   H     0.10892   0.94625   0.10818   0.00000  Uiso   1.00
S626   S     0.25662   0.78654   0.38192   0.00000  Uiso   1.00
O627   O     0.24989   0.82390   0.35699   0.00000  Uiso   1.00
O628   O     0.30980   0.77782   0.36865   0.00000  Uiso   1.00
O629   O     0.23543   0.74352   0.36387   0.00000  Uiso   1.00
H630   H     0.25714   0.73759   0.33020   0.00000  Uiso   1.00
S631   S     0.30872   0.75449   0.19774   0.00000  Uiso   1.00
O632   O     0.28725   0.72211   0.23271   0.00000  Uiso   1.00
O633   O     0.27591   0.76413   0.17296   0.00000  Uiso   1.00
O634   O     0.02733   0.73311   0.15597   0.00000  Uiso   1.00
H635   H     0.01873   0.70591   0.14485   0.00000  Uiso   1.00
S636   S     0.02534   0.91374   0.29969   0.00000  Uiso   1.00
O637   O     0.05853   0.90593   0.32458   0.00000  Uiso   1.00
O638   O     0.04669   0.94447   0.26267   0.00000  Uiso   1.00
O639   O     0.30743   0.93671   0.34103   0.00000  Uiso   1.00
H640   H     0.31657   0.96454   0.35001   0.00000  Uiso   1.00
O641   O     0.06609   0.76572   0.21238   0.00000  Uiso   1.00
H642   H     0.04898   0.74043   0.22607   0.00000  Uiso   1.00
O643   O     0.26781   0.90052   0.29153   0.00000  Uiso   1.00
H644   H     0.23614   0.88928   0.30933   0.00000  Uiso   1.00
C645   C     0.49933   0.91315   0.25053   0.00000  Uiso   1.00
C646   C     0.50070   0.75351   0.24942   0.00000  Uiso   1.00
C647   C     0.49664   0.89347   0.02132   0.00000  Uiso   1.00
C648   C     0.55942   0.79732   0.44457   0.00000  Uiso   1.00
C649   C     0.46590   0.90775   0.00011   0.00000  Uiso   1.00
C650   C     0.58253   0.77963   0.47215   0.00000  Uiso   1.00
C651   C     0.51642   0.97961   0.28059   0.00000  Uiso   1.00
C652   C     0.48368   0.68703   0.21930   0.00000  Uiso   1.00
C653   C     0.51780   0.68931   0.27961   0.00000  Uiso   1.00
C654   C     0.48214   0.97735   0.22039   0.00000  Uiso   1.00
C655   C     0.50156   0.70924   0.24889   0.00000  Uiso   1.00
C656   C     0.49849   0.95741   0.25103   0.00000  Uiso   1.00
C657   C     0.65324   0.79976   0.22858   0.00000  Uiso   1.00
C658   C     0.34693   0.86699   0.27122   0.00000  Uiso   1.00
C659   C     0.36692   0.79970   0.23042   0.00000  Uiso   1.00
C660   C     0.63301   0.86655   0.27074   0.00000  Uiso   1.00
C661   C     0.46940   0.83254   0.33827   0.00000  Uiso   1.00
C662   C     0.53085   0.83377   0.16169   0.00000  Uiso   1.00
C663   C     0.45023   0.83478   0.39028   0.00000  Uiso   1.00
C664   C     0.55206   0.83064   0.10962   0.00000  Uiso   1.00
C665   C     0.41796   0.88977   0.45276   0.00000  Uiso   1.00
C666   C     0.60731   0.79032   0.03966   0.00000  Uiso   1.00
C667   C     0.41212   0.86333   0.41721   0.00000  Uiso   1.00
C668   C     0.59916   0.81292   0.08319   0.00000  Uiso   1.00
C669   C     0.48086   0.81986   0.41065   0.00000  Uiso   1.00
C670   C     0.52299   0.84102   0.08541   0.00000  Uiso   1.00
C671   C     0.48794   0.84380   0.44674   0.00000  Uiso   1.00
C672   C     0.53987   0.83201   0.03646   0.00000  Uiso   1.00
C673   C     0.45742   0.88108   0.46624   0.00000  Uiso   1.00
C674   C     0.57621   0.79957   0.01617   0.00000  Uiso   1.00
C675   C     0.52248   0.83081   0.46548   0.00000  Uiso   1.00
C676   C     0.51854   0.85178   0.00888   0.00000  Uiso   1.00
H677   H     0.48780   0.85690   0.10434   0.00000  Uiso   1.00
H678   H     0.49990   0.79028   0.39591   0.00000  Uiso   1.00
H679   H     0.52878   0.96373   0.30449   0.00000  Uiso   1.00
H680   H     0.47140   0.70291   0.19534   0.00000  Uiso   1.00
H681   H     0.53051   0.70705   0.30317   0.00000  Uiso   1.00
H682   H     0.46912   0.95962   0.19707   0.00000  Uiso   1.00
N683   N     0.38093   0.83334   0.25001   0.00000  Uiso   1.00
N684   N     0.61907   0.83332   0.24999   0.00000  Uiso   1.00
O685   O     0.46179   0.89442   0.25000   0.00000  Uiso   1.00
O686   O     0.53821   0.77225   0.24999   0.00000  Uiso   1.00
O687   O     0.53823   0.89441   0.25000   0.00000  Uiso   1.00
O688   O     0.46177   0.77226   0.25000   0.00000  Uiso   1.00
O689   O     0.43994   0.83334   0.31612   0.00000  Uiso   1.00
O690   O     0.56006   0.83333   0.18387   0.00000  Uiso   1.00
O691   O     0.51639   0.83333   0.31612   0.00000  Uiso   1.00
O692   O     0.48361   0.83334   0.18388   0.00000  Uiso   1.00
Zn693  Zn    0.44896   0.83334   0.25000   0.00000  Uiso   1.00
Zn694  Zn    0.55104   0.83333   0.25000   0.00000  Uiso   1.00
O695   O     0.44498   0.94812   0.01291   0.00000  Uiso   1.00
H696   H     0.44696   0.96098   0.48359   0.00000  Uiso   1.00
O697   O     0.61178   0.74298   0.45655   0.00000  Uiso   1.00
H698   H     0.60148   0.72613   0.43437   0.00000  Uiso   1.00
S699   S     0.65002   0.83424   0.09079   0.00000  Uiso   1.00
O700   O     0.34459   0.80103   0.10413   0.00000  Uiso   1.00
O701   O     0.34945   0.84959   0.04449   0.00000  Uiso   1.00
O702   O     0.63365   0.87530   0.13171   0.00000  Uiso   1.00
H703   H     0.66349   0.88187   0.13651   0.00000  Uiso   1.00
S704   S     0.35357   0.84761   0.42576   0.00000  Uiso   1.00
O705   O     0.34131   0.85583   0.38411   0.00000  Uiso   1.00
O706   O     0.35383   0.80094   0.43067   0.00000  Uiso   1.00
O707   O     0.64419   0.87165   0.47497   0.00000  Uiso   1.00
H708   H     0.62221   0.88773   0.46405   0.00000  Uiso   1.00
O709   O     0.38360   0.92158   0.47716   0.00000  Uiso   1.00
H710   H     0.36688   0.93022   0.45663   0.00000  Uiso   1.00
O711   O     0.64794   0.76363   0.01737   0.00000  Uiso   1.00
H712   H     0.66157   0.75630   0.04076   0.00000  Uiso   1.00
S713   S     0.51438   0.93181   0.05554   0.00000  Uiso   1.00
O714   O     0.56258   0.91937   0.05649   0.00000  Uiso   1.00
O715   O     0.51831   0.97395   0.03479   0.00000  Uiso   1.00
O716   O     0.47258   0.93691   0.11121   0.00000  Uiso   1.00
H717   H     0.44226   0.94625   0.10818   0.00000  Uiso   1.00
S718   S     0.58995   0.78654   0.38192   0.00000  Uiso   1.00
O719   O     0.58322   0.82390   0.35699   0.00000  Uiso   1.00
O720   O     0.64313   0.77782   0.36865   0.00000  Uiso   1.00
O721   O     0.56877   0.74352   0.36387   0.00000  Uiso   1.00
H722   H     0.59047   0.73759   0.33020   0.00000  Uiso   1.00
S723   S     0.64206   0.75449   0.19774   0.00000  Uiso   1.00
O724   O     0.62058   0.72211   0.23271   0.00000  Uiso   1.00
O725   O     0.60924   0.76413   0.17296   0.00000  Uiso   1.00
O726   O     0.36066   0.73311   0.15597   0.00000  Uiso   1.00
H727   H     0.35206   0.70591   0.14485   0.00000  Uiso   1.00
S728   S     0.35867   0.91374   0.29969   0.00000  Uiso   1.00
O729   O     0.39186   0.90593   0.32458   0.00000  Uiso   1.00
O730   O     0.38002   0.94447   0.26267   0.00000  Uiso   1.00
O731   O     0.64077   0.93671   0.34103   0.00000  Uiso   1.00
H732   H     0.64990   0.96454   0.35001   0.00000  Uiso   1.00
O733   O     0.39942   0.76572   0.21238   0.00000  Uiso   1.00
H734   H     0.38231   0.74043   0.22607   0.00000  Uiso   1.00
O735   O     0.60114   0.90052   0.29153   0.00000  Uiso   1.00
H736   H     0.56947   0.88928   0.30933   0.00000  Uiso   1.00
C737   C     0.83266   0.91315   0.25053   0.00000  Uiso   1.00
C738   C     0.83403   0.75351   0.24942   0.00000  Uiso   1.00
C739   C     0.82998   0.89347   0.02132   0.00000  Uiso   1.00
C740   C     0.89275   0.79732   0.44457   0.00000  Uiso   1.00
C741   C     0.79923   0.90775   0.00011   0.00000  Uiso   1.00
C742   C     0.91587   0.77963   0.47215   0.00000  Uiso   1.00
C743   C     0.84975   0.97961   0.28059   0.00000  Uiso   1.00
C744   C     0.81701   0.68703   0.21930   0.00000  Uiso   1.00
C745   C     0.85113   0.68931   0.27961   0.00000  Uiso   1.00
C746   C     0.81548   0.97735   0.22039   0.00000  Uiso   1.00
C747   C     0.83489   0.70924   0.24889   0.00000  Uiso   1.00
C748   C     0.83182   0.95741   0.25103   0.00000  Uiso   1.00
C749   C     0.98657   0.79976   0.22858   0.00000  Uiso   1.00
C750   C     0.68026   0.86699   0.27122   0.00000  Uiso   1.00
C751   C     0.70025   0.79970   0.23042   0.00000  Uiso   1.00
C752   C     0.96634   0.86655   0.27074   0.00000  Uiso   1.00
C753   C     0.80274   0.83254   0.33827   0.00000  Uiso   1.00
C754   C     0.86419   0.83377   0.16169   0.00000  Uiso   1.00
C755   C     0.78356   0.83478   0.39028   0.00000  Uiso   1.00
C756   C     0.88539   0.83064   0.10962   0.00000  Uiso   1.00
C757   C     0.75129   0.88977   0.45276   0.00000  Uiso   1.00
C758   C     0.94065   0.79032   0.03966   0.00000  Uiso   1.00
C759   C     0.74545   0.86333   0.41721   0.00000  Uiso   1.00
C760   C     0.93249   0.81292   0.08319   0.00000  Uiso   1.00
C761   C     0.81419   0.81986   0.41065   0.00000  Uiso   1.00
C762   C     0.85632   0.84102   0.08541   0.00000  Uiso   1.00
C763   C     0.82128   0.84380   0.44674   0.00000  Uiso   1.00
C764   C     0.87321   0.83201   0.03646   0.00000  Uiso   1.00
C765   C     0.79075   0.88108   0.46624   0.00000  Uiso   1.00
C766   C     0.90955   0.79957   0.01617   0.00000  Uiso   1.00
C767   C     0.85581   0.83081   0.46548   0.00000  Uiso   1.00
C768   C     0.85187   0.85178   0.00888   0.00000  Uiso   1.00
H769   H     0.82114   0.85690   0.10434   0.00000  Uiso   1.00
H770   H     0.83323   0.79028   0.39591   0.00000  Uiso   1.00
H771   H     0.86211   0.96373   0.30449   0.00000  Uiso   1.00
H772   H     0.80473   0.70291   0.19534   0.00000  Uiso   1.00
H773   H     0.86384   0.70705   0.30317   0.00000  Uiso   1.00
H774   H     0.80245   0.95962   0.19707   0.00000  Uiso   1.00
N775   N     0.71426   0.83334   0.25001   0.00000  Uiso   1.00
N776   N     0.95241   0.83332   0.24999   0.00000  Uiso   1.00
O777   O     0.79512   0.89442   0.25000   0.00000  Uiso   1.00
O778   O     0.87154   0.77225   0.24999   0.00000  Uiso   1.00
O779   O     0.87157   0.89441   0.25000   0.00000  Uiso   1.00
O780   O     0.79510   0.77226   0.25000   0.00000  Uiso   1.00
O781   O     0.77328   0.83334   0.31612   0.00000  Uiso   1.00
O782   O     0.89339   0.83333   0.18387   0.00000  Uiso   1.00
O783   O     0.84972   0.83333   0.31612   0.00000  Uiso   1.00
O784   O     0.81695   0.83334   0.18388   0.00000  Uiso   1.00
Zn785  Zn    0.78229   0.83334   0.25000   0.00000  Uiso   1.00
Zn786  Zn    0.88438   0.83333   0.25000   0.00000  Uiso   1.00
O787   O     0.77831   0.94812   0.01291   0.00000  Uiso   1.00
H788   H     0.78029   0.96098   0.48359   0.00000  Uiso   1.00
O789   O     0.94511   0.74298   0.45655   0.00000  Uiso   1.00
H790   H     0.93481   0.72613   0.43437   0.00000  Uiso   1.00
S791   S     0.98335   0.83424   0.09079   0.00000  Uiso   1.00
O792   O     0.67792   0.80103   0.10413   0.00000  Uiso   1.00
O793   O     0.68278   0.84959   0.04449   0.00000  Uiso   1.00
O794   O     0.96698   0.87530   0.13171   0.00000  Uiso   1.00
H795   H     0.99682   0.88187   0.13651   0.00000  Uiso   1.00
S796   S     0.68691   0.84761   0.42576   0.00000  Uiso   1.00
O797   O     0.67464   0.85583   0.38411   0.00000  Uiso   1.00
O798   O     0.68716   0.80094   0.43067   0.00000  Uiso   1.00
O799   O     0.97752   0.87165   0.47497   0.00000  Uiso   1.00
H800   H     0.95555   0.88773   0.46405   0.00000  Uiso   1.00
O801   O     0.71694   0.92158   0.47716   0.00000  Uiso   1.00
H802   H     0.70021   0.93022   0.45663   0.00000  Uiso   1.00
O803   O     0.98127   0.76363   0.01737   0.00000  Uiso   1.00
H804   H     0.99490   0.75630   0.04076   0.00000  Uiso   1.00
S805   S     0.84771   0.93181   0.05554   0.00000  Uiso   1.00
O806   O     0.89591   0.91937   0.05649   0.00000  Uiso   1.00
O807   O     0.85164   0.97395   0.03479   0.00000  Uiso   1.00
O808   O     0.80591   0.93691   0.11121   0.00000  Uiso   1.00
H809   H     0.77559   0.94625   0.10818   0.00000  Uiso   1.00
S810   S     0.92329   0.78654   0.38192   0.00000  Uiso   1.00
O811   O     0.91655   0.82390   0.35699   0.00000  Uiso   1.00
O812   O     0.97647   0.77782   0.36865   0.00000  Uiso   1.00
O813   O     0.90210   0.74352   0.36387   0.00000  Uiso   1.00
H814   H     0.92380   0.73759   0.33020   0.00000  Uiso   1.00
S815   S     0.97539   0.75449   0.19774   0.00000  Uiso   1.00
O816   O     0.95392   0.72211   0.23271   0.00000  Uiso   1.00
O817   O     0.94258   0.76413   0.17296   0.00000  Uiso   1.00
O818   O     0.69400   0.73311   0.15597   0.00000  Uiso   1.00
H819   H     0.68539   0.70591   0.14485   0.00000  Uiso   1.00
S820   S     0.69201   0.91374   0.29969   0.00000  Uiso   1.00
O821   O     0.72520   0.90593   0.32458   0.00000  Uiso   1.00
O822   O     0.71336   0.94447   0.26267   0.00000  Uiso   1.00
O823   O     0.97410   0.93671   0.34103   0.00000  Uiso   1.00
H824   H     0.98323   0.96454   0.35001   0.00000  Uiso   1.00
O825   O     0.73276   0.76572   0.21238   0.00000  Uiso   1.00
H826   H     0.71565   0.74043   0.22607   0.00000  Uiso   1.00
O827   O     0.93447   0.90052   0.29153   0.00000  Uiso   1.00
H828   H     0.90280   0.88928   0.30933   0.00000  Uiso   1.00
C829   C     0.16599   0.24649   0.75053   0.00000  Uiso   1.00
C830   C     0.16737   0.08684   0.74942   0.00000  Uiso   1.00
C831   C     0.16331   0.22680   0.52132   0.00000  Uiso   1.00
C832   C     0.22608   0.13065   0.94457   0.00000  Uiso   1.00
C833   C     0.13257   0.24108   0.50011   0.00000  Uiso   1.00
C834   C     0.24920   0.11297   0.97215   0.00000  Uiso   1.00
C835   C     0.18309   0.31295   0.78059   0.00000  Uiso   1.00
C836   C     0.15034   0.02037   0.71930   0.00000  Uiso   1.00
C837   C     0.18446   0.02264   0.77961   0.00000  Uiso   1.00
C838   C     0.14881   0.31069   0.72039   0.00000  Uiso   1.00
C839   C     0.16822   0.04258   0.74889   0.00000  Uiso   1.00
C840   C     0.16516   0.29075   0.75103   0.00000  Uiso   1.00
C841   C     0.31990   0.13310   0.72858   0.00000  Uiso   1.00
C842   C     0.01359   0.20033   0.77122   0.00000  Uiso   1.00
C843   C     0.03358   0.13303   0.73042   0.00000  Uiso   1.00
C844   C     0.29968   0.19988   0.77074   0.00000  Uiso   1.00
C845   C     0.13607   0.16588   0.83827   0.00000  Uiso   1.00
C846   C     0.19752   0.16710   0.66169   0.00000  Uiso   1.00
C847   C     0.11689   0.16812   0.89028   0.00000  Uiso   1.00
C848   C     0.21873   0.16397   0.60962   0.00000  Uiso   1.00
C849   C     0.08462   0.22310   0.95276   0.00000  Uiso   1.00
C850   C     0.27398   0.12365   0.53966   0.00000  Uiso   1.00
C851   C     0.07878   0.19666   0.91721   0.00000  Uiso   1.00
C852   C     0.26582   0.14625   0.58319   0.00000  Uiso   1.00
C853   C     0.14753   0.15319   0.91065   0.00000  Uiso   1.00
C854   C     0.18965   0.17435   0.58541   0.00000  Uiso   1.00
C855   C     0.15461   0.17713   0.94674   0.00000  Uiso   1.00
C856   C     0.20654   0.16534   0.53646   0.00000  Uiso   1.00
C857   C     0.12409   0.21442   0.96624   0.00000  Uiso   1.00
C858   C     0.24288   0.13291   0.51617   0.00000  Uiso   1.00
C859   C     0.18915   0.16415   0.96548   0.00000  Uiso   1.00
C860   C     0.18521   0.18511   0.50888   0.00000  Uiso   1.00
H861   H     0.15447   0.19024   0.60434   0.00000  Uiso   1.00
H862   H     0.16656   0.12361   0.89591   0.00000  Uiso   1.00
H863   H     0.19544   0.29706   0.80449   0.00000  Uiso   1.00
H864   H     0.13806   0.03625   0.69534   0.00000  Uiso   1.00
H865   H     0.19717   0.04038   0.80317   0.00000  Uiso   1.00
H866   H     0.13579   0.29296   0.69707   0.00000  Uiso   1.00
N867   N     0.04759   0.16668   0.75001   0.00000  Uiso   1.00
N868   N     0.28574   0.16666   0.74999   0.00000  Uiso   1.00
O869   O     0.12846   0.22775   0.75000   0.00000  Uiso   1.00
O870   O     0.20488   0.10558   0.74999   0.00000  Uiso   1.00
O871   O     0.20490   0.22774   0.75000   0.00000  Uiso   1.00
O872   O     0.12843   0.10559   0.75000   0.00000  Uiso   1.00
O873   O     0.10661   0.16667   0.81612   0.00000  Uiso   1.00
O874   O     0.22672   0.16666   0.68387   0.00000  Uiso   1.00
O875   O     0.18305   0.16666   0.81612   0.00000  Uiso   1.00
O876   O     0.15028   0.16667   0.68388   0.00000  Uiso   1.00
Zn877  Zn    0.11562   0.16667   0.75000   0.00000  Uiso   1.00
Zn878  Zn    0.21771   0.16666   0.75000   0.00000  Uiso   1.00
O879   O     0.11164   0.28146   0.51291   0.00000  Uiso   1.00
H880   H     0.11363   0.29431   0.98359   0.00000  Uiso   1.00
O881   O     0.27845   0.07631   0.95655   0.00000  Uiso   1.00
H882   H     0.26815   0.05946   0.93437   0.00000  Uiso   1.00
S883   S     0.31668   0.16757   0.59079   0.00000  Uiso   1.00
O884   O     0.01125   0.13436   0.60413   0.00000  Uiso   1.00
O885   O     0.01611   0.18292   0.54449   0.00000  Uiso   1.00
O886   O     0.30031   0.20863   0.63171   0.00000  Uiso   1.00
H887   H     0.33015   0.21520   0.63651   0.00000  Uiso   1.00
S888   S     0.02024   0.18094   0.92576   0.00000  Uiso   1.00
O889   O     0.00798   0.18916   0.88411   0.00000  Uiso   1.00
O890   O     0.02050   0.13427   0.93067   0.00000  Uiso   1.00
O891   O     0.31085   0.20499   0.97497   0.00000  Uiso   1.00
H892   H     0.28888   0.22106   0.96405   0.00000  Uiso   1.00
O893   O     0.05027   0.25491   0.97716   0.00000  Uiso   1.00
H894   H     0.03355   0.26355   0.95663   0.00000  Uiso   1.00
O895   O     0.31461   0.09696   0.51737   0.00000  Uiso   1.00
H896   H     0.32823   0.08963   0.54076   0.00000  Uiso   1.00
S897   S     0.18104   0.26514   0.55554   0.00000  Uiso   1.00
O898   O     0.22925   0.25271   0.55649   0.00000  Uiso   1.00
O899   O     0.18498   0.30728   0.53479   0.00000  Uiso   1.00
O900   O     0.13924   0.27024   0.61121   0.00000  Uiso   1.00
H901   H     0.10892   0.27959   0.60818   0.00000  Uiso   1.00
S902   S     0.25662   0.11988   0.88192   0.00000  Uiso   1.00
O903   O     0.24989   0.15723   0.85699   0.00000  Uiso   1.00
O904   O     0.30980   0.11115   0.86865   0.00000  Uiso   1.00
O905   O     0.23543   0.07685   0.86387   0.00000  Uiso   1.00
H906   H     0.25714   0.07092   0.83020   0.00000  Uiso   1.00
S907   S     0.30872   0.08783   0.69774   0.00000  Uiso   1.00
O908   O     0.28725   0.05545   0.73271   0.00000  Uiso   1.00
O909   O     0.27591   0.09746   0.67296   0.00000  Uiso   1.00
O910   O     0.02733   0.06644   0.65597   0.00000  Uiso   1.00
H911   H     0.01873   0.03924   0.64485   0.00000  Uiso   1.00
S912   S     0.02534   0.24707   0.79969   0.00000  Uiso   1.00
O913   O     0.05853   0.23926   0.82458   0.00000  Uiso   1.00
O914   O     0.04669   0.27780   0.76267   0.00000  Uiso   1.00
O915   O     0.30743   0.27004   0.84103   0.00000  Uiso   1.00
H916   H     0.31657   0.29787   0.85001   0.00000  Uiso   1.00
O917   O     0.06609   0.09905   0.71238   0.00000  Uiso   1.00
H918   H     0.04898   0.07376   0.72607   0.00000  Uiso   1.00
O919   O     0.26781   0.23385   0.79153   0.00000  Uiso   1.00
H920   H     0.23614   0.22261   0.80933   0.00000  Uiso   1.00
C921   C     0.49933   0.24649   0.75053   0.00000  Uiso   1.00
C922   C     0.50070   0.08684   0.74942   0.00000  Uiso   1.00
C923   C     0.49664   0.22680   0.52132   0.00000  Uiso   1.00
C924   C     0.55942   0.13065   0.94457   0.00000  Uiso   1.00
C925   C     0.46590   0.24108   0.50011   0.00000  Uiso   1.00
C926   C     0.58253   0.11297   0.97215   0.00000  Uiso   1.00
C927   C     0.51642   0.31295   0.78059   0.00000  Uiso   1.00
C928   C     0.48368   0.02037   0.71930   0.00000  Uiso   1.00
C929   C     0.51780   0.02264   0.77961   0.00000  Uiso   1.00
C930   C     0.48214   0.31069   0.72039   0.00000  Uiso   1.00
C931   C     0.50156   0.04258   0.74889   0.00000  Uiso   1.00
C932   C     0.49849   0.29075   0.75103   0.00000  Uiso   1.00
C933   C     0.65324   0.13310   0.72858   0.00000  Uiso   1.00
C934   C     0.34693   0.20033   0.77122   0.00000  Uiso   1.00
C935   C     0.36692   0.13303   0.73042   0.00000  Uiso   1.00
C936   C     0.63301   0.19988   0.77074   0.00000  Uiso   1.00
C937   C     0.46940   0.16588   0.83827   0.00000  Uiso   1.00
C938   C     0.53085   0.16710   0.66169   0.00000  Uiso   1.00
C939   C     0.45023   0.16812   0.89028   0.00000  Uiso   1.00
C940   C     0.55206   0.16397   0.60962   0.00000  Uiso   1.00
C941   C     0.41796   0.22310   0.95276   0.00000  Uiso   1.00
C942   C     0.60731   0.12365   0.53966   0.00000  Uiso   1.00
C943   C     0.41212   0.19666   0.91721   0.00000  Uiso   1.00
C944   C     0.59916   0.14625   0.58319   0.00000  Uiso   1.00
C945   C     0.48086   0.15319   0.91065   0.00000  Uiso   1.00
C946   C     0.52299   0.17435   0.58541   0.00000  Uiso   1.00
C947   C     0.48794   0.17713   0.94674   0.00000  Uiso   1.00
C948   C     0.53987   0.16534   0.53646   0.00000  Uiso   1.00
C949   C     0.45742   0.21442   0.96624   0.00000  Uiso   1.00
C950   C     0.57621   0.13291   0.51617   0.00000  Uiso   1.00
C951   C     0.52248   0.16415   0.96548   0.00000  Uiso   1.00
C952   C     0.51854   0.18511   0.50888   0.00000  Uiso   1.00
H953   H     0.48780   0.19024   0.60434   0.00000  Uiso   1.00
H954   H     0.49990   0.12361   0.89591   0.00000  Uiso   1.00
H955   H     0.52878   0.29706   0.80449   0.00000  Uiso   1.00
H956   H     0.47140   0.03625   0.69534   0.00000  Uiso   1.00
H957   H     0.53051   0.04038   0.80317   0.00000  Uiso   1.00
H958   H     0.46912   0.29296   0.69707   0.00000  Uiso   1.00
N959   N     0.38093   0.16668   0.75001   0.00000  Uiso   1.00
N960   N     0.61907   0.16666   0.74999   0.00000  Uiso   1.00
O961   O     0.46179   0.22775   0.75000   0.00000  Uiso   1.00
O962   O     0.53821   0.10558   0.74999   0.00000  Uiso   1.00
O963   O     0.53823   0.22774   0.75000   0.00000  Uiso   1.00
O964   O     0.46177   0.10559   0.75000   0.00000  Uiso   1.00
O965   O     0.43994   0.16667   0.81612   0.00000  Uiso   1.00
O966   O     0.56006   0.16666   0.68387   0.00000  Uiso   1.00
O967   O     0.51639   0.16666   0.81612   0.00000  Uiso   1.00
O968   O     0.48361   0.16667   0.68388   0.00000  Uiso   1.00
Zn969  Zn    0.44896   0.16667   0.75000   0.00000  Uiso   1.00
Zn970  Zn    0.55104   0.16666   0.75000   0.00000  Uiso   1.00
O971   O     0.44498   0.28146   0.51291   0.00000  Uiso   1.00
H972   H     0.44696   0.29431   0.98359   0.00000  Uiso   1.00
O973   O     0.61178   0.07631   0.95655   0.00000  Uiso   1.00
H974   H     0.60148   0.05946   0.93437   0.00000  Uiso   1.00
S975   S     0.65002   0.16757   0.59079   0.00000  Uiso   1.00
O976   O     0.34459   0.13436   0.60413   0.00000  Uiso   1.00
O977   O     0.34945   0.18292   0.54449   0.00000  Uiso   1.00
O978   O     0.63365   0.20863   0.63171   0.00000  Uiso   1.00
H979   H     0.66349   0.21520   0.63651   0.00000  Uiso   1.00
S980   S     0.35357   0.18094   0.92576   0.00000  Uiso   1.00
O981   O     0.34131   0.18916   0.88411   0.00000  Uiso   1.00
O982   O     0.35383   0.13427   0.93067   0.00000  Uiso   1.00
O983   O     0.64419   0.20499   0.97497   0.00000  Uiso   1.00
H984   H     0.62221   0.22106   0.96405   0.00000  Uiso   1.00
O985   O     0.38360   0.25491   0.97716   0.00000  Uiso   1.00
H986   H     0.36688   0.26355   0.95663   0.00000  Uiso   1.00
O987   O     0.64794   0.09696   0.51737   0.00000  Uiso   1.00
H988   H     0.66157   0.08963   0.54076   0.00000  Uiso   1.00
S989   S     0.51438   0.26514   0.55554   0.00000  Uiso   1.00
O990   O     0.56258   0.25271   0.55649   0.00000  Uiso   1.00
O991   O     0.51831   0.30728   0.53479   0.00000  Uiso   1.00
O992   O     0.47258   0.27024   0.61121   0.00000  Uiso   1.00
H993   H     0.44226   0.27959   0.60818   0.00000  Uiso   1.00
S994   S     0.58995   0.11988   0.88192   0.00000  Uiso   1.00
O995   O     0.58322   0.15723   0.85699   0.00000  Uiso   1.00
O996   O     0.64313   0.11115   0.86865   0.00000  Uiso   1.00
O997   O     0.56877   0.07685   0.86387   0.00000  Uiso   1.00
H998   H     0.59047   0.07092   0.83020   0.00000  Uiso   1.00
S999   S     0.64206   0.08783   0.69774   0.00000  Uiso   1.00
O1000  O     0.62058   0.05545   0.73271   0.00000  Uiso   1.00
O1001  O     0.60924   0.09746   0.67296   0.00000  Uiso   1.00
O1002  O     0.36066   0.06644   0.65597   0.00000  Uiso   1.00
H1003  H     0.35206   0.03924   0.64485   0.00000  Uiso   1.00
S1004  S     0.35867   0.24707   0.79969   0.00000  Uiso   1.00
O1005  O     0.39186   0.23926   0.82458   0.00000  Uiso   1.00
O1006  O     0.38002   0.27780   0.76267   0.00000  Uiso   1.00
O1007  O     0.64077   0.27004   0.84103   0.00000  Uiso   1.00
H1008  H     0.64990   0.29787   0.85001   0.00000  Uiso   1.00
O1009  O     0.39942   0.09905   0.71238   0.00000  Uiso   1.00
H1010  H     0.38231   0.07376   0.72607   0.00000  Uiso   1.00
O1011  O     0.60114   0.23385   0.79153   0.00000  Uiso   1.00
H1012  H     0.56947   0.22261   0.80933   0.00000  Uiso   1.00
C1013  C     0.83266   0.24649   0.75053   0.00000  Uiso   1.00
C1014  C     0.83403   0.08684   0.74942   0.00000  Uiso   1.00
C1015  C     0.82998   0.22680   0.52132   0.00000  Uiso   1.00
C1016  C     0.89275   0.13065   0.94457   0.00000  Uiso   1.00
C1017  C     0.79923   0.24108   0.50011   0.00000  Uiso   1.00
C1018  C     0.91587   0.11297   0.97215   0.00000  Uiso   1.00
C1019  C     0.84975   0.31295   0.78059   0.00000  Uiso   1.00
C1020  C     0.81701   0.02037   0.71930   0.00000  Uiso   1.00
C1021  C     0.85113   0.02264   0.77961   0.00000  Uiso   1.00
C1022  C     0.81548   0.31069   0.72039   0.00000  Uiso   1.00
C1023  C     0.83489   0.04258   0.74889   0.00000  Uiso   1.00
C1024  C     0.83182   0.29075   0.75103   0.00000  Uiso   1.00
C1025  C     0.98657   0.13310   0.72858   0.00000  Uiso   1.00
C1026  C     0.68026   0.20033   0.77122   0.00000  Uiso   1.00
C1027  C     0.70025   0.13303   0.73042   0.00000  Uiso   1.00
C1028  C     0.96634   0.19988   0.77074   0.00000  Uiso   1.00
C1029  C     0.80274   0.16588   0.83827   0.00000  Uiso   1.00
C1030  C     0.86419   0.16710   0.66169   0.00000  Uiso   1.00
C1031  C     0.78356   0.16812   0.89028   0.00000  Uiso   1.00
C1032  C     0.88539   0.16397   0.60962   0.00000  Uiso   1.00
C1033  C     0.75129   0.22310   0.95276   0.00000  Uiso   1.00
C1034  C     0.94065   0.12365   0.53966   0.00000  Uiso   1.00
C1035  C     0.74545   0.19666   0.91721   0.00000  Uiso   1.00
C1036  C     0.93249   0.14625   0.58319   0.00000  Uiso   1.00
C1037  C     0.81419   0.15319   0.91065   0.00000  Uiso   1.00
C1038  C     0.85632   0.17435   0.58541   0.00000  Uiso   1.00
C1039  C     0.82128   0.17713   0.94674   0.00000  Uiso   1.00
C1040  C     0.87321   0.16534   0.53646   0.00000  Uiso   1.00
C1041  C     0.79075   0.21442   0.96624   0.00000  Uiso   1.00
C1042  C     0.90955   0.13291   0.51617   0.00000  Uiso   1.00
C1043  C     0.85581   0.16415   0.96548   0.00000  Uiso   1.00
C1044  C     0.85187   0.18511   0.50888   0.00000  Uiso   1.00
H1045  H     0.82114   0.19024   0.60434   0.00000  Uiso   1.00
H1046  H     0.83323   0.12361   0.89591   0.00000  Uiso   1.00
H1047  H     0.86211   0.29706   0.80449   0.00000  Uiso   1.00
H1048  H     0.80473   0.03625   0.69534   0.00000  Uiso   1.00
H1049  H     0.86384   0.04038   0.80317   0.00000  Uiso   1.00
H1050  H     0.80245   0.29296   0.69707   0.00000  Uiso   1.00
N1051  N     0.71426   0.16668   0.75001   0.00000  Uiso   1.00
N1052  N     0.95241   0.16666   0.74999   0.00000  Uiso   1.00
O1053  O     0.79512   0.22775   0.75000   0.00000  Uiso   1.00
O1054  O     0.87154   0.10558   0.74999   0.00000  Uiso   1.00
O1055  O     0.87157   0.22774   0.75000   0.00000  Uiso   1.00
O1056  O     0.79510   0.10559   0.75000   0.00000  Uiso   1.00
O1057  O     0.77328   0.16667   0.81612   0.00000  Uiso   1.00
O1058  O     0.89339   0.16666   0.68387   0.00000  Uiso   1.00
O1059  O     0.84972   0.16666   0.81612   0.00000  Uiso   1.00
O1060  O     0.81695   0.16667   0.68388   0.00000  Uiso   1.00
Zn1061 Zn    0.78229   0.16667   0.75000   0.00000  Uiso   1.00
Zn1062 Zn    0.88438   0.16666   0.75000   0.00000  Uiso   1.00
O1063  O     0.77831   0.28146   0.51291   0.00000  Uiso   1.00
H1064  H     0.78029   0.29431   0.98359   0.00000  Uiso   1.00
O1065  O     0.94511   0.07631   0.95655   0.00000  Uiso   1.00
H1066  H     0.93481   0.05946   0.93437   0.00000  Uiso   1.00
S1067  S     0.98335   0.16757   0.59079   0.00000  Uiso   1.00
O1068  O     0.67792   0.13436   0.60413   0.00000  Uiso   1.00
O1069  O     0.68278   0.18292   0.54449   0.00000  Uiso   1.00
O1070  O     0.96698   0.20863   0.63171   0.00000  Uiso   1.00
H1071  H     0.99682   0.21520   0.63651   0.00000  Uiso   1.00
S1072  S     0.68691   0.18094   0.92576   0.00000  Uiso   1.00
O1073  O     0.67464   0.18916   0.88411   0.00000  Uiso   1.00
O1074  O     0.68716   0.13427   0.93067   0.00000  Uiso   1.00
O1075  O     0.97752   0.20499   0.97497   0.00000  Uiso   1.00
H1076  H     0.95555   0.22106   0.96405   0.00000  Uiso   1.00
O1077  O     0.71694   0.25491   0.97716   0.00000  Uiso   1.00
H1078  H     0.70021   0.26355   0.95663   0.00000  Uiso   1.00
O1079  O     0.98127   0.09696   0.51737   0.00000  Uiso   1.00
H1080  H     0.99490   0.08963   0.54076   0.00000  Uiso   1.00
S1081  S     0.84771   0.26514   0.55554   0.00000  Uiso   1.00
O1082  O     0.89591   0.25271   0.55649   0.00000  Uiso   1.00
O1083  O     0.85164   0.30728   0.53479   0.00000  Uiso   1.00
O1084  O     0.80591   0.27024   0.61121   0.00000  Uiso   1.00
H1085  H     0.77559   0.27959   0.60818   0.00000  Uiso   1.00
S1086  S     0.92329   0.11988   0.88192   0.00000  Uiso   1.00
O1087  O     0.91655   0.15723   0.85699   0.00000  Uiso   1.00
O1088  O     0.97647   0.11115   0.86865   0.00000  Uiso   1.00
O1089  O     0.90210   0.07685   0.86387   0.00000  Uiso   1.00
H1090  H     0.92380   0.07092   0.83020   0.00000  Uiso   1.00
S1091  S     0.97539   0.08783   0.69774   0.00000  Uiso   1.00
O1092  O     0.95392   0.05545   0.73271   0.00000  Uiso   1.00
O1093  O     0.94258   0.09746   0.67296   0.00000  Uiso   1.00
O1094  O     0.69400   0.06644   0.65597   0.00000  Uiso   1.00
H1095  H     0.68539   0.03924   0.64485   0.00000  Uiso   1.00
S1096  S     0.69201   0.24707   0.79969   0.00000  Uiso   1.00
O1097  O     0.72520   0.23926   0.82458   0.00000  Uiso   1.00
O1098  O     0.71336   0.27780   0.76267   0.00000  Uiso   1.00
O1099  O     0.97410   0.27004   0.84103   0.00000  Uiso   1.00
H1100  H     0.98323   0.29787   0.85001   0.00000  Uiso   1.00
O1101  O     0.73276   0.09905   0.71238   0.00000  Uiso   1.00
H1102  H     0.71565   0.07376   0.72607   0.00000  Uiso   1.00
O1103  O     0.93447   0.23385   0.79153   0.00000  Uiso   1.00
H1104  H     0.90280   0.22261   0.80933   0.00000  Uiso   1.00
C1105  C     0.16599   0.57982   0.75053   0.00000  Uiso   1.00
C1106  C     0.16737   0.42017   0.74942   0.00000  Uiso   1.00
C1107  C     0.16331   0.56013   0.52132   0.00000  Uiso   1.00
C1108  C     0.22608   0.46399   0.94457   0.00000  Uiso   1.00
C1109  C     0.13257   0.57442   0.50011   0.00000  Uiso   1.00
C1110  C     0.24920   0.44630   0.97215   0.00000  Uiso   1.00
C1111  C     0.18309   0.64628   0.78059   0.00000  Uiso   1.00
C1112  C     0.15034   0.35370   0.71930   0.00000  Uiso   1.00
C1113  C     0.18446   0.35597   0.77961   0.00000  Uiso   1.00
C1114  C     0.14881   0.64402   0.72039   0.00000  Uiso   1.00
C1115  C     0.16822   0.37591   0.74889   0.00000  Uiso   1.00
C1116  C     0.16516   0.62408   0.75103   0.00000  Uiso   1.00
C1117  C     0.31990   0.46643   0.72858   0.00000  Uiso   1.00
C1118  C     0.01359   0.53366   0.77122   0.00000  Uiso   1.00
C1119  C     0.03358   0.46637   0.73042   0.00000  Uiso   1.00
C1120  C     0.29968   0.53321   0.77074   0.00000  Uiso   1.00
C1121  C     0.13607   0.49921   0.83827   0.00000  Uiso   1.00
C1122  C     0.19752   0.50043   0.66169   0.00000  Uiso   1.00
C1123  C     0.11689   0.50145   0.89028   0.00000  Uiso   1.00
C1124  C     0.21873   0.49730   0.60962   0.00000  Uiso   1.00
C1125  C     0.08462   0.55644   0.95276   0.00000  Uiso   1.00
C1126  C     0.27398   0.45698   0.53966   0.00000  Uiso   1.00
C1127  C     0.07878   0.53000   0.91721   0.00000  Uiso   1.00
C1128  C     0.26582   0.47959   0.58319   0.00000  Uiso   1.00
C1129  C     0.14753   0.48653   0.91065   0.00000  Uiso   1.00
C1130  C     0.18965   0.50769   0.58541   0.00000  Uiso   1.00
C1131  C     0.15461   0.51046   0.94674   0.00000  Uiso   1.00
C1132  C     0.20654   0.49868   0.53646   0.00000  Uiso   1.00
C1133  C     0.12409   0.54775   0.96624   0.00000  Uiso   1.00
C1134  C     0.24288   0.46624   0.51617   0.00000  Uiso   1.00
C1135  C     0.18915   0.49748   0.96548   0.00000  Uiso   1.00
C1136  C     0.18521   0.51844   0.50888   0.00000  Uiso   1.00
H1137  H     0.15447   0.52357   0.60434   0.00000  Uiso   1.00
H1138  H     0.16656   0.45695   0.89591   0.00000  Uiso   1.00
H1139  H     0.19544   0.63039   0.80449   0.00000  Uiso   1.00
H1140  H     0.13806   0.36958   0.69534   0.00000  Uiso   1.00
H1141  H     0.19717   0.37371   0.80317   0.00000  Uiso   1.00
H1142  H     0.13579   0.62629   0.69707   0.00000  Uiso   1.00
N1143  N     0.04759   0.50001   0.75001   0.00000  Uiso   1.00
N1144  N     0.28574   0.49999   0.74999   0.00000  Uiso   1.00
O1145  O     0.12846   0.56108   0.75000   0.00000  Uiso   1.00
O1146  O     0.20488   0.43892   0.74999   0.00000  Uiso   1.00
O1147  O     0.20490   0.56107   0.75000   0.00000  Uiso   1.00
O1148  O     0.12843   0.43893   0.75000   0.00000  Uiso   1.00
O1149  O     0.10661   0.50001   0.81612   0.00000  Uiso   1.00
O1150  O     0.22672   0.49999   0.68387   0.00000  Uiso   1.00
O1151  O     0.18305   0.50000   0.81612   0.00000  Uiso   1.00
O1152  O     0.15028   0.50000   0.68388   0.00000  Uiso   1.00
Zn1153 Zn    0.11562   0.50001   0.75000   0.00000  Uiso   1.00
Zn1154 Zn    0.21771   0.49999   0.75000   0.00000  Uiso   1.00
O1155  O     0.11164   0.61479   0.51291   0.00000  Uiso   1.00
H1156  H     0.11363   0.62764   0.98359   0.00000  Uiso   1.00
O1157  O     0.27845   0.40965   0.95655   0.00000  Uiso   1.00
H1158  H     0.26815   0.39280   0.93437   0.00000  Uiso   1.00
S1159  S     0.31668   0.50091   0.59079   0.00000  Uiso   1.00
O1160  O     0.01125   0.46770   0.60413   0.00000  Uiso   1.00
O1161  O     0.01611   0.51626   0.54449   0.00000  Uiso   1.00
O1162  O     0.30031   0.54197   0.63171   0.00000  Uiso   1.00
H1163  H     0.33015   0.54853   0.63651   0.00000  Uiso   1.00
S1164  S     0.02024   0.51427   0.92576   0.00000  Uiso   1.00
O1165  O     0.00798   0.52250   0.88411   0.00000  Uiso   1.00
O1166  O     0.02050   0.46761   0.93067   0.00000  Uiso   1.00
O1167  O     0.31085   0.53832   0.97497   0.00000  Uiso   1.00
H1168  H     0.28888   0.55439   0.96405   0.00000  Uiso   1.00
O1169  O     0.05027   0.58825   0.97716   0.00000  Uiso   1.00
H1170  H     0.03355   0.59689   0.95663   0.00000  Uiso   1.00
O1171  O     0.31461   0.43029   0.51737   0.00000  Uiso   1.00
H1172  H     0.32823   0.42296   0.54076   0.00000  Uiso   1.00
S1173  S     0.18104   0.59848   0.55554   0.00000  Uiso   1.00
O1174  O     0.22925   0.58604   0.55649   0.00000  Uiso   1.00
O1175  O     0.18498   0.64062   0.53479   0.00000  Uiso   1.00
O1176  O     0.13924   0.60357   0.61121   0.00000  Uiso   1.00
H1177  H     0.10892   0.61292   0.60818   0.00000  Uiso   1.00
S1178  S     0.25662   0.45321   0.88192   0.00000  Uiso   1.00
O1179  O     0.24989   0.49056   0.85699   0.00000  Uiso   1.00
O1180  O     0.30980   0.44448   0.86865   0.00000  Uiso   1.00
O1181  O     0.23543   0.41018   0.86387   0.00000  Uiso   1.00
H1182  H     0.25714   0.40426   0.83020   0.00000  Uiso   1.00
S1183  S     0.30872   0.42116   0.69774   0.00000  Uiso   1.00
O1184  O     0.28725   0.38878   0.73271   0.00000  Uiso   1.00
O1185  O     0.27591   0.43080   0.67296   0.00000  Uiso   1.00
O1186  O     0.02733   0.39978   0.65597   0.00000  Uiso   1.00
H1187  H     0.01873   0.37258   0.64485   0.00000  Uiso   1.00
S1188  S     0.02534   0.58040   0.79969   0.00000  Uiso   1.00
O1189  O     0.05853   0.57260   0.82458   0.00000  Uiso   1.00
O1190  O     0.04669   0.61113   0.76267   0.00000  Uiso   1.00
O1191  O     0.30743   0.60337   0.84103   0.00000  Uiso   1.00
H1192  H     0.31657   0.63121   0.85001   0.00000  Uiso   1.00
O1193  O     0.06609   0.43239   0.71238   0.00000  Uiso   1.00
H1194  H     0.04898   0.40710   0.72607   0.00000  Uiso   1.00
O1195  O     0.26781   0.56719   0.79153   0.00000  Uiso   1.00
H1196  H     0.23614   0.55595   0.80933   0.00000  Uiso   1.00
C1197  C     0.49933   0.57982   0.75053   0.00000  Uiso   1.00
C1198  C     0.50070   0.42017   0.74942   0.00000  Uiso   1.00
C1199  C     0.49664   0.56013   0.52132   0.00000  Uiso   1.00
C1200  C     0.55942   0.46399   0.94457   0.00000  Uiso   1.00
C1201  C     0.46590   0.57442   0.50011   0.00000  Uiso   1.00
C1202  C     0.58253   0.44630   0.97215   0.00000  Uiso   1.00
C1203  C     0.51642   0.64628   0.78059   0.00000  Uiso   1.00
C1204  C     0.48368   0.35370   0.71930   0.00000  Uiso   1.00
C1205  C     0.51780   0.35597   0.77961   0.00000  Uiso   1.00
C1206  C     0.48214   0.64402   0.72039   0.00000  Uiso   1.00
C1207  C     0.50156   0.37591   0.74889   0.00000  Uiso   1.00
C1208  C     0.49849   0.62408   0.75103   0.00000  Uiso   1.00
C1209  C     0.65324   0.46643   0.72858   0.00000  Uiso   1.00
C1210  C     0.34693   0.53366   0.77122   0.00000  Uiso   1.00
C1211  C     0.36692   0.46637   0.73042   0.00000  Uiso   1.00
C1212  C     0.63301   0.53321   0.77074   0.00000  Uiso   1.00
C1213  C     0.46940   0.49921   0.83827   0.00000  Uiso   1.00
C1214  C     0.53085   0.50043   0.66169   0.00000  Uiso   1.00
C1215  C     0.45023   0.50145   0.89028   0.00000  Uiso   1.00
C1216  C     0.55206   0.49730   0.60962   0.00000  Uiso   1.00
C1217  C     0.41796   0.55644   0.95276   0.00000  Uiso   1.00
C1218  C     0.60731   0.45698   0.53966   0.00000  Uiso   1.00
C1219  C     0.41212   0.53000   0.91721   0.00000  Uiso   1.00
C1220  C     0.59916   0.47959   0.58319   0.00000  Uiso   1.00
C1221  C     0.48086   0.48653   0.91065   0.00000  Uiso   1.00
C1222  C     0.52299   0.50769   0.58541   0.00000  Uiso   1.00
C1223  C     0.48794   0.51046   0.94674   0.00000  Uiso   1.00
C1224  C     0.53987   0.49868   0.53646   0.00000  Uiso   1.00
C1225  C     0.45742   0.54775   0.96624   0.00000  Uiso   1.00
C1226  C     0.57621   0.46624   0.51617   0.00000  Uiso   1.00
C1227  C     0.52248   0.49748   0.96548   0.00000  Uiso   1.00
C1228  C     0.51854   0.51844   0.50888   0.00000  Uiso   1.00
H1229  H     0.48780   0.52357   0.60434   0.00000  Uiso   1.00
H1230  H     0.49990   0.45695   0.89591   0.00000  Uiso   1.00
H1231  H     0.52878   0.63039   0.80449   0.00000  Uiso   1.00
H1232  H     0.47140   0.36958   0.69534   0.00000  Uiso   1.00
H1233  H     0.53051   0.37371   0.80317   0.00000  Uiso   1.00
H1234  H     0.46912   0.62629   0.69707   0.00000  Uiso   1.00
N1235  N     0.38093   0.50001   0.75001   0.00000  Uiso   1.00
N1236  N     0.61907   0.49999   0.74999   0.00000  Uiso   1.00
O1237  O     0.46179   0.56108   0.75000   0.00000  Uiso   1.00
O1238  O     0.53821   0.43892   0.74999   0.00000  Uiso   1.00
O1239  O     0.53823   0.56107   0.75000   0.00000  Uiso   1.00
O1240  O     0.46177   0.43893   0.75000   0.00000  Uiso   1.00
O1241  O     0.43994   0.50001   0.81612   0.00000  Uiso   1.00
O1242  O     0.56006   0.49999   0.68387   0.00000  Uiso   1.00
O1243  O     0.51639   0.50000   0.81612   0.00000  Uiso   1.00
O1244  O     0.48361   0.50000   0.68388   0.00000  Uiso   1.00
Zn1245 Zn    0.44896   0.50001   0.75000   0.00000  Uiso   1.00
Zn1246 Zn    0.55104   0.49999   0.75000   0.00000  Uiso   1.00
O1247  O     0.44498   0.61479   0.51291   0.00000  Uiso   1.00
H1248  H     0.44696   0.62764   0.98359   0.00000  Uiso   1.00
O1249  O     0.61178   0.40965   0.95655   0.00000  Uiso   1.00
H1250  H     0.60148   0.39280   0.93437   0.00000  Uiso   1.00
S1251  S     0.65002   0.50091   0.59079   0.00000  Uiso   1.00
O1252  O     0.34459   0.46770   0.60413   0.00000  Uiso   1.00
O1253  O     0.34945   0.51626   0.54449   0.00000  Uiso   1.00
O1254  O     0.63365   0.54197   0.63171   0.00000  Uiso   1.00
H1255  H     0.66349   0.54853   0.63651   0.00000  Uiso   1.00
S1256  S     0.35357   0.51427   0.92576   0.00000  Uiso   1.00
O1257  O     0.34131   0.52250   0.88411   0.00000  Uiso   1.00
O1258  O     0.35383   0.46761   0.93067   0.00000  Uiso   1.00
O1259  O     0.64419   0.53832   0.97497   0.00000  Uiso   1.00
H1260  H     0.62221   0.55439   0.96405   0.00000  Uiso   1.00
O1261  O     0.38360   0.58825   0.97716   0.00000  Uiso   1.00
H1262  H     0.36688   0.59689   0.95663   0.00000  Uiso   1.00
O1263  O     0.64794   0.43029   0.51737   0.00000  Uiso   1.00
H1264  H     0.66157   0.42296   0.54076   0.00000  Uiso   1.00
S1265  S     0.51438   0.59848   0.55554   0.00000  Uiso   1.00
O1266  O     0.56258   0.58604   0.55649   0.00000  Uiso   1.00
O1267  O     0.51831   0.64062   0.53479   0.00000  Uiso   1.00
O1268  O     0.47258   0.60357   0.61121   0.00000  Uiso   1.00
H1269  H     0.44226   0.61292   0.60818   0.00000  Uiso   1.00
S1270  S     0.58995   0.45321   0.88192   0.00000  Uiso   1.00
O1271  O     0.58322   0.49056   0.85699   0.00000  Uiso   1.00
O1272  O     0.64313   0.44448   0.86865   0.00000  Uiso   1.00
O1273  O     0.56877   0.41018   0.86387   0.00000  Uiso   1.00
H1274  H     0.59047   0.40426   0.83020   0.00000  Uiso   1.00
S1275  S     0.64206   0.42116   0.69774   0.00000  Uiso   1.00
O1276  O     0.62058   0.38878   0.73271   0.00000  Uiso   1.00
O1277  O     0.60924   0.43080   0.67296   0.00000  Uiso   1.00
O1278  O     0.36066   0.39978   0.65597   0.00000  Uiso   1.00
H1279  H     0.35206   0.37258   0.64485   0.00000  Uiso   1.00
S1280  S     0.35867   0.58040   0.79969   0.00000  Uiso   1.00
O1281  O     0.39186   0.57260   0.82458   0.00000  Uiso   1.00
O1282  O     0.38002   0.61113   0.76267   0.00000  Uiso   1.00
O1283  O     0.64077   0.60337   0.84103   0.00000  Uiso   1.00
H1284  H     0.64990   0.63121   0.85001   0.00000  Uiso   1.00
O1285  O     0.39942   0.43239   0.71238   0.00000  Uiso   1.00
H1286  H     0.38231   0.40710   0.72607   0.00000  Uiso   1.00
O1287  O     0.60114   0.56719   0.79153   0.00000  Uiso   1.00
H1288  H     0.56947   0.55595   0.80933   0.00000  Uiso   1.00
C1289  C     0.83266   0.57982   0.75053   0.00000  Uiso   1.00
C1290  C     0.83403   0.42017   0.74942   0.00000  Uiso   1.00
C1291  C     0.82998   0.56013   0.52132   0.00000  Uiso   1.00
C1292  C     0.89275   0.46399   0.94457   0.00000  Uiso   1.00
C1293  C     0.79923   0.57442   0.50011   0.00000  Uiso   1.00
C1294  C     0.91587   0.44630   0.97215   0.00000  Uiso   1.00
C1295  C     0.84975   0.64628   0.78059   0.00000  Uiso   1.00
C1296  C     0.81701   0.35370   0.71930   0.00000  Uiso   1.00
C1297  C     0.85113   0.35597   0.77961   0.00000  Uiso   1.00
C1298  C     0.81548   0.64402   0.72039   0.00000  Uiso   1.00
C1299  C     0.83489   0.37591   0.74889   0.00000  Uiso   1.00
C1300  C     0.83182   0.62408   0.75103   0.00000  Uiso   1.00
C1301  C     0.98657   0.46643   0.72858   0.00000  Uiso   1.00
C1302  C     0.68026   0.53366   0.77122   0.00000  Uiso   1.00
C1303  C     0.70025   0.46637   0.73042   0.00000  Uiso   1.00
C1304  C     0.96634   0.53321   0.77074   0.00000  Uiso   1.00
C1305  C     0.80274   0.49921   0.83827   0.00000  Uiso   1.00
C1306  C     0.86419   0.50043   0.66169   0.00000  Uiso   1.00
C1307  C     0.78356   0.50145   0.89028   0.00000  Uiso   1.00
C1308  C     0.88539   0.49730   0.60962   0.00000  Uiso   1.00
C1309  C     0.75129   0.55644   0.95276   0.00000  Uiso   1.00
C1310  C     0.94065   0.45698   0.53966   0.00000  Uiso   1.00
C1311  C     0.74545   0.53000   0.91721   0.00000  Uiso   1.00
C1312  C     0.93249   0.47959   0.58319   0.00000  Uiso   1.00
C1313  C     0.81419   0.48653   0.91065   0.00000  Uiso   1.00
C1314  C     0.85632   0.50769   0.58541   0.00000  Uiso   1.00
C1315  C     0.82128   0.51046   0.94674   0.00000  Uiso   1.00
C1316  C     0.87321   0.49868   0.53646   0.00000  Uiso   1.00
C1317  C     0.79075   0.54775   0.96624   0.00000  Uiso   1.00
C1318  C     0.90955   0.46624   0.51617   0.00000  Uiso   1.00
C1319  C     0.85581   0.49748   0.96548   0.00000  Uiso   1.00
C1320  C     0.85187   0.51844   0.50888   0.00000  Uiso   1.00
H1321  H     0.82114   0.52357   0.60434   0.00000  Uiso   1.00
H1322  H     0.83323   0.45695   0.89591   0.00000  Uiso   1.00
H1323  H     0.86211   0.63039   0.80449   0.00000  Uiso   1.00
H1324  H     0.80473   0.36958   0.69534   0.00000  Uiso   1.00
H1325  H     0.86384   0.37371   0.80317   0.00000  Uiso   1.00
H1326  H     0.80245   0.62629   0.69707   0.00000  Uiso   1.00
N1327  N     0.71426   0.50001   0.75001   0.00000  Uiso   1.00
N1328  N     0.95241   0.49999   0.74999   0.00000  Uiso   1.00
O1329  O     0.79512   0.56108   0.75000   0.00000  Uiso   1.00
O1330  O     0.87154   0.43892   0.74999   0.00000  Uiso   1.00
O1331  O     0.87157   0.56107   0.75000   0.00000  Uiso   1.00
O1332  O     0.79510   0.43893   0.75000   0.00000  Uiso   1.00
O1333  O     0.77328   0.50001   0.81612   0.00000  Uiso   1.00
O1334  O     0.89339   0.49999   0.68387   0.00000  Uiso   1.00
O1335  O     0.84972   0.50000   0.81612   0.00000  Uiso   1.00
O1336  O     0.81695   0.50000   0.68388   0.00000  Uiso   1.00
Zn1337 Zn    0.78229   0.50001   0.75000   0.00000  Uiso   1.00
Zn1338 Zn    0.88438   0.49999   0.75000   0.00000  Uiso   1.00
O1339  O     0.77831   0.61479   0.51291   0.00000  Uiso   1.00
H1340  H     0.78029   0.62764   0.98359   0.00000  Uiso   1.00
O1341  O     0.94511   0.40965   0.95655   0.00000  Uiso   1.00
H1342  H     0.93481   0.39280   0.93437   0.00000  Uiso   1.00
S1343  S     0.98335   0.50091   0.59079   0.00000  Uiso   1.00
O1344  O     0.67792   0.46770   0.60413   0.00000  Uiso   1.00
O1345  O     0.68278   0.51626   0.54449   0.00000  Uiso   1.00
O1346  O     0.96698   0.54197   0.63171   0.00000  Uiso   1.00
H1347  H     0.99682   0.54853   0.63651   0.00000  Uiso   1.00
S1348  S     0.68691   0.51427   0.92576   0.00000  Uiso   1.00
O1349  O     0.67464   0.52250   0.88411   0.00000  Uiso   1.00
O1350  O     0.68716   0.46761   0.93067   0.00000  Uiso   1.00
O1351  O     0.97752   0.53832   0.97497   0.00000  Uiso   1.00
H1352  H     0.95555   0.55439   0.96405   0.00000  Uiso   1.00
O1353  O     0.71694   0.58825   0.97716   0.00000  Uiso   1.00
H1354  H     0.70021   0.59689   0.95663   0.00000  Uiso   1.00
O1355  O     0.98127   0.43029   0.51737   0.00000  Uiso   1.00
H1356  H     0.99490   0.42296   0.54076   0.00000  Uiso   1.00
S1357  S     0.84771   0.59848   0.55554   0.00000  Uiso   1.00
O1358  O     0.89591   0.58604   0.55649   0.00000  Uiso   1.00
O1359  O     0.85164   0.64062   0.53479   0.00000  Uiso   1.00
O1360  O     0.80591   0.60357   0.61121   0.00000  Uiso   1.00
H1361  H     0.77559   0.61292   0.60818   0.00000  Uiso   1.00
S1362  S     0.92329   0.45321   0.88192   0.00000  Uiso   1.00
O1363  O     0.91655   0.49056   0.85699   0.00000  Uiso   1.00
O1364  O     0.97647   0.44448   0.86865   0.00000  Uiso   1.00
O1365  O     0.90210   0.41018   0.86387   0.00000  Uiso   1.00
H1366  H     0.92380   0.40426   0.83020   0.00000  Uiso   1.00
S1367  S     0.97539   0.42116   0.69774   0.00000  Uiso   1.00
O1368  O     0.95392   0.38878   0.73271   0.00000  Uiso   1.00
O1369  O     0.94258   0.43080   0.67296   0.00000  Uiso   1.00
O1370  O     0.69400   0.39978   0.65597   0.00000  Uiso   1.00
H1371  H     0.68539   0.37258   0.64485   0.00000  Uiso   1.00
S1372  S     0.69201   0.58040   0.79969   0.00000  Uiso   1.00
O1373  O     0.72520   0.57260   0.82458   0.00000  Uiso   1.00
O1374  O     0.71336   0.61113   0.76267   0.00000  Uiso   1.00
O1375  O     0.97410   0.60337   0.84103   0.00000  Uiso   1.00
H1376  H     0.98323   0.63121   0.85001   0.00000  Uiso   1.00
O1377  O     0.73276   0.43239   0.71238   0.00000  Uiso   1.00
H1378  H     0.71565   0.40710   0.72607   0.00000  Uiso   1.00
O1379  O     0.93447   0.56719   0.79153   0.00000  Uiso   1.00
H1380  H     0.90280   0.55595   0.80933   0.00000  Uiso   1.00
C1381  C     0.16599   0.91315   0.75053   0.00000  Uiso   1.00
C1382  C     0.16737   0.75351   0.74942   0.00000  Uiso   1.00
C1383  C     0.16331   0.89347   0.52132   0.00000  Uiso   1.00
C1384  C     0.22608   0.79732   0.94457   0.00000  Uiso   1.00
C1385  C     0.13257   0.90775   0.50011   0.00000  Uiso   1.00
C1386  C     0.24920   0.77963   0.97215   0.00000  Uiso   1.00
C1387  C     0.18309   0.97961   0.78059   0.00000  Uiso   1.00
C1388  C     0.15034   0.68703   0.71930   0.00000  Uiso   1.00
C1389  C     0.18446   0.68931   0.77961   0.00000  Uiso   1.00
C1390  C     0.14881   0.97735   0.72039   0.00000  Uiso   1.00
C1391  C     0.16822   0.70924   0.74889   0.00000  Uiso   1.00
C1392  C     0.16516   0.95741   0.75103   0.00000  Uiso   1.00
C1393  C     0.31990   0.79976   0.72858   0.00000  Uiso   1.00
C1394  C     0.01359   0.86699   0.77122   0.00000  Uiso   1.00
C1395  C     0.03358   0.79970   0.73042   0.00000  Uiso   1.00
C1396  C     0.29968   0.86655   0.77074   0.00000  Uiso   1.00
C1397  C     0.13607   0.83254   0.83827   0.00000  Uiso   1.00
C1398  C     0.19752   0.83377   0.66169   0.00000  Uiso   1.00
C1399  C     0.11689   0.83478   0.89028   0.00000  Uiso   1.00
C1400  C     0.21873   0.83064   0.60962   0.00000  Uiso   1.00
C1401  C     0.08462   0.88977   0.95276   0.00000  Uiso   1.00
C1402  C     0.27398   0.79032   0.53966   0.00000  Uiso   1.00
C1403  C     0.07878   0.86333   0.91721   0.00000  Uiso   1.00
C1404  C     0.26582   0.81292   0.58319   0.00000  Uiso   1.00
C1405  C     0.14753   0.81986   0.91065   0.00000  Uiso   1.00
C1406  C     0.18965   0.84102   0.58541   0.00000  Uiso   1.00
C1407  C     0.15461   0.84380   0.94674   0.00000  Uiso   1.00
C1408  C     0.20654   0.83201   0.53646   0.00000  Uiso   1.00
C1409  C     0.12409   0.88108   0.96624   0.00000  Uiso   1.00
C1410  C     0.24288   0.79957   0.51617   0.00000  Uiso   1.00
C1411  C     0.18915   0.83081   0.96548   0.00000  Uiso   1.00
C1412  C     0.18521   0.85178   0.50888   0.00000  Uiso   1.00
H1413  H     0.15447   0.85690   0.60434   0.00000  Uiso   1.00
H1414  H     0.16656   0.79028   0.89591   0.00000  Uiso   1.00
H1415  H     0.19544   0.96373   0.80449   0.00000  Uiso   1.00
H1416  H     0.13806   0.70291   0.69534   0.00000  Uiso   1.00
H1417  H     0.19717   0.70705   0.80317   0.00000  Uiso   1.00
H1418  H     0.13579   0.95962   0.69707   0.00000  Uiso   1.00
N1419  N     0.04759   0.83334   0.75001   0.00000  Uiso   1.00
N1420  N     0.28574   0.83332   0.74999   0.00000  Uiso   1.00
O1421  O     0.12846   0.89442   0.75000   0.00000  Uiso   1.00
O1422  O     0.20488   0.77225   0.74999   0.00000  Uiso   1.00
O1423  O     0.20490   0.89441   0.75000   0.00000  Uiso   1.00
O1424  O     0.12843   0.77226   0.75000   0.00000  Uiso   1.00
O1425  O     0.10661   0.83334   0.81612   0.00000  Uiso   1.00
O1426  O     0.22672   0.83333   0.68387   0.00000  Uiso   1.00
O1427  O     0.18305   0.83333   0.81612   0.00000  Uiso   1.00
O1428  O     0.15028   0.83334   0.68388   0.00000  Uiso   1.00
Zn1429 Zn    0.11562   0.83334   0.75000   0.00000  Uiso   1.00
Zn1430 Zn    0.21771   0.83333   0.75000   0.00000  Uiso   1.00
O1431  O     0.11164   0.94812   0.51291   0.00000  Uiso   1.00
H1432  H     0.11363   0.96098   0.98359   0.00000  Uiso   1.00
O1433  O     0.27845   0.74298   0.95655   0.00000  Uiso   1.00
H1434  H     0.26815   0.72613   0.93437   0.00000  Uiso   1.00
S1435  S     0.31668   0.83424   0.59079   0.00000  Uiso   1.00
O1436  O     0.01125   0.80103   0.60413   0.00000  Uiso   1.00
O1437  O     0.01611   0.84959   0.54449   0.00000  Uiso   1.00
O1438  O     0.30031   0.87530   0.63171   0.00000  Uiso   1.00
H1439  H     0.33015   0.88187   0.63651   0.00000  Uiso   1.00
S1440  S     0.02024   0.84761   0.92576   0.00000  Uiso   1.00
O1441  O     0.00798   0.85583   0.88411   0.00000  Uiso   1.00
O1442  O     0.02050   0.80094   0.93067   0.00000  Uiso   1.00
O1443  O     0.31085   0.87165   0.97497   0.00000  Uiso   1.00
H1444  H     0.28888   0.88773   0.96405   0.00000  Uiso   1.00
O1445  O     0.05027   0.92158   0.97716   0.00000  Uiso   1.00
H1446  H     0.03355   0.93022   0.95663   0.00000  Uiso   1.00
O1447  O     0.31461   0.76363   0.51737   0.00000  Uiso   1.00
H1448  H     0.32823   0.75630   0.54076   0.00000  Uiso   1.00
S1449  S     0.18104   0.93181   0.55554   0.00000  Uiso   1.00
O1450  O     0.22925   0.91937   0.55649   0.00000  Uiso   1.00
O1451  O     0.18498   0.97395   0.53479   0.00000  Uiso   1.00
O1452  O     0.13924   0.93691   0.61121   0.00000  Uiso   1.00
H1453  H     0.10892   0.94625   0.60818   0.00000  Uiso   1.00
S1454  S     0.25662   0.78654   0.88192   0.00000  Uiso   1.00
O1455  O     0.24989   0.82390   0.85699   0.00000  Uiso   1.00
O1456  O     0.30980   0.77782   0.86865   0.00000  Uiso   1.00
O1457  O     0.23543   0.74352   0.86387   0.00000  Uiso   1.00
H1458  H     0.25714   0.73759   0.83020   0.00000  Uiso   1.00
S1459  S     0.30872   0.75449   0.69774   0.00000  Uiso   1.00
O1460  O     0.28725   0.72211   0.73271   0.00000  Uiso   1.00
O1461  O     0.27591   0.76413   0.67296   0.00000  Uiso   1.00
O1462  O     0.02733   0.73311   0.65597   0.00000  Uiso   1.00
H1463  H     0.01873   0.70591   0.64485   0.00000  Uiso   1.00
S1464  S     0.02534   0.91374   0.79969   0.00000  Uiso   1.00
O1465  O     0.05853   0.90593   0.82458   0.00000  Uiso   1.00
O1466  O     0.04669   0.94447   0.76267   0.00000  Uiso   1.00
O1467  O     0.30743   0.93671   0.84103   0.00000  Uiso   1.00
H1468  H     0.31657   0.96454   0.85001   0.00000  Uiso   1.00
O1469  O     0.06609   0.76572   0.71238   0.00000  Uiso   1.00
H1470  H     0.04898   0.74043   0.72607   0.00000  Uiso   1.00
O1471  O     0.26781   0.90052   0.79153   0.00000  Uiso   1.00
H1472  H     0.23614   0.88928   0.80933   0.00000  Uiso   1.00
C1473  C     0.49933   0.91315   0.75053   0.00000  Uiso   1.00
C1474  C     0.50070   0.75351   0.74942   0.00000  Uiso   1.00
C1475  C     0.49664   0.89347   0.52132   0.00000  Uiso   1.00
C1476  C     0.55942   0.79732   0.94457   0.00000  Uiso   1.00
C1477  C     0.46590   0.90775   0.50011   0.00000  Uiso   1.00
C1478  C     0.58253   0.77963   0.97215   0.00000  Uiso   1.00
C1479  C     0.51642   0.97961   0.78059   0.00000  Uiso   1.00
C1480  C     0.48368   0.68703   0.71930   0.00000  Uiso   1.00
C1481  C     0.51780   0.68931   0.77961   0.00000  Uiso   1.00
C1482  C     0.48214   0.97735   0.72039   0.00000  Uiso   1.00
C1483  C     0.50156   0.70924   0.74889   0.00000  Uiso   1.00
C1484  C     0.49849   0.95741   0.75103   0.00000  Uiso   1.00
C1485  C     0.65324   0.79976   0.72858   0.00000  Uiso   1.00
C1486  C     0.34693   0.86699   0.77122   0.00000  Uiso   1.00
C1487  C     0.36692   0.79970   0.73042   0.00000  Uiso   1.00
C1488  C     0.63301   0.86655   0.77074   0.00000  Uiso   1.00
C1489  C     0.46940   0.83254   0.83827   0.00000  Uiso   1.00
C1490  C     0.53085   0.83377   0.66169   0.00000  Uiso   1.00
C1491  C     0.45023   0.83478   0.89028   0.00000  Uiso   1.00
C1492  C     0.55206   0.83064   0.60962   0.00000  Uiso   1.00
C1493  C     0.41796   0.88977   0.95276   0.00000  Uiso   1.00
C1494  C     0.60731   0.79032   0.53966   0.00000  Uiso   1.00
C1495  C     0.41212   0.86333   0.91721   0.00000  Uiso   1.00
C1496  C     0.59916   0.81292   0.58319   0.00000  Uiso   1.00
C1497  C     0.48086   0.81986   0.91065   0.00000  Uiso   1.00
C1498  C     0.52299   0.84102   0.58541   0.00000  Uiso   1.00
C1499  C     0.48794   0.84380   0.94674   0.00000  Uiso   1.00
C1500  C     0.53987   0.83201   0.53646   0.00000  Uiso   1.00
C1501  C     0.45742   0.88108   0.96624   0.00000  Uiso   1.00
C1502  C     0.57621   0.79957   0.51617   0.00000  Uiso   1.00
C1503  C     0.52248   0.83081   0.96548   0.00000  Uiso   1.00
C1504  C     0.51854   0.85178   0.50888   0.00000  Uiso   1.00
H1505  H     0.48780   0.85690   0.60434   0.00000  Uiso   1.00
H1506  H     0.49990   0.79028   0.89591   0.00000  Uiso   1.00
H1507  H     0.52878   0.96373   0.80449   0.00000  Uiso   1.00
H1508  H     0.47140   0.70291   0.69534   0.00000  Uiso   1.00
H1509  H     0.53051   0.70705   0.80317   0.00000  Uiso   1.00
H1510  H     0.46912   0.95962   0.69707   0.00000  Uiso   1.00
N1511  N     0.38093   0.83334   0.75001   0.00000  Uiso   1.00
N1512  N     0.61907   0.83332   0.74999   0.00000  Uiso   1.00
O1513  O     0.46179   0.89442   0.75000   0.00000  Uiso   1.00
O1514  O     0.53821   0.77225   0.74999   0.00000  Uiso   1.00
O1515  O     0.53823   0.89441   0.75000   0.00000  Uiso   1.00
O1516  O     0.46177   0.77226   0.75000   0.00000  Uiso   1.00
O1517  O     0.43994   0.83334   0.81612   0.00000  Uiso   1.00
O1518  O     0.56006   0.83333   0.68387   0.00000  Uiso   1.00
O1519  O     0.51639   0.83333   0.81612   0.00000  Uiso   1.00
O1520  O     0.48361   0.83334   0.68388   0.00000  Uiso   1.00
Zn1521 Zn    0.44896   0.83334   0.75000   0.00000  Uiso   1.00
Zn1522 Zn    0.55104   0.83333   0.75000   0.00000  Uiso   1.00
O1523  O     0.44498   0.94812   0.51291   0.00000  Uiso   1.00
H1524  H     0.44696   0.96098   0.98359   0.00000  Uiso   1.00
O1525  O     0.61178   0.74298   0.95655   0.00000  Uiso   1.00
H1526  H     0.60148   0.72613   0.93437   0.00000  Uiso   1.00
S1527  S     0.65002   0.83424   0.59079   0.00000  Uiso   1.00
O1528  O     0.34459   0.80103   0.60413   0.00000  Uiso   1.00
O1529  O     0.34945   0.84959   0.54449   0.00000  Uiso   1.00
O1530  O     0.63365   0.87530   0.63171   0.00000  Uiso   1.00
H1531  H     0.66349   0.88187   0.63651   0.00000  Uiso   1.00
S1532  S     0.35357   0.84761   0.92576   0.00000  Uiso   1.00
O1533  O     0.34131   0.85583   0.88411   0.00000  Uiso   1.00
O1534  O     0.35383   0.80094   0.93067   0.00000  Uiso   1.00
O1535  O     0.64419   0.87165   0.97497   0.00000  Uiso   1.00
H1536  H     0.62221   0.88773   0.96405   0.00000  Uiso   1.00
O1537  O     0.38360   0.92158   0.97716   0.00000  Uiso   1.00
H1538  H     0.36688   0.93022   0.95663   0.00000  Uiso   1.00
O1539  O     0.64794   0.76363   0.51737   0.00000  Uiso   1.00
H1540  H     0.66157   0.75630   0.54076   0.00000  Uiso   1.00
S1541  S     0.51438   0.93181   0.55554   0.00000  Uiso   1.00
O1542  O     0.56258   0.91937   0.55649   0.00000  Uiso   1.00
O1543  O     0.51831   0.97395   0.53479   0.00000  Uiso   1.00
O1544  O     0.47258   0.93691   0.61121   0.00000  Uiso   1.00
H1545  H     0.44226   0.94625   0.60818   0.00000  Uiso   1.00
S1546  S     0.58995   0.78654   0.88192   0.00000  Uiso   1.00
O1547  O     0.58322   0.82390   0.85699   0.00000  Uiso   1.00
O1548  O     0.64313   0.77782   0.86865   0.00000  Uiso   1.00
O1549  O     0.56877   0.74352   0.86387   0.00000  Uiso   1.00
H1550  H     0.59047   0.73759   0.83020   0.00000  Uiso   1.00
S1551  S     0.64206   0.75449   0.69774   0.00000  Uiso   1.00
O1552  O     0.62058   0.72211   0.73271   0.00000  Uiso   1.00
O1553  O     0.60924   0.76413   0.67296   0.00000  Uiso   1.00
O1554  O     0.36066   0.73311   0.65597   0.00000  Uiso   1.00
H1555  H     0.35206   0.70591   0.64485   0.00000  Uiso   1.00
S1556  S     0.35867   0.91374   0.79969   0.00000  Uiso   1.00
O1557  O     0.39186   0.90593   0.82458   0.00000  Uiso   1.00
O1558  O     0.38002   0.94447   0.76267   0.00000  Uiso   1.00
O1559  O     0.64077   0.93671   0.84103   0.00000  Uiso   1.00
H1560  H     0.64990   0.96454   0.85001   0.00000  Uiso   1.00
O1561  O     0.39942   0.76572   0.71238   0.00000  Uiso   1.00
H1562  H     0.38231   0.74043   0.72607   0.00000  Uiso   1.00
O1563  O     0.60114   0.90052   0.79153   0.00000  Uiso   1.00
H1564  H     0.56947   0.88928   0.80933   0.00000  Uiso   1.00
C1565  C     0.83266   0.91315   0.75053   0.00000  Uiso   1.00
C1566  C     0.83403   0.75351   0.74942   0.00000  Uiso   1.00
C1567  C     0.82998   0.89347   0.52132   0.00000  Uiso   1.00
C1568  C     0.89275   0.79732   0.94457   0.00000  Uiso   1.00
C1569  C     0.79923   0.90775   0.50011   0.00000  Uiso   1.00
C1570  C     0.91587   0.77963   0.97215   0.00000  Uiso   1.00
C1571  C     0.84975   0.97961   0.78059   0.00000  Uiso   1.00
C1572  C     0.81701   0.68703   0.71930   0.00000  Uiso   1.00
C1573  C     0.85113   0.68931   0.77961   0.00000  Uiso   1.00
C1574  C     0.81548   0.97735   0.72039   0.00000  Uiso   1.00
C1575  C     0.83489   0.70924   0.74889   0.00000  Uiso   1.00
C1576  C     0.83182   0.95741   0.75103   0.00000  Uiso   1.00
C1577  C     0.98657   0.79976   0.72858   0.00000  Uiso   1.00
C1578  C     0.68026   0.86699   0.77122   0.00000  Uiso   1.00
C1579  C     0.70025   0.79970   0.73042   0.00000  Uiso   1.00
C1580  C     0.96634   0.86655   0.77074   0.00000  Uiso   1.00
C1581  C     0.80274   0.83254   0.83827   0.00000  Uiso   1.00
C1582  C     0.86419   0.83377   0.66169   0.00000  Uiso   1.00
C1583  C     0.78356   0.83478   0.89028   0.00000  Uiso   1.00
C1584  C     0.88539   0.83064   0.60962   0.00000  Uiso   1.00
C1585  C     0.75129   0.88977   0.95276   0.00000  Uiso   1.00
C1586  C     0.94065   0.79032   0.53966   0.00000  Uiso   1.00
C1587  C     0.74545   0.86333   0.91721   0.00000  Uiso   1.00
C1588  C     0.93249   0.81292   0.58319   0.00000  Uiso   1.00
C1589  C     0.81419   0.81986   0.91065   0.00000  Uiso   1.00
C1590  C     0.85632   0.84102   0.58541   0.00000  Uiso   1.00
C1591  C     0.82128   0.84380   0.94674   0.00000  Uiso   1.00
C1592  C     0.87321   0.83201   0.53646   0.00000  Uiso   1.00
C1593  C     0.79075   0.88108   0.96624   0.00000  Uiso   1.00
C1594  C     0.90955   0.79957   0.51617   0.00000  Uiso   1.00
C1595  C     0.85581   0.83081   0.96548   0.00000  Uiso   1.00
C1596  C     0.85187   0.85178   0.50888   0.00000  Uiso   1.00
H1597  H     0.82114   0.85690   0.60434   0.00000  Uiso   1.00
H1598  H     0.83323   0.79028   0.89591   0.00000  Uiso   1.00
H1599  H     0.86211   0.96373   0.80449   0.00000  Uiso   1.00
H1600  H     0.80473   0.70291   0.69534   0.00000  Uiso   1.00
H1601  H     0.86384   0.70705   0.80317   0.00000  Uiso   1.00
H1602  H     0.80245   0.95962   0.69707   0.00000  Uiso   1.00
N1603  N     0.71426   0.83334   0.75001   0.00000  Uiso   1.00
N1604  N     0.95241   0.83332   0.74999   0.00000  Uiso   1.00
O1605  O     0.79512   0.89442   0.75000   0.00000  Uiso   1.00
O1606  O     0.87154   0.77225   0.74999   0.00000  Uiso   1.00
O1607  O     0.87157   0.89441   0.75000   0.00000  Uiso   1.00
O1608  O     0.79510   0.77226   0.75000   0.00000  Uiso   1.00
O1609  O     0.77328   0.83334   0.81612   0.00000  Uiso   1.00
O1610  O     0.89339   0.83333   0.68387   0.00000  Uiso   1.00
O1611  O     0.84972   0.83333   0.81612   0.00000  Uiso   1.00
O1612  O     0.81695   0.83334   0.68388   0.00000  Uiso   1.00
Zn1613 Zn    0.78229   0.83334   0.75000   0.00000  Uiso   1.00
Zn1614 Zn    0.88438   0.83333   0.75000   0.00000  Uiso   1.00
O1615  O     0.77831   0.94812   0.51291   0.00000  Uiso   1.00
H1616  H     0.78029   0.96098   0.98359   0.00000  Uiso   1.00
O1617  O     0.94511   0.74298   0.95655   0.00000  Uiso   1.00
H1618  H     0.93481   0.72613   0.93437   0.00000  Uiso   1.00
S1619  S     0.98335   0.83424   0.59079   0.00000  Uiso   1.00
O1620  O     0.67792   0.80103   0.60413   0.00000  Uiso   1.00
O1621  O     0.68278   0.84959   0.54449   0.00000  Uiso   1.00
O1622  O     0.96698   0.87530   0.63171   0.00000  Uiso   1.00
H1623  H     0.99682   0.88187   0.63651   0.00000  Uiso   1.00
S1624  S     0.68691   0.84761   0.92576   0.00000  Uiso   1.00
O1625  O     0.67464   0.85583   0.88411   0.00000  Uiso   1.00
O1626  O     0.68716   0.80094   0.93067   0.00000  Uiso   1.00
O1627  O     0.97752   0.87165   0.97497   0.00000  Uiso   1.00
H1628  H     0.95555   0.88773   0.96405   0.00000  Uiso   1.00
O1629  O     0.71694   0.92158   0.97716   0.00000  Uiso   1.00
H1630  H     0.70021   0.93022   0.95663   0.00000  Uiso   1.00
O1631  O     0.98127   0.76363   0.51737   0.00000  Uiso   1.00
H1632  H     0.99490   0.75630   0.54076   0.00000  Uiso   1.00
S1633  S     0.84771   0.93181   0.55554   0.00000  Uiso   1.00
O1634  O     0.89591   0.91937   0.55649   0.00000  Uiso   1.00
O1635  O     0.85164   0.97395   0.53479   0.00000  Uiso   1.00
O1636  O     0.80591   0.93691   0.61121   0.00000  Uiso   1.00
H1637  H     0.77559   0.94625   0.60818   0.00000  Uiso   1.00
S1638  S     0.92329   0.78654   0.88192   0.00000  Uiso   1.00
O1639  O     0.91655   0.82390   0.85699   0.00000  Uiso   1.00
O1640  O     0.97647   0.77782   0.86865   0.00000  Uiso   1.00
O1641  O     0.90210   0.74352   0.86387   0.00000  Uiso   1.00
H1642  H     0.92380   0.73759   0.83020   0.00000  Uiso   1.00
S1643  S     0.97539   0.75449   0.69774   0.00000  Uiso   1.00
O1644  O     0.95392   0.72211   0.73271   0.00000  Uiso   1.00
O1645  O     0.94258   0.76413   0.67296   0.00000  Uiso   1.00
O1646  O     0.69400   0.73311   0.65597   0.00000  Uiso   1.00
H1647  H     0.68539   0.70591   0.64485   0.00000  Uiso   1.00
S1648  S     0.69201   0.91374   0.79969   0.00000  Uiso   1.00
O1649  O     0.72520   0.90593   0.82458   0.00000  Uiso   1.00
O1650  O     0.71336   0.94447   0.76267   0.00000  Uiso   1.00
O1651  O     0.97410   0.93671   0.84103   0.00000  Uiso   1.00
H1652  H     0.98323   0.96454   0.85001   0.00000  Uiso   1.00
O1653  O     0.73276   0.76572   0.71238   0.00000  Uiso   1.00
H1654  H     0.71565   0.74043   0.72607   0.00000  Uiso   1.00
O1655  O     0.93447   0.90052   0.79153   0.00000  Uiso   1.00
H1656  H     0.90280   0.88928   0.80933   0.00000  Uiso   1.00
loop_
_geom_bond_atom_site_label_1
_geom_bond_atom_site_label_2
_geom_bond_distance
_geom_bond_site_symmetry_2
_ccdc_geom_bond_type
C1     O43     1.291   .     A
C1     C12     1.406   .     S
C1     O41     1.297   .     A
C2     O44     1.291   .     A
C2     C11     1.406   .     S
C2     O42     1.297   .     A
C3     S69     1.792   .     S
C3     C32     1.426   .     A
C3     C5      1.400   .     A
C4     S74     1.791   .     S
C4     C6      1.416   .     A
C4     C31     1.443   .     A
C5     O51     1.379   .     S
C5     C857    1.411   1_554 S
C6     O53     1.383   .     S
C6     C858    1.403   .     S
C7     C12     1.395   .     A
C7     H35     1.084   .     S
C7     C285    1.372   .     S
C8     H36     1.084   .     S
C8     C11     1.396   .     A
C8     C562    1.372   1_545 S
C9     H37     1.082   .     S
C9     C11     1.392   .     A
C9     C559    1.372   1_545 S
C10    C12     1.392   .     A
C10    H38     1.083   .     S
C10    C284    1.372   .     S
C13    S79     1.792   .     S
C13    N40     1.400   .     A
C13    C107    1.437   .     S
C14    S84     1.797   .     S
C14    N39     1.399   .     A
C14    C200    1.427   1_455 S
C15    O89     1.372   .     S
C15    N39     1.356   .     A
C15    C197    1.437   1_455 S
C16    N40     1.363   .     A
C16    O91     1.371   .     S
C16    C106    1.427   .     S
C17    O45     1.311   .     A
C17    O47     1.311   .     A
C17    C19     1.471   .     S
C18    C20     1.472   .     S
C18    O46     1.304   .     A
C18    O48     1.317   .     A
C19    C23     1.394   .     A
C19    C25     1.385   .     A
C20    C24     1.412   .     A
C20    C26     1.393   .     A
C21    C23     1.410   .     A
C21    C29     1.425   .     A
C21    O65     1.381   .     S
C22    C30     1.419   .     A
C22    C24     1.413   .     A
C22    O67     1.381   .     S
C23    S60     1.769   .     S
C24    S55     1.782   .     S
C25    H34     1.066   .     S
C25    C27     1.398   .     A
C26    H33     1.082   .     S
C26    C28     1.399   .     A
C27    C29     1.427   .     A
C27    C31     1.430   .     A
C28    C32     1.408   .     A
C28    C30     1.407   .     A
C29    C833    1.411   .     S
C30    C834    1.403   1_554 S
C31    C860    1.419   .     S
C32    C859    1.419   1_554 S
N39    Zn49    2.046   .     S
N40    Zn50    2.046   .     S
O41    Zn49    1.992   .     S
O42    Zn50    1.992   .     S
O43    Zn50    1.969   .     S
O44    Zn49    1.969   .     S
O45    Zn49    1.944   .     S
O46    Zn50    1.944   .     S
O47    Zn50    1.891   .     S
O48    Zn49    1.891   .     S
O51    H880    0.992   1_554 S
H52    O879    0.992   .     S
O53    H54     0.991   .     S
S55    O58     1.682   .     S
S55    O148    1.499   .     S
S55    O149    1.501   .     S
O56    S239    1.499   1_455 S
O57    S239    1.501   1_455 S
O58    H59     0.991   .     S
S60    O62     1.500   .     D
S60    O61     1.497   .     D
S60    O247    1.683   1_455 S
O63    H64     0.990   .     S
O63    S152    1.683   .     S
O65    H66     0.992   .     S
O67    H68     0.990   .     S
S69    O71     1.504   .     D
S69    O72     1.681   .     S
S69    O70     1.503   .     D
O72    H73     0.990   .     S
S74    O76     1.502   .     D
S74    O77     1.682   .     S
S74    O75     1.498   .     D
O77    H78     0.990   .     S
S79    O81     1.496   .     D
S79    O80     1.502   .     D
S79    O174    1.684   .     S
O82    H83     0.991   .     S
O82    S263    1.684   1_455 S
S84    O85     1.497   .     D
S84    O86     1.502   .     D
S84    O271    1.684   1_455 S
O87    H88     0.991   .     S
O87    S176    1.684   .     S
O89    H90     0.991   .     S
O91    H92     0.986   .     S
C93    O135    1.291   .     A
C93    C104    1.406   .     S
C93    O133    1.297   .     A
C94    O136    1.291   .     A
C94    C103    1.406   .     S
C94    O134    1.297   .     A
C95    S161    1.792   .     S
C95    C124    1.426   .     A
C95    C97     1.400   .     A
C96    S166    1.791   .     S
C96    C98     1.416   .     A
C96    C123    1.443   .     A
C97    O143    1.379   .     S
C97    C949    1.411   1_554 S
C98    O145    1.383   .     S
C98    C950    1.403   .     S
C99    C104    1.395   .     A
C99    H127    1.084   .     S
C99    C377    1.372   .     S
C100   H128    1.084   .     S
C100   C103    1.396   .     A
C100   C654    1.372   1_545 S
C101   H129    1.082   .     S
C101   C103    1.392   .     A
C101   C651    1.372   1_545 S
C102   C104    1.392   .     A
C102   H130    1.083   .     S
C102   C376    1.372   .     S
C105   S171    1.792   .     S
C105   N132    1.400   .     A
C105   C199    1.437   .     S
C106   S176    1.797   .     S
C106   N131    1.399   .     A
C107   O181    1.372   .     S
C107   N131    1.356   .     A
C108   N132    1.363   .     A
C108   O183    1.371   .     S
C108   C198    1.427   .     S
C109   O137    1.311   .     A
C109   O139    1.311   .     A
C109   C111    1.471   .     S
C110   C112    1.472   .     S
C110   O138    1.304   .     A
C110   O140    1.317   .     A
C111   C115    1.394   .     A
C111   C117    1.385   .     A
C112   C116    1.412   .     A
C112   C118    1.393   .     A
C113   C115    1.410   .     A
C113   C121    1.425   .     A
C113   O157    1.381   .     S
C114   C122    1.419   .     A
C114   C116    1.413   .     A
C114   O159    1.381   .     S
C115   S152    1.769   .     S
C116   S147    1.782   .     S
C117   H126    1.066   .     S
C117   C119    1.398   .     A
C118   H125    1.082   .     S
C118   C120    1.399   .     A
C119   C121    1.427   .     A
C119   C123    1.430   .     A
C120   C124    1.408   .     A
C120   C122    1.407   .     A
C121   C925    1.411   .     S
C122   C926    1.403   1_554 S
C123   C952    1.419   .     S
C124   C951    1.419   1_554 S
N131   Zn141   2.046   .     S
N132   Zn142   2.046   .     S
O133   Zn141   1.992   .     S
O134   Zn142   1.992   .     S
O135   Zn142   1.969   .     S
O136   Zn141   1.969   .     S
O137   Zn141   1.944   .     S
O138   Zn142   1.944   .     S
O139   Zn142   1.891   .     S
O140   Zn141   1.891   .     S
O143   H972    0.992   1_554 S
H144   O971    0.992   .     S
O145   H146    0.991   .     S
S147   O150    1.682   .     S
S147   O240    1.499   .     S
S147   O241    1.501   .     S
O150   H151    0.991   .     S
S152   O154    1.500   .     D
S152   O153    1.497   .     D
O155   H156    0.990   .     S
O155   S244    1.683   .     S
O157   H158    0.992   .     S
O159   H160    0.990   .     S
S161   O163    1.504   .     D
S161   O164    1.681   .     S
S161   O162    1.503   .     D
O164   H165    0.990   .     S
S166   O168    1.502   .     D
S166   O169    1.682   .     S
S166   O167    1.498   .     D
O169   H170    0.990   .     S
S171   O173    1.496   .     D
S171   O172    1.502   .     D
S171   O266    1.684   .     S
O174   H175    0.991   .     S
S176   O177    1.497   .     D
S176   O178    1.502   .     D
O179   H180    0.991   .     S
O179   S268    1.684   .     S
O181   H182    0.991   .     S
O183   H184    0.986   .     S
C185   O227    1.291   .     A
C185   C196    1.406   .     S
C185   O225    1.297   .     A
C186   O228    1.291   .     A
C186   C195    1.406   .     S
C186   O226    1.297   .     A
C187   S253    1.792   .     S
C187   C216    1.426   .     A
C187   C189    1.400   .     A
C188   S258    1.791   .     S
C188   C190    1.416   .     A
C188   C215    1.443   .     A
C189   O235    1.379   .     S
C189   C1041   1.411   1_554 S
C190   O237    1.383   .     S
C190   C1042   1.403   .     S
C191   C196    1.395   .     A
C191   H219    1.084   .     S
C191   C469    1.372   .     S
C192   H220    1.084   .     S
C192   C195    1.396   .     A
C192   C746    1.372   1_545 S
C193   H221    1.082   .     S
C193   C195    1.392   .     A
C193   C743    1.372   1_545 S
C194   C196    1.392   .     A
C194   H222    1.083   .     S
C194   C468    1.372   .     S
C197   S263    1.792   .     S
C197   N224    1.400   .     A
C197   C15     1.437   1_655 S
C198   S268    1.797   .     S
C198   N223    1.399   .     A
C199   O273    1.372   .     S
C199   N223    1.356   .     A
C200   N224    1.363   .     A
C200   O275    1.371   .     S
C200   C14     1.427   1_655 S
C201   O229    1.311   .     A
C201   O231    1.311   .     A
C201   C203    1.471   .     S
C202   C204    1.472   .     S
C202   O230    1.304   .     A
C202   O232    1.317   .     A
C203   C207    1.394   .     A
C203   C209    1.385   .     A
C204   C208    1.412   .     A
C204   C210    1.393   .     A
C205   C207    1.410   .     A
C205   C213    1.425   .     A
C205   O249    1.381   .     S
C206   C214    1.419   .     A
C206   C208    1.413   .     A
C206   O251    1.381   .     S
C207   S244    1.769   .     S
C208   S239    1.782   .     S
C209   H218    1.066   .     S
C209   C211    1.398   .     A
C210   H217    1.082   .     S
C210   C212    1.399   .     A
C211   C213    1.427   .     A
C211   C215    1.430   .     A
C212   C216    1.408   .     A
C212   C214    1.407   .     A
C213   C1017   1.411   .     S
C214   C1018   1.403   1_554 S
C215   C1044   1.419   .     S
C216   C1043   1.419   1_554 S
N223   Zn233   2.046   .     S
N224   Zn234   2.046   .     S
O225   Zn233   1.992   .     S
O226   Zn234   1.992   .     S
O227   Zn234   1.969   .     S
O228   Zn233   1.969   .     S
O229   Zn233   1.944   .     S
O230   Zn234   1.944   .     S
O231   Zn234   1.891   .     S
O232   Zn233   1.891   .     S
O235   H1064   0.992   1_554 S
H236   O1063   0.992   .     S
O237   H238    0.991   .     S
S239   O242    1.682   .     S
S239   O56     1.499   1_655 S
S239   O57     1.501   1_655 S
O242   H243    0.991   .     S
S244   O246    1.500   .     D
S244   O245    1.497   .     D
O247   H248    0.990   .     S
O247   S60     1.683   1_655 S
O249   H250    0.992   .     S
O251   H252    0.990   .     S
S253   O255    1.504   .     D
S253   O256    1.681   .     S
S253   O254    1.503   .     D
O256   H257    0.990   .     S
S258   O260    1.502   .     D
S258   O261    1.682   .     S
S258   O259    1.498   .     D
O261   H262    0.990   .     S
S263   O265    1.496   .     D
S263   O264    1.502   .     D
S263   O82     1.684   1_655 S
O266   H267    0.991   .     S
S268   O269    1.497   .     D
S268   O270    1.502   .     D
O271   H272    0.991   .     S
O271   S84     1.684   1_655 S
O273   H274    0.991   .     S
O275   H276    0.986   .     S
C277   O319    1.291   .     A
C277   C288    1.406   .     S
C277   O317    1.297   .     A
C278   O320    1.291   .     A
C278   C287    1.406   .     S
C278   O318    1.297   .     A
C279   S345    1.792   .     S
C279   C308    1.426   .     A
C279   C281    1.400   .     A
C280   S350    1.791   .     S
C280   C282    1.416   .     A
C280   C307    1.443   .     A
C281   O327    1.379   .     S
C281   C1133   1.411   1_554 S
C282   O329    1.383   .     S
C282   C1134   1.403   .     S
C283   C288    1.395   .     A
C283   H311    1.084   .     S
C283   C561    1.372   .     S
C284   H312    1.084   .     S
C284   C287    1.396   .     A
C285   H313    1.082   .     S
C285   C287    1.392   .     A
C286   C288    1.392   .     A
C286   H314    1.083   .     S
C286   C560    1.372   .     S
C289   S355    1.792   .     S
C289   N316    1.400   .     A
C289   C383    1.437   .     S
C290   S360    1.797   .     S
C290   N315    1.399   .     A
C290   C476    1.427   1_455 S
C291   O365    1.372   .     S
C291   N315    1.356   .     A
C291   C473    1.437   1_455 S
C292   N316    1.363   .     A
C292   O367    1.371   .     S
C292   C382    1.427   .     S
C293   O321    1.311   .     A
C293   O323    1.311   .     A
C293   C295    1.471   .     S
C294   C296    1.472   .     S
C294   O322    1.304   .     A
C294   O324    1.317   .     A
C295   C299    1.394   .     A
C295   C301    1.385   .     A
C296   C300    1.412   .     A
C296   C302    1.393   .     A
C297   C299    1.410   .     A
C297   C305    1.425   .     A
C297   O341    1.381   .     S
C298   C306    1.419   .     A
C298   C300    1.413   .     A
C298   O343    1.381   .     S
C299   S336    1.769   .     S
C300   S331    1.782   .     S
C301   H310    1.066   .     S
C301   C303    1.398   .     A
C302   H309    1.082   .     S
C302   C304    1.399   .     A
C303   C305    1.427   .     A
C303   C307    1.430   .     A
C304   C308    1.408   .     A
C304   C306    1.407   .     A
C305   C1109   1.411   .     S
C306   C1110   1.403   1_554 S
C307   C1136   1.419   .     S
C308   C1135   1.419   1_554 S
N315   Zn325   2.046   .     S
N316   Zn326   2.046   .     S
O317   Zn325   1.992   .     S
O318   Zn326   1.992   .     S
O319   Zn326   1.969   .     S
O320   Zn325   1.969   .     S
O321   Zn325   1.944   .     S
O322   Zn326   1.944   .     S
O323   Zn326   1.891   .     S
O324   Zn325   1.891   .     S
O327   H1156   0.992   1_554 S
H328   O1155   0.992   .     S
O329   H330    0.991   .     S
S331   O334    1.682   .     S
S331   O424    1.499   .     S
S331   O425    1.501   .     S
O332   S515    1.499   1_455 S
O333   S515    1.501   1_455 S
O334   H335    0.991   .     S
S336   O338    1.500   .     D
S336   O337    1.497   .     D
S336   O523    1.683   1_455 S
O339   H340    0.990   .     S
O339   S428    1.683   .     S
O341   H342    0.992   .     S
O343   H344    0.990   .     S
S345   O347    1.504   .     D
S345   O348    1.681   .     S
S345   O346    1.503   .     D
O348   H349    0.990   .     S
S350   O352    1.502   .     D
S350   O353    1.682   .     S
S350   O351    1.498   .     D
O353   H354    0.990   .     S
S355   O357    1.496   .     D
S355   O356    1.502   .     D
S355   O450    1.684   .     S
O358   H359    0.991   .     S
O358   S539    1.684   1_455 S
S360   O361    1.497   .     D
S360   O362    1.502   .     D
S360   O547    1.684   1_455 S
O363   H364    0.991   .     S
O363   S452    1.684   .     S
O365   H366    0.991   .     S
O367   H368    0.986   .     S
C369   O411    1.291   .     A
C369   C380    1.406   .     S
C369   O409    1.297   .     A
C370   O412    1.291   .     A
C370   C379    1.406   .     S
C370   O410    1.297   .     A
C371   S437    1.792   .     S
C371   C400    1.426   .     A
C371   C373    1.400   .     A
C372   S442    1.791   .     S
C372   C374    1.416   .     A
C372   C399    1.443   .     A
C373   O419    1.379   .     S
C373   C1225   1.411   1_554 S
C374   O421    1.383   .     S
C374   C1226   1.403   .     S
C375   C380    1.395   .     A
C375   H403    1.084   .     S
C375   C653    1.372   .     S
C376   H404    1.084   .     S
C376   C379    1.396   .     A
C377   H405    1.082   .     S
C377   C379    1.392   .     A
C378   C380    1.392   .     A
C378   H406    1.083   .     S
C378   C652    1.372   .     S
C381   S447    1.792   .     S
C381   N408    1.400   .     A
C381   C475    1.437   .     S
C382   S452    1.797   .     S
C382   N407    1.399   .     A
C383   O457    1.372   .     S
C383   N407    1.356   .     A
C384   N408    1.363   .     A
C384   O459    1.371   .     S
C384   C474    1.427   .     S
C385   O413    1.311   .     A
C385   O415    1.311   .     A
C385   C387    1.471   .     S
C386   C388    1.472   .     S
C386   O414    1.304   .     A
C386   O416    1.317   .     A
C387   C391    1.394   .     A
C387   C393    1.385   .     A
C388   C392    1.412   .     A
C388   C394    1.393   .     A
C389   C391    1.410   .     A
C389   C397    1.425   .     A
C389   O433    1.381   .     S
C390   C398    1.419   .     A
C390   C392    1.413   .     A
C390   O435    1.381   .     S
C391   S428    1.769   .     S
C392   S423    1.782   .     S
C393   H402    1.066   .     S
C393   C395    1.398   .     A
C394   H401    1.082   .     S
C394   C396    1.399   .     A
C395   C397    1.427   .     A
C395   C399    1.430   .     A
C396   C400    1.408   .     A
C396   C398    1.407   .     A
C397   C1201   1.411   .     S
C398   C1202   1.403   1_554 S
C399   C1228   1.419   .     S
C400   C1227   1.419   1_554 S
N407   Zn417   2.046   .     S
N408   Zn418   2.046   .     S
O409   Zn417   1.992   .     S
O410   Zn418   1.992   .     S
O411   Zn418   1.969   .     S
O412   Zn417   1.969   .     S
O413   Zn417   1.944   .     S
O414   Zn418   1.944   .     S
O415   Zn418   1.891   .     S
O416   Zn417   1.891   .     S
O419   H1248   0.992   1_554 S
H420   O1247   0.992   .     S
O421   H422    0.991   .     S
S423   O426    1.682   .     S
S423   O516    1.499   .     S
S423   O517    1.501   .     S
O426   H427    0.991   .     S
S428   O430    1.500   .     D
S428   O429    1.497   .     D
O431   H432    0.990   .     S
O431   S520    1.683   .     S
O433   H434    0.992   .     S
O435   H436    0.990   .     S
S437   O439    1.504   .     D
S437   O440    1.681   .     S
S437   O438    1.503   .     D
O440   H441    0.990   .     S
S442   O444    1.502   .     D
S442   O445    1.682   .     S
S442   O443    1.498   .     D
O445   H446    0.990   .     S
S447   O449    1.496   .     D
S447   O448    1.502   .     D
S447   O542    1.684   .     S
O450   H451    0.991   .     S
S452   O453    1.497   .     D
S452   O454    1.502   .     D
O455   H456    0.991   .     S
O455   S544    1.684   .     S
O457   H458    0.991   .     S
O459   H460    0.986   .     S
C461   O503    1.291   .     A
C461   C472    1.406   .     S
C461   O501    1.297   .     A
C462   O504    1.291   .     A
C462   C471    1.406   .     S
C462   O502    1.297   .     A
C463   S529    1.792   .     S
C463   C492    1.426   .     A
C463   C465    1.400   .     A
C464   S534    1.791   .     S
C464   C466    1.416   .     A
C464   C491    1.443   .     A
C465   O511    1.379   .     S
C465   C1317   1.411   1_554 S
C466   O513    1.383   .     S
C466   C1318   1.403   .     S
C467   C472    1.395   .     A
C467   H495    1.084   .     S
C467   C745    1.372   .     S
C468   H496    1.084   .     S
C468   C471    1.396   .     A
C469   H497    1.082   .     S
C469   C471    1.392   .     A
C470   C472    1.392   .     A
C470   H498    1.083   .     S
C470   C744    1.372   .     S
C473   S539    1.792   .     S
C473   N500    1.400   .     A
C473   C291    1.437   1_655 S
C474   S544    1.797   .     S
C474   N499    1.399   .     A
C475   O549    1.372   .     S
C475   N499    1.356   .     A
C476   N500    1.363   .     A
C476   O551    1.371   .     S
C476   C290    1.427   1_655 S
C477   O505    1.311   .     A
C477   O507    1.311   .     A
C477   C479    1.471   .     S
C478   C480    1.472   .     S
C478   O506    1.304   .     A
C478   O508    1.317   .     A
C479   C483    1.394   .     A
C479   C485    1.385   .     A
C480   C484    1.412   .     A
C480   C486    1.393   .     A
C481   C483    1.410   .     A
C481   C489    1.425   .     A
C481   O525    1.381   .     S
C482   C490    1.419   .     A
C482   C484    1.413   .     A
C482   O527    1.381   .     S
C483   S520    1.769   .     S
C484   S515    1.782   .     S
C485   H494    1.066   .     S
C485   C487    1.398   .     A
C486   H493    1.082   .     S
C486   C488    1.399   .     A
C487   C489    1.427   .     A
C487   C491    1.430   .     A
C488   C492    1.408   .     A
C488   C490    1.407   .     A
C489   C1293   1.411   .     S
C490   C1294   1.403   1_554 S
C491   C1320   1.419   .     S
C492   C1319   1.419   1_554 S
N499   Zn509   2.046   .     S
N500   Zn510   2.046   .     S
O501   Zn509   1.992   .     S
O502   Zn510   1.992   .     S
O503   Zn510   1.969   .     S
O504   Zn509   1.969   .     S
O505   Zn509   1.944   .     S
O506   Zn510   1.944   .     S
O507   Zn510   1.891   .     S
O508   Zn509   1.891   .     S
O511   H1340   0.992   1_554 S
H512   O1339   0.992   .     S
O513   H514    0.991   .     S
S515   O518    1.682   .     S
S515   O332    1.499   1_655 S
S515   O333    1.501   1_655 S
O518   H519    0.991   .     S
S520   O522    1.500   .     D
S520   O521    1.497   .     D
O523   H524    0.990   .     S
O523   S336    1.683   1_655 S
O525   H526    0.992   .     S
O527   H528    0.990   .     S
S529   O531    1.504   .     D
S529   O532    1.681   .     S
S529   O530    1.503   .     D
O532   H533    0.990   .     S
S534   O536    1.502   .     D
S534   O537    1.682   .     S
S534   O535    1.498   .     D
O537   H538    0.990   .     S
S539   O541    1.496   .     D
S539   O540    1.502   .     D
S539   O358    1.684   1_655 S
O542   H543    0.991   .     S
S544   O545    1.497   .     D
S544   O546    1.502   .     D
O547   H548    0.991   .     S
O547   S360    1.684   1_655 S
O549   H550    0.991   .     S
O551   H552    0.986   .     S
C553   O595    1.291   .     A
C553   C564    1.406   .     S
C553   O593    1.297   .     A
C554   O596    1.291   .     A
C554   C563    1.406   .     S
C554   O594    1.297   .     A
C555   S621    1.792   .     S
C555   C584    1.426   .     A
C555   C557    1.400   .     A
C556   S626    1.791   .     S
C556   C558    1.416   .     A
C556   C583    1.443   .     A
C557   O603    1.379   .     S
C557   C1409   1.411   1_554 S
C558   O605    1.383   .     S
C558   C1410   1.403   .     S
C559   C564    1.395   .     A
C559   H587    1.084   .     S
C559   C9      1.372   1_565 S
C560   H588    1.084   .     S
C560   C563    1.396   .     A
C561   H589    1.082   .     S
C561   C563    1.392   .     A
C562   C564    1.392   .     A
C562   H590    1.083   .     S
C562   C8      1.372   1_565 S
C565   S631    1.792   .     S
C565   N592    1.400   .     A
C565   C659    1.437   .     S
C566   S636    1.797   .     S
C566   N591    1.399   .     A
C566   C752    1.427   1_455 S
C567   O641    1.372   .     S
C567   N591    1.356   .     A
C567   C749    1.437   1_455 S
C568   N592    1.363   .     A
C568   O643    1.371   .     S
C568   C658    1.427   .     S
C569   O597    1.311   .     A
C569   O599    1.311   .     A
C569   C571    1.471   .     S
C570   C572    1.472   .     S
C570   O598    1.304   .     A
C570   O600    1.317   .     A
C571   C575    1.394   .     A
C571   C577    1.385   .     A
C572   C576    1.412   .     A
C572   C578    1.393   .     A
C573   C575    1.410   .     A
C573   C581    1.425   .     A
C573   O617    1.381   .     S
C574   C582    1.419   .     A
C574   C576    1.413   .     A
C574   O619    1.381   .     S
C575   S612    1.769   .     S
C576   S607    1.782   .     S
C577   H586    1.066   .     S
C577   C579    1.398   .     A
C578   H585    1.082   .     S
C578   C580    1.399   .     A
C579   C581    1.427   .     A
C579   C583    1.430   .     A
C580   C584    1.408   .     A
C580   C582    1.407   .     A
C581   C1385   1.411   .     S
C582   C1386   1.403   1_554 S
C583   C1412   1.419   .     S
C584   C1411   1.419   1_554 S
N591   Zn601   2.046   .     S
N592   Zn602   2.046   .     S
O593   Zn601   1.992   .     S
O594   Zn602   1.992   .     S
O595   Zn602   1.969   .     S
O596   Zn601   1.969   .     S
O597   Zn601   1.944   .     S
O598   Zn602   1.944   .     S
O599   Zn602   1.891   .     S
O600   Zn601   1.891   .     S
O603   H1432   0.992   1_554 S
H604   O1431   0.992   .     S
O605   H606    0.991   .     S
S607   O610    1.682   .     S
S607   O700    1.499   .     S
S607   O701    1.501   .     S
O608   S791    1.499   1_455 S
O609   S791    1.501   1_455 S
O610   H611    0.991   .     S
S612   O614    1.500   .     D
S612   O613    1.497   .     D
S612   O799    1.683   1_455 S
O615   H616    0.990   .     S
O615   S704    1.683   .     S
O617   H618    0.992   .     S
O619   H620    0.990   .     S
S621   O623    1.504   .     D
S621   O624    1.681   .     S
S621   O622    1.503   .     D
O624   H625    0.990   .     S
S626   O628    1.502   .     D
S626   O629    1.682   .     S
S626   O627    1.498   .     D
O629   H630    0.990   .     S
S631   O633    1.496   .     D
S631   O632    1.502   .     D
S631   O726    1.684   .     S
O634   H635    0.991   .     S
O634   S815    1.684   1_455 S
S636   O637    1.497   .     D
S636   O638    1.502   .     D
S636   O823    1.684   1_455 S
O639   H640    0.991   .     S
O639   S728    1.684   .     S
O641   H642    0.991   .     S
O643   H644    0.986   .     S
C645   O687    1.291   .     A
C645   C656    1.406   .     S
C645   O685    1.297   .     A
C646   O688    1.291   .     A
C646   C655    1.406   .     S
C646   O686    1.297   .     A
C647   S713    1.792   .     S
C647   C676    1.426   .     A
C647   C649    1.400   .     A
C648   S718    1.791   .     S
C648   C650    1.416   .     A
C648   C675    1.443   .     A
C649   O695    1.379   .     S
C649   C1501   1.411   1_554 S
C650   O697    1.383   .     S
C650   C1502   1.403   .     S
C651   C656    1.395   .     A
C651   H679    1.084   .     S
C651   C101    1.372   1_565 S
C652   H680    1.084   .     S
C652   C655    1.396   .     A
C653   H681    1.082   .     S
C653   C655    1.392   .     A
C654   C656    1.392   .     A
C654   H682    1.083   .     S
C654   C100    1.372   1_565 S
C657   S723    1.792   .     S
C657   N684    1.400   .     A
C657   C751    1.437   .     S
C658   S728    1.797   .     S
C658   N683    1.399   .     A
C659   O733    1.372   .     S
C659   N683    1.356   .     A
C660   N684    1.363   .     A
C660   O735    1.371   .     S
C660   C750    1.427   .     S
C661   O689    1.311   .     A
C661   O691    1.311   .     A
C661   C663    1.471   .     S
C662   C664    1.472   .     S
C662   O690    1.304   .     A
C662   O692    1.317   .     A
C663   C667    1.394   .     A
C663   C669    1.385   .     A
C664   C668    1.412   .     A
C664   C670    1.393   .     A
C665   C667    1.410   .     A
C665   C673    1.425   .     A
C665   O709    1.381   .     S
C666   C674    1.419   .     A
C666   C668    1.413   .     A
C666   O711    1.381   .     S
C667   S704    1.769   .     S
C668   S699    1.782   .     S
C669   H678    1.066   .     S
C669   C671    1.398   .     A
C670   H677    1.082   .     S
C670   C672    1.399   .     A
C671   C673    1.427   .     A
C671   C675    1.430   .     A
C672   C676    1.408   .     A
C672   C674    1.407   .     A
C673   C1477   1.411   .     S
C674   C1478   1.403   1_554 S
C675   C1504   1.419   .     S
C676   C1503   1.419   1_554 S
N683   Zn693   2.046   .     S
N684   Zn694   2.046   .     S
O685   Zn693   1.992   .     S
O686   Zn694   1.992   .     S
O687   Zn694   1.969   .     S
O688   Zn693   1.969   .     S
O689   Zn693   1.944   .     S
O690   Zn694   1.944   .     S
O691   Zn694   1.891   .     S
O692   Zn693   1.891   .     S
O695   H1524   0.992   1_554 S
H696   O1523   0.992   .     S
O697   H698    0.991   .     S
S699   O702    1.682   .     S
S699   O792    1.499   .     S
S699   O793    1.501   .     S
O702   H703    0.991   .     S
S704   O706    1.500   .     D
S704   O705    1.497   .     D
O707   H708    0.990   .     S
O707   S796    1.683   .     S
O709   H710    0.992   .     S
O711   H712    0.990   .     S
S713   O715    1.504   .     D
S713   O716    1.681   .     S
S713   O714    1.503   .     D
O716   H717    0.990   .     S
S718   O720    1.502   .     D
S718   O721    1.682   .     S
S718   O719    1.498   .     D
O721   H722    0.990   .     S
S723   O725    1.496   .     D
S723   O724    1.502   .     D
S723   O818    1.684   .     S
O726   H727    0.991   .     S
S728   O729    1.497   .     D
S728   O730    1.502   .     D
O731   H732    0.991   .     S
O731   S820    1.684   .     S
O733   H734    0.991   .     S
O735   H736    0.986   .     S
C737   O779    1.291   .     A
C737   C748    1.406   .     S
C737   O777    1.297   .     A
C738   O780    1.291   .     A
C738   C747    1.406   .     S
C738   O778    1.297   .     A
C739   S805    1.792   .     S
C739   C768    1.426   .     A
C739   C741    1.400   .     A
C740   S810    1.791   .     S
C740   C742    1.416   .     A
C740   C767    1.443   .     A
C741   O787    1.379   .     S
C741   C1593   1.411   1_554 S
C742   O789    1.383   .     S
C742   C1594   1.403   .     S
C743   C748    1.395   .     A
C743   H771    1.084   .     S
C743   C193    1.372   1_565 S
C744   H772    1.084   .     S
C744   C747    1.396   .     A
C745   H773    1.082   .     S
C745   C747    1.392   .     A
C746   C748    1.392   .     A
C746   H774    1.083   .     S
C746   C192    1.372   1_565 S
C749   S815    1.792   .     S
C749   N776    1.400   .     A
C749   C567    1.437   1_655 S
C750   S820    1.797   .     S
C750   N775    1.399   .     A
C751   O825    1.372   .     S
C751   N775    1.356   .     A
C752   N776    1.363   .     A
C752   O827    1.371   .     S
C752   C566    1.427   1_655 S
C753   O781    1.311   .     A
C753   O783    1.311   .     A
C753   C755    1.471   .     S
C754   C756    1.472   .     S
C754   O782    1.304   .     A
C754   O784    1.317   .     A
C755   C759    1.394   .     A
C755   C761    1.385   .     A
C756   C760    1.412   .     A
C756   C762    1.393   .     A
C757   C759    1.410   .     A
C757   C765    1.425   .     A
C757   O801    1.381   .     S
C758   C766    1.419   .     A
C758   C760    1.413   .     A
C758   O803    1.381   .     S
C759   S796    1.769   .     S
C760   S791    1.782   .     S
C761   H770    1.066   .     S
C761   C763    1.398   .     A
C762   H769    1.082   .     S
C762   C764    1.399   .     A
C763   C765    1.427   .     A
C763   C767    1.430   .     A
C764   C768    1.408   .     A
C764   C766    1.407   .     A
C765   C1569   1.411   .     S
C766   C1570   1.403   1_554 S
C767   C1596   1.419   .     S
C768   C1595   1.419   1_554 S
N775   Zn785   2.046   .     S
N776   Zn786   2.046   .     S
O777   Zn785   1.992   .     S
O778   Zn786   1.992   .     S
O779   Zn786   1.969   .     S
O780   Zn785   1.969   .     S
O781   Zn785   1.944   .     S
O782   Zn786   1.944   .     S
O783   Zn786   1.891   .     S
O784   Zn785   1.891   .     S
O787   H1616   0.992   1_554 S
H788   O1615   0.992   .     S
O789   H790    0.991   .     S
S791   O794    1.682   .     S
S791   O608    1.499   1_655 S
S791   O609    1.501   1_655 S
O794   H795    0.991   .     S
S796   O798    1.500   .     D
S796   O797    1.497   .     D
O799   H800    0.990   .     S
O799   S612    1.683   1_655 S
O801   H802    0.992   .     S
O803   H804    0.990   .     S
S805   O807    1.504   .     D
S805   O808    1.681   .     S
S805   O806    1.503   .     D
O808   H809    0.990   .     S
S810   O812    1.502   .     D
S810   O813    1.682   .     S
S810   O811    1.498   .     D
O813   H814    0.990   .     S
S815   O817    1.496   .     D
S815   O816    1.502   .     D
S815   O634    1.684   1_655 S
O818   H819    0.991   .     S
S820   O821    1.497   .     D
S820   O822    1.502   .     D
O823   H824    0.991   .     S
O823   S636    1.684   1_655 S
O825   H826    0.991   .     S
O827   H828    0.986   .     S
C829   O871    1.291   .     A
C829   C840    1.406   .     S
C829   O869    1.297   .     A
C830   O872    1.291   .     A
C830   C839    1.406   .     S
C830   O870    1.297   .     A
C831   S897    1.792   .     S
C831   C860    1.426   .     A
C831   C833    1.400   .     A
C832   S902    1.791   .     S
C832   C834    1.416   .     A
C832   C859    1.443   .     A
C833   O879    1.379   .     S
C834   O881    1.383   .     S
C834   C30     1.403   1_556 S
C835   C840    1.395   .     A
C835   H863    1.084   .     S
C835   C1113   1.372   .     S
C836   H864    1.084   .     S
C836   C839    1.396   .     A
C836   C1390   1.372   1_545 S
C837   H865    1.082   .     S
C837   C839    1.392   .     A
C837   C1387   1.372   1_545 S
C838   C840    1.392   .     A
C838   H866    1.083   .     S
C838   C1112   1.372   .     S
C841   S907    1.792   .     S
C841   N868    1.400   .     A
C841   C935    1.437   .     S
C842   S912    1.797   .     S
C842   N867    1.399   .     A
C842   C1028   1.427   1_455 S
C843   O917    1.372   .     S
C843   N867    1.356   .     A
C843   C1025   1.437   1_455 S
C844   N868    1.363   .     A
C844   O919    1.371   .     S
C844   C934    1.427   .     S
C845   O873    1.311   .     A
C845   O875    1.311   .     A
C845   C847    1.471   .     S
C846   C848    1.472   .     S
C846   O874    1.304   .     A
C846   O876    1.317   .     A
C847   C851    1.394   .     A
C847   C853    1.385   .     A
C848   C852    1.412   .     A
C848   C854    1.393   .     A
C849   C851    1.410   .     A
C849   C857    1.425   .     A
C849   O893    1.381   .     S
C850   C858    1.419   .     A
C850   C852    1.413   .     A
C850   O895    1.381   .     S
C851   S888    1.769   .     S
C852   S883    1.782   .     S
C853   H862    1.066   .     S
C853   C855    1.398   .     A
C854   H861    1.082   .     S
C854   C856    1.399   .     A
C855   C857    1.427   .     A
C855   C859    1.430   .     A
C856   C860    1.408   .     A
C856   C858    1.407   .     A
C857   C5      1.411   1_556 S
C859   C32     1.419   1_556 S
N867   Zn877   2.046   .     S
N868   Zn878   2.046   .     S
O869   Zn877   1.992   .     S
O870   Zn878   1.992   .     S
O871   Zn878   1.969   .     S
O872   Zn877   1.969   .     S
O873   Zn877   1.944   .     S
O874   Zn878   1.944   .     S
O875   Zn878   1.891   .     S
O876   Zn877   1.891   .     S
H880   O51     0.992   1_556 S
O881   H882    0.991   .     S
S883   O886    1.682   .     S
S883   O976    1.499   .     S
S883   O977    1.501   .     S
O884   S1067   1.499   1_455 S
O885   S1067   1.501   1_455 S
O886   H887    0.991   .     S
S888   O890    1.500   .     D
S888   O889    1.497   .     D
S888   O1075   1.683   1_455 S
O891   H892    0.990   .     S
O891   S980    1.683   .     S
O893   H894    0.992   .     S
O895   H896    0.990   .     S
S897   O899    1.504   .     D
S897   O900    1.681   .     S
S897   O898    1.503   .     D
O900   H901    0.990   .     S
S902   O904    1.502   .     D
S902   O905    1.682   .     S
S902   O903    1.498   .     D
O905   H906    0.990   .     S
S907   O909    1.496   .     D
S907   O908    1.502   .     D
S907   O1002   1.684   .     S
O910   H911    0.991   .     S
O910   S1091   1.684   1_455 S
S912   O913    1.497   .     D
S912   O914    1.502   .     D
S912   O1099   1.684   1_455 S
O915   H916    0.991   .     S
O915   S1004   1.684   .     S
O917   H918    0.991   .     S
O919   H920    0.986   .     S
C921   O963    1.291   .     A
C921   C932    1.406   .     S
C921   O961    1.297   .     A
C922   O964    1.291   .     A
C922   C931    1.406   .     S
C922   O962    1.297   .     A
C923   S989    1.792   .     S
C923   C952    1.426   .     A
C923   C925    1.400   .     A
C924   S994    1.791   .     S
C924   C926    1.416   .     A
C924   C951    1.443   .     A
C925   O971    1.379   .     S
C926   O973    1.383   .     S
C926   C122    1.403   1_556 S
C927   C932    1.395   .     A
C927   H955    1.084   .     S
C927   C1205   1.372   .     S
C928   H956    1.084   .     S
C928   C931    1.396   .     A
C928   C1482   1.372   1_545 S
C929   H957    1.082   .     S
C929   C931    1.392   .     A
C929   C1479   1.372   1_545 S
C930   C932    1.392   .     A
C930   H958    1.083   .     S
C930   C1204   1.372   .     S
C933   S999    1.792   .     S
C933   N960    1.400   .     A
C933   C1027   1.437   .     S
C934   S1004   1.797   .     S
C934   N959    1.399   .     A
C935   O1009   1.372   .     S
C935   N959    1.356   .     A
C936   N960    1.363   .     A
C936   O1011   1.371   .     S
C936   C1026   1.427   .     S
C937   O965    1.311   .     A
C937   O967    1.311   .     A
C937   C939    1.471   .     S
C938   C940    1.472   .     S
C938   O966    1.304   .     A
C938   O968    1.317   .     A
C939   C943    1.394   .     A
C939   C945    1.385   .     A
C940   C944    1.412   .     A
C940   C946    1.393   .     A
C941   C943    1.410   .     A
C941   C949    1.425   .     A
C941   O985    1.381   .     S
C942   C950    1.419   .     A
C942   C944    1.413   .     A
C942   O987    1.381   .     S
C943   S980    1.769   .     S
C944   S975    1.782   .     S
C945   H954    1.066   .     S
C945   C947    1.398   .     A
C946   H953    1.082   .     S
C946   C948    1.399   .     A
C947   C949    1.427   .     A
C947   C951    1.430   .     A
C948   C952    1.408   .     A
C948   C950    1.407   .     A
C949   C97     1.411   1_556 S
C951   C124    1.419   1_556 S
N959   Zn969   2.046   .     S
N960   Zn970   2.046   .     S
O961   Zn969   1.992   .     S
O962   Zn970   1.992   .     S
O963   Zn970   1.969   .     S
O964   Zn969   1.969   .     S
O965   Zn969   1.944   .     S
O966   Zn970   1.944   .     S
O967   Zn970   1.891   .     S
O968   Zn969   1.891   .     S
H972   O143    0.992   1_556 S
O973   H974    0.991   .     S
S975   O978    1.682   .     S
S975   O1068   1.499   .     S
S975   O1069   1.501   .     S
O978   H979    0.991   .     S
S980   O982    1.500   .     D
S980   O981    1.497   .     D
O983   H984    0.990   .     S
O983   S1072   1.683   .     S
O985   H986    0.992   .     S
O987   H988    0.990   .     S
S989   O991    1.504   .     D
S989   O992    1.681   .     S
S989   O990    1.503   .     D
O992   H993    0.990   .     S
S994   O996    1.502   .     D
S994   O997    1.682   .     S
S994   O995    1.498   .     D
O997   H998    0.990   .     S
S999   O1001   1.496   .     D
S999   O1000   1.502   .     D
S999   O1094   1.684   .     S
O1002  H1003   0.991   .     S
S1004  O1005   1.497   .     D
S1004  O1006   1.502   .     D
O1007  H1008   0.991   .     S
O1007  S1096   1.684   .     S
O1009  H1010   0.991   .     S
O1011  H1012   0.986   .     S
C1013  O1055   1.291   .     A
C1013  C1024   1.406   .     S
C1013  O1053   1.297   .     A
C1014  O1056   1.291   .     A
C1014  C1023   1.406   .     S
C1014  O1054   1.297   .     A
C1015  S1081   1.792   .     S
C1015  C1044   1.426   .     A
C1015  C1017   1.400   .     A
C1016  S1086   1.791   .     S
C1016  C1018   1.416   .     A
C1016  C1043   1.443   .     A
C1017  O1063   1.379   .     S
C1018  O1065   1.383   .     S
C1018  C214    1.403   1_556 S
C1019  C1024   1.395   .     A
C1019  H1047   1.084   .     S
C1019  C1297   1.372   .     S
C1020  H1048   1.084   .     S
C1020  C1023   1.396   .     A
C1020  C1574   1.372   1_545 S
C1021  H1049   1.082   .     S
C1021  C1023   1.392   .     A
C1021  C1571   1.372   1_545 S
C1022  C1024   1.392   .     A
C1022  H1050   1.083   .     S
C1022  C1296   1.372   .     S
C1025  S1091   1.792   .     S
C1025  N1052   1.400   .     A
C1025  C843    1.437   1_655 S
C1026  S1096   1.797   .     S
C1026  N1051   1.399   .     A
C1027  O1101   1.372   .     S
C1027  N1051   1.356   .     A
C1028  N1052   1.363   .     A
C1028  O1103   1.371   .     S
C1028  C842    1.427   1_655 S
C1029  O1057   1.311   .     A
C1029  O1059   1.311   .     A
C1029  C1031   1.471   .     S
C1030  C1032   1.472   .     S
C1030  O1058   1.304   .     A
C1030  O1060   1.317   .     A
C1031  C1035   1.394   .     A
C1031  C1037   1.385   .     A
C1032  C1036   1.412   .     A
C1032  C1038   1.393   .     A
C1033  C1035   1.410   .     A
C1033  C1041   1.425   .     A
C1033  O1077   1.381   .     S
C1034  C1042   1.419   .     A
C1034  C1036   1.413   .     A
C1034  O1079   1.381   .     S
C1035  S1072   1.769   .     S
C1036  S1067   1.782   .     S
C1037  H1046   1.066   .     S
C1037  C1039   1.398   .     A
C1038  H1045   1.082   .     S
C1038  C1040   1.399   .     A
C1039  C1041   1.427   .     A
C1039  C1043   1.430   .     A
C1040  C1044   1.408   .     A
C1040  C1042   1.407   .     A
C1041  C189    1.411   1_556 S
C1043  C216    1.419   1_556 S
N1051  Zn1061  2.046   .     S
N1052  Zn1062  2.046   .     S
O1053  Zn1061  1.992   .     S
O1054  Zn1062  1.992   .     S
O1055  Zn1062  1.969   .     S
O1056  Zn1061  1.969   .     S
O1057  Zn1061  1.944   .     S
O1058  Zn1062  1.944   .     S
O1059  Zn1062  1.891   .     S
O1060  Zn1061  1.891   .     S
H1064  O235    0.992   1_556 S
O1065  H1066   0.991   .     S
S1067  O1070   1.682   .     S
S1067  O884    1.499   1_655 S
S1067  O885    1.501   1_655 S
O1070  H1071   0.991   .     S
S1072  O1074   1.500   .     D
S1072  O1073   1.497   .     D
O1075  H1076   0.990   .     S
O1075  S888    1.683   1_655 S
O1077  H1078   0.992   .     S
O1079  H1080   0.990   .     S
S1081  O1083   1.504   .     D
S1081  O1084   1.681   .     S
S1081  O1082   1.503   .     D
O1084  H1085   0.990   .     S
S1086  O1088   1.502   .     D
S1086  O1089   1.682   .     S
S1086  O1087   1.498   .     D
O1089  H1090   0.990   .     S
S1091  O1093   1.496   .     D
S1091  O1092   1.502   .     D
S1091  O910    1.684   1_655 S
O1094  H1095   0.991   .     S
S1096  O1097   1.497   .     D
S1096  O1098   1.502   .     D
O1099  H1100   0.991   .     S
O1099  S912    1.684   1_655 S
O1101  H1102   0.991   .     S
O1103  H1104   0.986   .     S
C1105  O1147   1.291   .     A
C1105  C1116   1.406   .     S
C1105  O1145   1.297   .     A
C1106  O1148   1.291   .     A
C1106  C1115   1.406   .     S
C1106  O1146   1.297   .     A
C1107  S1173   1.792   .     S
C1107  C1136   1.426   .     A
C1107  C1109   1.400   .     A
C1108  S1178   1.791   .     S
C1108  C1110   1.416   .     A
C1108  C1135   1.443   .     A
C1109  O1155   1.379   .     S
C1110  O1157   1.383   .     S
C1110  C306    1.403   1_556 S
C1111  C1116   1.395   .     A
C1111  H1139   1.084   .     S
C1111  C1389   1.372   .     S
C1112  H1140   1.084   .     S
C1112  C1115   1.396   .     A
C1113  H1141   1.082   .     S
C1113  C1115   1.392   .     A
C1114  C1116   1.392   .     A
C1114  H1142   1.083   .     S
C1114  C1388   1.372   .     S
C1117  S1183   1.792   .     S
C1117  N1144   1.400   .     A
C1117  C1211   1.437   .     S
C1118  S1188   1.797   .     S
C1118  N1143   1.399   .     A
C1118  C1304   1.427   1_455 S
C1119  O1193   1.372   .     S
C1119  N1143   1.356   .     A
C1119  C1301   1.437   1_455 S
C1120  N1144   1.363   .     A
C1120  O1195   1.371   .     S
C1120  C1210   1.427   .     S
C1121  O1149   1.311   .     A
C1121  O1151   1.311   .     A
C1121  C1123   1.471   .     S
C1122  C1124   1.472   .     S
C1122  O1150   1.304   .     A
C1122  O1152   1.317   .     A
C1123  C1127   1.394   .     A
C1123  C1129   1.385   .     A
C1124  C1128   1.412   .     A
C1124  C1130   1.393   .     A
C1125  C1127   1.410   .     A
C1125  C1133   1.425   .     A
C1125  O1169   1.381   .     S
C1126  C1134   1.419   .     A
C1126  C1128   1.413   .     A
C1126  O1171   1.381   .     S
C1127  S1164   1.769   .     S
C1128  S1159   1.782   .     S
C1129  H1138   1.066   .     S
C1129  C1131   1.398   .     A
C1130  H1137   1.082   .     S
C1130  C1132   1.399   .     A
C1131  C1133   1.427   .     A
C1131  C1135   1.430   .     A
C1132  C1136   1.408   .     A
C1132  C1134   1.407   .     A
C1133  C281    1.411   1_556 S
C1135  C308    1.419   1_556 S
N1143  Zn1153  2.046   .     S
N1144  Zn1154  2.046   .     S
O1145  Zn1153  1.992   .     S
O1146  Zn1154  1.992   .     S
O1147  Zn1154  1.969   .     S
O1148  Zn1153  1.969   .     S
O1149  Zn1153  1.944   .     S
O1150  Zn1154  1.944   .     S
O1151  Zn1154  1.891   .     S
O1152  Zn1153  1.891   .     S
H1156  O327    0.992   1_556 S
O1157  H1158   0.991   .     S
S1159  O1162   1.682   .     S
S1159  O1252   1.499   .     S
S1159  O1253   1.501   .     S
O1160  S1343   1.499   1_455 S
O1161  S1343   1.501   1_455 S
O1162  H1163   0.991   .     S
S1164  O1166   1.500   .     D
S1164  O1165   1.497   .     D
S1164  O1351   1.683   1_455 S
O1167  H1168   0.990   .     S
O1167  S1256   1.683   .     S
O1169  H1170   0.992   .     S
O1171  H1172   0.990   .     S
S1173  O1175   1.504   .     D
S1173  O1176   1.681   .     S
S1173  O1174   1.503   .     D
O1176  H1177   0.990   .     S
S1178  O1180   1.502   .     D
S1178  O1181   1.682   .     S
S1178  O1179   1.498   .     D
O1181  H1182   0.990   .     S
S1183  O1185   1.496   .     D
S1183  O1184   1.502   .     D
S1183  O1278   1.684   .     S
O1186  H1187   0.991   .     S
O1186  S1367   1.684   1_455 S
S1188  O1189   1.497   .     D
S1188  O1190   1.502   .     D
S1188  O1375   1.684   1_455 S
O1191  H1192   0.991   .     S
O1191  S1280   1.684   .     S
O1193  H1194   0.991   .     S
O1195  H1196   0.986   .     S
C1197  O1239   1.291   .     A
C1197  C1208   1.406   .     S
C1197  O1237   1.297   .     A
C1198  O1240   1.291   .     A
C1198  C1207   1.406   .     S
C1198  O1238   1.297   .     A
C1199  S1265   1.792   .     S
C1199  C1228   1.426   .     A
C1199  C1201   1.400   .     A
C1200  S1270   1.791   .     S
C1200  C1202   1.416   .     A
C1200  C1227   1.443   .     A
C1201  O1247   1.379   .     S
C1202  O1249   1.383   .     S
C1202  C398    1.403   1_556 S
C1203  C1208   1.395   .     A
C1203  H1231   1.084   .     S
C1203  C1481   1.372   .     S
C1204  H1232   1.084   .     S
C1204  C1207   1.396   .     A
C1205  H1233   1.082   .     S
C1205  C1207   1.392   .     A
C1206  C1208   1.392   .     A
C1206  H1234   1.083   .     S
C1206  C1480   1.372   .     S
C1209  S1275   1.792   .     S
C1209  N1236   1.400   .     A
C1209  C1303   1.437   .     S
C1210  S1280   1.797   .     S
C1210  N1235   1.399   .     A
C1211  O1285   1.372   .     S
C1211  N1235   1.356   .     A
C1212  N1236   1.363   .     A
C1212  O1287   1.371   .     S
C1212  C1302   1.427   .     S
C1213  O1241   1.311   .     A
C1213  O1243   1.311   .     A
C1213  C1215   1.471   .     S
C1214  C1216   1.472   .     S
C1214  O1242   1.304   .     A
C1214  O1244   1.317   .     A
C1215  C1219   1.394   .     A
C1215  C1221   1.385   .     A
C1216  C1220   1.412   .     A
C1216  C1222   1.393   .     A
C1217  C1219   1.410   .     A
C1217  C1225   1.425   .     A
C1217  O1261   1.381   .     S
C1218  C1226   1.419   .     A
C1218  C1220   1.413   .     A
C1218  O1263   1.381   .     S
C1219  S1256   1.769   .     S
C1220  S1251   1.782   .     S
C1221  H1230   1.066   .     S
C1221  C1223   1.398   .     A
C1222  H1229   1.082   .     S
C1222  C1224   1.399   .     A
C1223  C1225   1.427   .     A
C1223  C1227   1.430   .     A
C1224  C1228   1.408   .     A
C1224  C1226   1.407   .     A
C1225  C373    1.411   1_556 S
C1227  C400    1.419   1_556 S
N1235  Zn1245  2.046   .     S
N1236  Zn1246  2.046   .     S
O1237  Zn1245  1.992   .     S
O1238  Zn1246  1.992   .     S
O1239  Zn1246  1.969   .     S
O1240  Zn1245  1.969   .     S
O1241  Zn1245  1.944   .     S
O1242  Zn1246  1.944   .     S
O1243  Zn1246  1.891   .     S
O1244  Zn1245  1.891   .     S
H1248  O419    0.992   1_556 S
O1249  H1250   0.991   .     S
S1251  O1254   1.682   .     S
S1251  O1344   1.499   .     S
S1251  O1345   1.501   .     S
O1254  H1255   0.991   .     S
S1256  O1258   1.500   .     D
S1256  O1257   1.497   .     D
O1259  H1260   0.990   .     S
O1259  S1348   1.683   .     S
O1261  H1262   0.992   .     S
O1263  H1264   0.990   .     S
S1265  O1267   1.504   .     D
S1265  O1268   1.681   .     S
S1265  O1266   1.503   .     D
O1268  H1269   0.990   .     S
S1270  O1272   1.502   .     D
S1270  O1273   1.682   .     S
S1270  O1271   1.498   .     D
O1273  H1274   0.990   .     S
S1275  O1277   1.496   .     D
S1275  O1276   1.502   .     D
S1275  O1370   1.684   .     S
O1278  H1279   0.991   .     S
S1280  O1281   1.497   .     D
S1280  O1282   1.502   .     D
O1283  H1284   0.991   .     S
O1283  S1372   1.684   .     S
O1285  H1286   0.991   .     S
O1287  H1288   0.986   .     S
C1289  O1331   1.291   .     A
C1289  C1300   1.406   .     S
C1289  O1329   1.297   .     A
C1290  O1332   1.291   .     A
C1290  C1299   1.406   .     S
C1290  O1330   1.297   .     A
C1291  S1357   1.792   .     S
C1291  C1320   1.426   .     A
C1291  C1293   1.400   .     A
C1292  S1362   1.791   .     S
C1292  C1294   1.416   .     A
C1292  C1319   1.443   .     A
C1293  O1339   1.379   .     S
C1294  O1341   1.383   .     S
C1294  C490    1.403   1_556 S
C1295  C1300   1.395   .     A
C1295  H1323   1.084   .     S
C1295  C1573   1.372   .     S
C1296  H1324   1.084   .     S
C1296  C1299   1.396   .     A
C1297  H1325   1.082   .     S
C1297  C1299   1.392   .     A
C1298  C1300   1.392   .     A
C1298  H1326   1.083   .     S
C1298  C1572   1.372   .     S
C1301  S1367   1.792   .     S
C1301  N1328   1.400   .     A
C1301  C1119   1.437   1_655 S
C1302  S1372   1.797   .     S
C1302  N1327   1.399   .     A
C1303  O1377   1.372   .     S
C1303  N1327   1.356   .     A
C1304  N1328   1.363   .     A
C1304  O1379   1.371   .     S
C1304  C1118   1.427   1_655 S
C1305  O1333   1.311   .     A
C1305  O1335   1.311   .     A
C1305  C1307   1.471   .     S
C1306  C1308   1.472   .     S
C1306  O1334   1.304   .     A
C1306  O1336   1.317   .     A
C1307  C1311   1.394   .     A
C1307  C1313   1.385   .     A
C1308  C1312   1.412   .     A
C1308  C1314   1.393   .     A
C1309  C1311   1.410   .     A
C1309  C1317   1.425   .     A
C1309  O1353   1.381   .     S
C1310  C1318   1.419   .     A
C1310  C1312   1.413   .     A
C1310  O1355   1.381   .     S
C1311  S1348   1.769   .     S
C1312  S1343   1.782   .     S
C1313  H1322   1.066   .     S
C1313  C1315   1.398   .     A
C1314  H1321   1.082   .     S
C1314  C1316   1.399   .     A
C1315  C1317   1.427   .     A
C1315  C1319   1.430   .     A
C1316  C1320   1.408   .     A
C1316  C1318   1.407   .     A
C1317  C465    1.411   1_556 S
C1319  C492    1.419   1_556 S
N1327  Zn1337  2.046   .     S
N1328  Zn1338  2.046   .     S
O1329  Zn1337  1.992   .     S
O1330  Zn1338  1.992   .     S
O1331  Zn1338  1.969   .     S
O1332  Zn1337  1.969   .     S
O1333  Zn1337  1.944   .     S
O1334  Zn1338  1.944   .     S
O1335  Zn1338  1.891   .     S
O1336  Zn1337  1.891   .     S
H1340  O511    0.992   1_556 S
O1341  H1342   0.991   .     S
S1343  O1346   1.682   .     S
S1343  O1160   1.499   1_655 S
S1343  O1161   1.501   1_655 S
O1346  H1347   0.991   .     S
S1348  O1350   1.500   .     D
S1348  O1349   1.497   .     D
O1351  H1352   0.990   .     S
O1351  S1164   1.683   1_655 S
O1353  H1354   0.992   .     S
O1355  H1356   0.990   .     S
S1357  O1359   1.504   .     D
S1357  O1360   1.681   .     S
S1357  O1358   1.503   .     D
O1360  H1361   0.990   .     S
S1362  O1364   1.502   .     D
S1362  O1365   1.682   .     S
S1362  O1363   1.498   .     D
O1365  H1366   0.990   .     S
S1367  O1369   1.496   .     D
S1367  O1368   1.502   .     D
S1367  O1186   1.684   1_655 S
O1370  H1371   0.991   .     S
S1372  O1373   1.497   .     D
S1372  O1374   1.502   .     D
O1375  H1376   0.991   .     S
O1375  S1188   1.684   1_655 S
O1377  H1378   0.991   .     S
O1379  H1380   0.986   .     S
C1381  O1423   1.291   .     A
C1381  C1392   1.406   .     S
C1381  O1421   1.297   .     A
C1382  O1424   1.291   .     A
C1382  C1391   1.406   .     S
C1382  O1422   1.297   .     A
C1383  S1449   1.792   .     S
C1383  C1412   1.426   .     A
C1383  C1385   1.400   .     A
C1384  S1454   1.791   .     S
C1384  C1386   1.416   .     A
C1384  C1411   1.443   .     A
C1385  O1431   1.379   .     S
C1386  O1433   1.383   .     S
C1386  C582    1.403   1_556 S
C1387  C1392   1.395   .     A
C1387  H1415   1.084   .     S
C1387  C837    1.372   1_565 S
C1388  H1416   1.084   .     S
C1388  C1391   1.396   .     A
C1389  H1417   1.082   .     S
C1389  C1391   1.392   .     A
C1390  C1392   1.392   .     A
C1390  H1418   1.083   .     S
C1390  C836    1.372   1_565 S
C1393  S1459   1.792   .     S
C1393  N1420   1.400   .     A
C1393  C1487   1.437   .     S
C1394  S1464   1.797   .     S
C1394  N1419   1.399   .     A
C1394  C1580   1.427   1_455 S
C1395  O1469   1.372   .     S
C1395  N1419   1.356   .     A
C1395  C1577   1.437   1_455 S
C1396  N1420   1.363   .     A
C1396  O1471   1.371   .     S
C1396  C1486   1.427   .     S
C1397  O1425   1.311   .     A
C1397  O1427   1.311   .     A
C1397  C1399   1.471   .     S
C1398  C1400   1.472   .     S
C1398  O1426   1.304   .     A
C1398  O1428   1.317   .     A
C1399  C1403   1.394   .     A
C1399  C1405   1.385   .     A
C1400  C1404   1.412   .     A
C1400  C1406   1.393   .     A
C1401  C1403   1.410   .     A
C1401  C1409   1.425   .     A
C1401  O1445   1.381   .     S
C1402  C1410   1.419   .     A
C1402  C1404   1.413   .     A
C1402  O1447   1.381   .     S
C1403  S1440   1.769   .     S
C1404  S1435   1.782   .     S
C1405  H1414   1.066   .     S
C1405  C1407   1.398   .     A
C1406  H1413   1.082   .     S
C1406  C1408   1.399   .     A
C1407  C1409   1.427   .     A
C1407  C1411   1.430   .     A
C1408  C1412   1.408   .     A
C1408  C1410   1.407   .     A
C1409  C557    1.411   1_556 S
C1411  C584    1.419   1_556 S
N1419  Zn1429  2.046   .     S
N1420  Zn1430  2.046   .     S
O1421  Zn1429  1.992   .     S
O1422  Zn1430  1.992   .     S
O1423  Zn1430  1.969   .     S
O1424  Zn1429  1.969   .     S
O1425  Zn1429  1.944   .     S
O1426  Zn1430  1.944   .     S
O1427  Zn1430  1.891   .     S
O1428  Zn1429  1.891   .     S
H1432  O603    0.992   1_556 S
O1433  H1434   0.991   .     S
S1435  O1438   1.682   .     S
S1435  O1528   1.499   .     S
S1435  O1529   1.501   .     S
O1436  S1619   1.499   1_455 S
O1437  S1619   1.501   1_455 S
O1438  H1439   0.991   .     S
S1440  O1442   1.500   .     D
S1440  O1441   1.497   .     D
S1440  O1627   1.683   1_455 S
O1443  H1444   0.990   .     S
O1443  S1532   1.683   .     S
O1445  H1446   0.992   .     S
O1447  H1448   0.990   .     S
S1449  O1451   1.504   .     D
S1449  O1452   1.681   .     S
S1449  O1450   1.503   .     D
O1452  H1453   0.990   .     S
S1454  O1456   1.502   .     D
S1454  O1457   1.682   .     S
S1454  O1455   1.498   .     D
O1457  H1458   0.990   .     S
S1459  O1461   1.496   .     D
S1459  O1460   1.502   .     D
S1459  O1554   1.684   .     S
O1462  H1463   0.991   .     S
O1462  S1643   1.684   1_455 S
S1464  O1465   1.497   .     D
S1464  O1466   1.502   .     D
S1464  O1651   1.684   1_455 S
O1467  H1468   0.991   .     S
O1467  S1556   1.684   .     S
O1469  H1470   0.991   .     S
O1471  H1472   0.986   .     S
C1473  O1515   1.291   .     A
C1473  C1484   1.406   .     S
C1473  O1513   1.297   .     A
C1474  O1516   1.291   .     A
C1474  C1483   1.406   .     S
C1474  O1514   1.297   .     A
C1475  S1541   1.792   .     S
C1475  C1504   1.426   .     A
C1475  C1477   1.400   .     A
C1476  S1546   1.791   .     S
C1476  C1478   1.416   .     A
C1476  C1503   1.443   .     A
C1477  O1523   1.379   .     S
C1478  O1525   1.383   .     S
C1478  C674    1.403   1_556 S
C1479  C1484   1.395   .     A
C1479  H1507   1.084   .     S
C1479  C929    1.372   1_565 S
C1480  H1508   1.084   .     S
C1480  C1483   1.396   .     A
C1481  H1509   1.082   .     S
C1481  C1483   1.392   .     A
C1482  C1484   1.392   .     A
C1482  H1510   1.083   .     S
C1482  C928    1.372   1_565 S
C1485  S1551   1.792   .     S
C1485  N1512   1.400   .     A
C1485  C1579   1.437   .     S
C1486  S1556   1.797   .     S
C1486  N1511   1.399   .     A
C1487  O1561   1.372   .     S
C1487  N1511   1.356   .     A
C1488  N1512   1.363   .     A
C1488  O1563   1.371   .     S
C1488  C1578   1.427   .     S
C1489  O1517   1.311   .     A
C1489  O1519   1.311   .     A
C1489  C1491   1.471   .     S
C1490  C1492   1.472   .     S
C1490  O1518   1.304   .     A
C1490  O1520   1.317   .     A
C1491  C1495   1.394   .     A
C1491  C1497   1.385   .     A
C1492  C1496   1.412   .     A
C1492  C1498   1.393   .     A
C1493  C1495   1.410   .     A
C1493  C1501   1.425   .     A
C1493  O1537   1.381   .     S
C1494  C1502   1.419   .     A
C1494  C1496   1.413   .     A
C1494  O1539   1.381   .     S
C1495  S1532   1.769   .     S
C1496  S1527   1.782   .     S
C1497  H1506   1.066   .     S
C1497  C1499   1.398   .     A
C1498  H1505   1.082   .     S
C1498  C1500   1.399   .     A
C1499  C1501   1.427   .     A
C1499  C1503   1.430   .     A
C1500  C1504   1.408   .     A
C1500  C1502   1.407   .     A
C1501  C649    1.411   1_556 S
C1503  C676    1.419   1_556 S
N1511  Zn1521  2.046   .     S
N1512  Zn1522  2.046   .     S
O1513  Zn1521  1.992   .     S
O1514  Zn1522  1.992   .     S
O1515  Zn1522  1.969   .     S
O1516  Zn1521  1.969   .     S
O1517  Zn1521  1.944   .     S
O1518  Zn1522  1.944   .     S
O1519  Zn1522  1.891   .     S
O1520  Zn1521  1.891   .     S
H1524  O695    0.992   1_556 S
O1525  H1526   0.991   .     S
S1527  O1530   1.682   .     S
S1527  O1620   1.499   .     S
S1527  O1621   1.501   .     S
O1530  H1531   0.991   .     S
S1532  O1534   1.500   .     D
S1532  O1533   1.497   .     D
O1535  H1536   0.990   .     S
O1535  S1624   1.683   .     S
O1537  H1538   0.992   .     S
O1539  H1540   0.990   .     S
S1541  O1543   1.504   .     D
S1541  O1544   1.681   .     S
S1541  O1542   1.503   .     D
O1544  H1545   0.990   .     S
S1546  O1548   1.502   .     D
S1546  O1549   1.682   .     S
S1546  O1547   1.498   .     D
O1549  H1550   0.990   .     S
S1551  O1553   1.496   .     D
S1551  O1552   1.502   .     D
S1551  O1646   1.684   .     S
O1554  H1555   0.991   .     S
S1556  O1557   1.497   .     D
S1556  O1558   1.502   .     D
O1559  H1560   0.991   .     S
O1559  S1648   1.684   .     S
O1561  H1562   0.991   .     S
O1563  H1564   0.986   .     S
C1565  O1607   1.291   .     A
C1565  C1576   1.406   .     S
C1565  O1605   1.297   .     A
C1566  O1608   1.291   .     A
C1566  C1575   1.406   .     S
C1566  O1606   1.297   .     A
C1567  S1633   1.792   .     S
C1567  C1596   1.426   .     A
C1567  C1569   1.400   .     A
C1568  S1638   1.791   .     S
C1568  C1570   1.416   .     A
C1568  C1595   1.443   .     A
C1569  O1615   1.379   .     S
C1570  O1617   1.383   .     S
C1570  C766    1.403   1_556 S
C1571  C1576   1.395   .     A
C1571  H1599   1.084   .     S
C1571  C1021   1.372   1_565 S
C1572  H1600   1.084   .     S
C1572  C1575   1.396   .     A
C1573  H1601   1.082   .     S
C1573  C1575   1.392   .     A
C1574  C1576   1.392   .     A
C1574  H1602   1.083   .     S
C1574  C1020   1.372   1_565 S
C1577  S1643   1.792   .     S
C1577  N1604   1.400   .     A
C1577  C1395   1.437   1_655 S
C1578  S1648   1.797   .     S
C1578  N1603   1.399   .     A
C1579  O1653   1.372   .     S
C1579  N1603   1.356   .     A
C1580  N1604   1.363   .     A
C1580  O1655   1.371   .     S
C1580  C1394   1.427   1_655 S
C1581  O1609   1.311   .     A
C1581  O1611   1.311   .     A
C1581  C1583   1.471   .     S
C1582  C1584   1.472   .     S
C1582  O1610   1.304   .     A
C1582  O1612   1.317   .     A
C1583  C1587   1.394   .     A
C1583  C1589   1.385   .     A
C1584  C1588   1.412   .     A
C1584  C1590   1.393   .     A
C1585  C1587   1.410   .     A
C1585  C1593   1.425   .     A
C1585  O1629   1.381   .     S
C1586  C1594   1.419   .     A
C1586  C1588   1.413   .     A
C1586  O1631   1.381   .     S
C1587  S1624   1.769   .     S
C1588  S1619   1.782   .     S
C1589  H1598   1.066   .     S
C1589  C1591   1.398   .     A
C1590  H1597   1.082   .     S
C1590  C1592   1.399   .     A
C1591  C1593   1.427   .     A
C1591  C1595   1.430   .     A
C1592  C1596   1.408   .     A
C1592  C1594   1.407   .     A
C1593  C741    1.411   1_556 S
C1595  C768    1.419   1_556 S
N1603  Zn1613  2.046   .     S
N1604  Zn1614  2.046   .     S
O1605  Zn1613  1.992   .     S
O1606  Zn1614  1.992   .     S
O1607  Zn1614  1.969   .     S
O1608  Zn1613  1.969   .     S
O1609  Zn1613  1.944   .     S
O1610  Zn1614  1.944   .     S
O1611  Zn1614  1.891   .     S
O1612  Zn1613  1.891   .     S
H1616  O787    0.992   1_556 S
O1617  H1618   0.991   .     S
S1619  O1622   1.682   .     S
S1619  O1436   1.499   1_655 S
S1619  O1437   1.501   1_655 S
O1622  H1623   0.991   .     S
S1624  O1626   1.500   .     D
S1624  O1625   1.497   .     D
O1627  H1628   0.990   .     S
O1627  S1440   1.683   1_655 S
O1629  H1630   0.992   .     S
O1631  H1632   0.990   .     S
S1633  O1635   1.504   .     D
S1633  O1636   1.681   .     S
S1633  O1634   1.503   .     D
O1636  H1637   0.990   .     S
S1638  O1640   1.502   .     D
S1638  O1641   1.682   .     S
S1638  O1639   1.498   .     D
O1641  H1642   0.990   .     S
S1643  O1645   1.496   .     D
S1643  O1644   1.502   .     D
S1643  O1462   1.684   1_655 S
O1646  H1647   0.991   .     S
S1648  O1649   1.497   .     D
S1648  O1650   1.502   .     D
O1651  H1652   0.991   .     S
O1651  S1464   1.684   1_655 S
O1653  H1654   0.991   .     S
O1655  H1656   0.986   .     S
