data_str_m3_o1_o18_pcu_sym.69
_audit_creation_date              2020-01-03
_audit_creation_method            'Materials Studio'
_symmetry_space_group_name_H-M    'P1'
_symmetry_Int_Tables_number       1
_symmetry_cell_setting            triclinic
loop_
_symmetry_equiv_pos_as_xyz
  x,y,z
_cell_length_a                    29.5403
_cell_length_b                    32.1160
_cell_length_c                    30.5942
_cell_angle_alpha                 90.0680
_cell_angle_beta                  68.2311
_cell_angle_gamma                 89.9761
loop_
_atom_site_label
_atom_site_type_symbol
_atom_site_fract_x
_atom_site_fract_y
_atom_site_fract_z
_atom_site_U_iso_or_equiv
_atom_site_adp_type
_atom_site_occupancy
C1     C     0.16668   0.24670   0.25000   0.00000  Uiso   1.00
C2     C     0.13248   0.31201   0.23669   0.00000  Uiso   1.00
C3     C     0.16673   0.04251   0.24987   0.00000  Uiso   1.00
C4     C     0.16670   0.29085   0.24993   0.00000  Uiso   1.00
C5     C     0.32065   0.14086   0.22064   0.00000  Uiso   1.00
C6     C     0.01266   0.19241   0.27942   0.00000  Uiso   1.00
C7     C     0.03526   0.14086   0.22065   0.00000  Uiso   1.00
C8     C     0.29806   0.19242   0.27939   0.00000  Uiso   1.00
C9     C     0.13636   0.16577   0.33830   0.00000  Uiso   1.00
C10    C     0.19705   0.16607   0.16171   0.00000  Uiso   1.00
C11    C     0.11876   0.15589   0.38843   0.00000  Uiso   1.00
C12    C     0.16668   0.08664   0.24995   0.00000  Uiso   1.00
C13    C     0.21636   0.16085   0.11067   0.00000  Uiso   1.00
C14    C     0.06463   0.11763   0.45557   0.00000  Uiso   1.00
C15    C     0.28254   0.16278   0.03494   0.00000  Uiso   1.00
C16    C     0.07474   0.13479   0.41098   0.00000  Uiso   1.00
C17    C     0.26574   0.16727   0.08364   0.00000  Uiso   1.00
C18    C     0.15192   0.15978   0.41073   0.00000  Uiso   1.00
C19    C     0.18469   0.14778   0.08906   0.00000  Uiso   1.00
C20    C     0.14562   0.13775   0.45180   0.00000  Uiso   1.00
C21    C     0.20149   0.14009   0.04070   0.00000  Uiso   1.00
C22    C     0.09979   0.11930   0.47635   0.00000  Uiso   1.00
C23    C     0.12413   0.10621   0.04263   0.00000  Uiso   1.00
C24    C     0.25041   0.15041   0.01320   0.00000  Uiso   1.00
C25    C     0.18303   0.13567   0.47010   0.00000  Uiso   1.00
C26    C     0.16945   0.12687   0.01856   0.00000  Uiso   1.00
C27    C     0.14243   0.04921   0.08513   0.00000  Uiso   1.00
C28    C     0.25197   0.09754   0.37387   0.00000  Uiso   1.00
C29    C     0.23334   0.14222   0.44219   0.00000  Uiso   1.00
C30    C     0.09017   0.10237   0.02081   0.00000  Uiso   1.00
C31    C     0.26630   0.14932   0.46437   0.00000  Uiso   1.00
C32    C     0.20098   0.31202   0.26309   0.00000  Uiso   1.00
C33    C     0.13252   0.02135   0.23662   0.00000  Uiso   1.00
C34    C     0.20098   0.02136   0.26308   0.00000  Uiso   1.00
H35    H     0.05583   0.08665   0.03901   0.00000  Uiso   1.00
H36    H     0.10621   0.03767   0.22590   0.00000  Uiso   1.00
H37    H     0.22730   0.03768   0.27376   0.00000  Uiso   1.00
H38    H     0.10613   0.29569   0.22605   0.00000  Uiso   1.00
H39    H     0.31152   0.12025   0.19714   0.00000  Uiso   1.00
H40    H     0.02176   0.21296   0.30298   0.00000  Uiso   1.00
H41    H     0.06243   0.12022   0.19717   0.00000  Uiso   1.00
H42    H     0.27086   0.21298   0.30295   0.00000  Uiso   1.00
H43    H     0.07718   0.08172   0.10614   0.00000  Uiso   1.00
H44    H     0.13353   0.03710   0.12135   0.00000  Uiso   1.00
H45    H     0.18200   0.05638   0.07007   0.00000  Uiso   1.00
H46    H     0.30411   0.15562   0.44329   0.00000  Uiso   1.00
H47    H     0.13404   0.02477   0.06351   0.00000  Uiso   1.00
H48    H     0.28465   0.15427   0.37545   0.00000  Uiso   1.00
H49    H     0.26468   0.09872   0.33487   0.00000  Uiso   1.00
H50    H     0.21469   0.08410   0.38751   0.00000  Uiso   1.00
H51    H     0.27692   0.07713   0.38390   0.00000  Uiso   1.00
H52    H     0.14631   0.14565   0.11013   0.00000  Uiso   1.00
H53    H     0.18353   0.17933   0.39474   0.00000  Uiso   1.00
H54    H     0.29090   0.17706   0.09992   0.00000  Uiso   1.00
H55    H     0.04918   0.13040   0.39357   0.00000  Uiso   1.00
H56    H     0.03011   0.10201   0.47311   0.00000  Uiso   1.00
H57    H     0.32023   0.17006   0.01426   0.00000  Uiso   1.00
H58    H     0.22732   0.29571   0.27375   0.00000  Uiso   1.00
N59    N     0.04759   0.16668   0.25001   0.00000  Uiso   1.00
N60    N     0.28574   0.16666   0.24999   0.00000  Uiso   1.00
N61    N     0.11378   0.08616   0.08686   0.00000  Uiso   1.00
N62    N     0.25195   0.13914   0.39209   0.00000  Uiso   1.00
O63    O     0.12846   0.22775   0.25001   0.00000  Uiso   1.00
O64    O     0.20488   0.10558   0.25000   0.00000  Uiso   1.00
O65    O     0.20490   0.22774   0.25000   0.00000  Uiso   1.00
O66    O     0.12843   0.10559   0.25000   0.00000  Uiso   1.00
O67    O     0.10661   0.16667   0.31613   0.00000  Uiso   1.00
O68    O     0.22672   0.16666   0.18388   0.00000  Uiso   1.00
O69    O     0.18305   0.16666   0.31612   0.00000  Uiso   1.00
O70    O     0.15028   0.16667   0.18388   0.00000  Uiso   1.00
Zn71   Zn    0.11562   0.16667   0.25000   0.00000  Uiso   1.00
Zn72   Zn    0.21771   0.16666   0.25000   0.00000  Uiso   1.00
C73    C     0.50001   0.24670   0.25000   0.00000  Uiso   1.00
C74    C     0.46582   0.31201   0.23669   0.00000  Uiso   1.00
C75    C     0.50006   0.04251   0.24987   0.00000  Uiso   1.00
C76    C     0.50004   0.29085   0.24993   0.00000  Uiso   1.00
C77    C     0.65398   0.14086   0.22064   0.00000  Uiso   1.00
C78    C     0.34600   0.19241   0.27942   0.00000  Uiso   1.00
C79    C     0.36859   0.14086   0.22065   0.00000  Uiso   1.00
C80    C     0.63140   0.19242   0.27939   0.00000  Uiso   1.00
C81    C     0.46969   0.16577   0.33830   0.00000  Uiso   1.00
C82    C     0.53038   0.16607   0.16171   0.00000  Uiso   1.00
C83    C     0.45209   0.15589   0.38843   0.00000  Uiso   1.00
C84    C     0.50001   0.08664   0.24995   0.00000  Uiso   1.00
C85    C     0.54969   0.16085   0.11067   0.00000  Uiso   1.00
C86    C     0.39796   0.11763   0.45557   0.00000  Uiso   1.00
C87    C     0.61587   0.16278   0.03494   0.00000  Uiso   1.00
C88    C     0.40807   0.13479   0.41098   0.00000  Uiso   1.00
C89    C     0.59908   0.16727   0.08364   0.00000  Uiso   1.00
C90    C     0.48525   0.15978   0.41073   0.00000  Uiso   1.00
C91    C     0.51802   0.14778   0.08906   0.00000  Uiso   1.00
C92    C     0.47895   0.13775   0.45180   0.00000  Uiso   1.00
C93    C     0.53483   0.14009   0.04070   0.00000  Uiso   1.00
C94    C     0.43313   0.11930   0.47635   0.00000  Uiso   1.00
C95    C     0.45746   0.10621   0.04263   0.00000  Uiso   1.00
C96    C     0.58375   0.15041   0.01320   0.00000  Uiso   1.00
C97    C     0.51636   0.13567   0.47010   0.00000  Uiso   1.00
C98    C     0.50279   0.12687   0.01856   0.00000  Uiso   1.00
C99    C     0.47576   0.04921   0.08513   0.00000  Uiso   1.00
C100   C     0.58530   0.09754   0.37387   0.00000  Uiso   1.00
C101   C     0.56668   0.14222   0.44219   0.00000  Uiso   1.00
C102   C     0.42350   0.10237   0.02081   0.00000  Uiso   1.00
C103   C     0.59963   0.14932   0.46437   0.00000  Uiso   1.00
C104   C     0.53431   0.31202   0.26309   0.00000  Uiso   1.00
C105   C     0.46585   0.02135   0.23662   0.00000  Uiso   1.00
C106   C     0.53431   0.02136   0.26308   0.00000  Uiso   1.00
H107   H     0.38916   0.08665   0.03901   0.00000  Uiso   1.00
H108   H     0.43955   0.03767   0.22590   0.00000  Uiso   1.00
H109   H     0.56064   0.03768   0.27376   0.00000  Uiso   1.00
H110   H     0.43946   0.29569   0.22605   0.00000  Uiso   1.00
H111   H     0.64486   0.12025   0.19714   0.00000  Uiso   1.00
H112   H     0.35509   0.21296   0.30298   0.00000  Uiso   1.00
H113   H     0.39577   0.12022   0.19717   0.00000  Uiso   1.00
H114   H     0.60419   0.21298   0.30295   0.00000  Uiso   1.00
H115   H     0.41051   0.08172   0.10614   0.00000  Uiso   1.00
H116   H     0.46686   0.03710   0.12135   0.00000  Uiso   1.00
H117   H     0.51534   0.05638   0.07007   0.00000  Uiso   1.00
H118   H     0.63744   0.15562   0.44329   0.00000  Uiso   1.00
H119   H     0.46737   0.02477   0.06351   0.00000  Uiso   1.00
H120   H     0.61799   0.15427   0.37545   0.00000  Uiso   1.00
H121   H     0.59802   0.09872   0.33487   0.00000  Uiso   1.00
H122   H     0.54802   0.08410   0.38751   0.00000  Uiso   1.00
H123   H     0.61026   0.07713   0.38390   0.00000  Uiso   1.00
H124   H     0.47964   0.14565   0.11013   0.00000  Uiso   1.00
H125   H     0.51686   0.17933   0.39474   0.00000  Uiso   1.00
H126   H     0.62423   0.17706   0.09992   0.00000  Uiso   1.00
H127   H     0.38251   0.13040   0.39357   0.00000  Uiso   1.00
H128   H     0.36345   0.10201   0.47311   0.00000  Uiso   1.00
H129   H     0.65357   0.17006   0.01426   0.00000  Uiso   1.00
H130   H     0.56066   0.29571   0.27375   0.00000  Uiso   1.00
N131   N     0.38093   0.16668   0.25001   0.00000  Uiso   1.00
N132   N     0.61907   0.16666   0.24999   0.00000  Uiso   1.00
N133   N     0.44712   0.08616   0.08686   0.00000  Uiso   1.00
N134   N     0.58528   0.13914   0.39209   0.00000  Uiso   1.00
O135   O     0.46179   0.22775   0.25001   0.00000  Uiso   1.00
O136   O     0.53821   0.10558   0.25000   0.00000  Uiso   1.00
O137   O     0.53823   0.22774   0.25000   0.00000  Uiso   1.00
O138   O     0.46177   0.10559   0.25000   0.00000  Uiso   1.00
O139   O     0.43994   0.16667   0.31613   0.00000  Uiso   1.00
O140   O     0.56006   0.16666   0.18388   0.00000  Uiso   1.00
O141   O     0.51639   0.16666   0.31612   0.00000  Uiso   1.00
O142   O     0.48361   0.16667   0.18388   0.00000  Uiso   1.00
Zn143  Zn    0.44896   0.16667   0.25000   0.00000  Uiso   1.00
Zn144  Zn    0.55104   0.16666   0.25000   0.00000  Uiso   1.00
C145   C     0.83334   0.24670   0.25000   0.00000  Uiso   1.00
C146   C     0.79915   0.31201   0.23669   0.00000  Uiso   1.00
C147   C     0.83340   0.04251   0.24987   0.00000  Uiso   1.00
C148   C     0.83337   0.29085   0.24993   0.00000  Uiso   1.00
C149   C     0.98731   0.14086   0.22064   0.00000  Uiso   1.00
C150   C     0.67933   0.19241   0.27942   0.00000  Uiso   1.00
C151   C     0.70192   0.14086   0.22065   0.00000  Uiso   1.00
C152   C     0.96473   0.19242   0.27939   0.00000  Uiso   1.00
C153   C     0.80302   0.16577   0.33830   0.00000  Uiso   1.00
C154   C     0.86372   0.16607   0.16171   0.00000  Uiso   1.00
C155   C     0.78542   0.15589   0.38843   0.00000  Uiso   1.00
C156   C     0.83335   0.08664   0.24995   0.00000  Uiso   1.00
C157   C     0.88303   0.16085   0.11067   0.00000  Uiso   1.00
C158   C     0.73129   0.11763   0.45557   0.00000  Uiso   1.00
C159   C     0.94921   0.16278   0.03494   0.00000  Uiso   1.00
C160   C     0.74141   0.13479   0.41098   0.00000  Uiso   1.00
C161   C     0.93241   0.16727   0.08364   0.00000  Uiso   1.00
C162   C     0.81858   0.15978   0.41073   0.00000  Uiso   1.00
C163   C     0.85135   0.14778   0.08906   0.00000  Uiso   1.00
C164   C     0.81228   0.13775   0.45180   0.00000  Uiso   1.00
C165   C     0.86816   0.14009   0.04070   0.00000  Uiso   1.00
C166   C     0.76646   0.11930   0.47635   0.00000  Uiso   1.00
C167   C     0.79080   0.10621   0.04263   0.00000  Uiso   1.00
C168   C     0.91708   0.15041   0.01320   0.00000  Uiso   1.00
C169   C     0.84970   0.13567   0.47010   0.00000  Uiso   1.00
C170   C     0.83612   0.12687   0.01856   0.00000  Uiso   1.00
C171   C     0.80909   0.04921   0.08513   0.00000  Uiso   1.00
C172   C     0.91864   0.09754   0.37387   0.00000  Uiso   1.00
C173   C     0.90001   0.14222   0.44219   0.00000  Uiso   1.00
C174   C     0.75683   0.10237   0.02081   0.00000  Uiso   1.00
C175   C     0.93296   0.14932   0.46437   0.00000  Uiso   1.00
C176   C     0.86764   0.31202   0.26309   0.00000  Uiso   1.00
C177   C     0.79919   0.02135   0.23662   0.00000  Uiso   1.00
C178   C     0.86764   0.02136   0.26308   0.00000  Uiso   1.00
H179   H     0.72250   0.08665   0.03901   0.00000  Uiso   1.00
H180   H     0.77288   0.03767   0.22590   0.00000  Uiso   1.00
H181   H     0.89397   0.03768   0.27376   0.00000  Uiso   1.00
H182   H     0.77279   0.29569   0.22605   0.00000  Uiso   1.00
H183   H     0.97819   0.12025   0.19714   0.00000  Uiso   1.00
H184   H     0.68842   0.21296   0.30298   0.00000  Uiso   1.00
H185   H     0.72910   0.12022   0.19717   0.00000  Uiso   1.00
H186   H     0.93753   0.21298   0.30295   0.00000  Uiso   1.00
H187   H     0.74384   0.08172   0.10614   0.00000  Uiso   1.00
H188   H     0.80019   0.03710   0.12135   0.00000  Uiso   1.00
H189   H     0.84867   0.05638   0.07007   0.00000  Uiso   1.00
H190   H     0.97078   0.15562   0.44329   0.00000  Uiso   1.00
H191   H     0.80070   0.02477   0.06351   0.00000  Uiso   1.00
H192   H     0.95132   0.15427   0.37545   0.00000  Uiso   1.00
H193   H     0.93135   0.09872   0.33487   0.00000  Uiso   1.00
H194   H     0.88136   0.08410   0.38751   0.00000  Uiso   1.00
H195   H     0.94359   0.07713   0.38390   0.00000  Uiso   1.00
H196   H     0.81298   0.14565   0.11013   0.00000  Uiso   1.00
H197   H     0.85019   0.17933   0.39474   0.00000  Uiso   1.00
H198   H     0.95756   0.17706   0.09992   0.00000  Uiso   1.00
H199   H     0.71585   0.13040   0.39357   0.00000  Uiso   1.00
H200   H     0.69678   0.10201   0.47311   0.00000  Uiso   1.00
H201   H     0.98690   0.17006   0.01426   0.00000  Uiso   1.00
H202   H     0.89399   0.29571   0.27375   0.00000  Uiso   1.00
N203   N     0.71426   0.16668   0.25001   0.00000  Uiso   1.00
N204   N     0.95241   0.16666   0.24999   0.00000  Uiso   1.00
N205   N     0.78045   0.08616   0.08686   0.00000  Uiso   1.00
N206   N     0.91862   0.13914   0.39209   0.00000  Uiso   1.00
O207   O     0.79512   0.22775   0.25001   0.00000  Uiso   1.00
O208   O     0.87154   0.10558   0.25000   0.00000  Uiso   1.00
O209   O     0.87157   0.22774   0.25000   0.00000  Uiso   1.00
O210   O     0.79510   0.10559   0.25000   0.00000  Uiso   1.00
O211   O     0.77328   0.16667   0.31613   0.00000  Uiso   1.00
O212   O     0.89339   0.16666   0.18388   0.00000  Uiso   1.00
O213   O     0.84972   0.16666   0.31612   0.00000  Uiso   1.00
O214   O     0.81695   0.16667   0.18388   0.00000  Uiso   1.00
Zn215  Zn    0.78229   0.16667   0.25000   0.00000  Uiso   1.00
Zn216  Zn    0.88438   0.16666   0.25000   0.00000  Uiso   1.00
C217   C     0.16668   0.58004   0.25000   0.00000  Uiso   1.00
C218   C     0.13248   0.64534   0.23669   0.00000  Uiso   1.00
C219   C     0.16673   0.37584   0.24987   0.00000  Uiso   1.00
C220   C     0.16670   0.62419   0.24993   0.00000  Uiso   1.00
C221   C     0.32065   0.47420   0.22064   0.00000  Uiso   1.00
C222   C     0.01266   0.52574   0.27942   0.00000  Uiso   1.00
C223   C     0.03526   0.47419   0.22065   0.00000  Uiso   1.00
C224   C     0.29806   0.52575   0.27939   0.00000  Uiso   1.00
C225   C     0.13636   0.49910   0.33830   0.00000  Uiso   1.00
C226   C     0.19705   0.49941   0.16171   0.00000  Uiso   1.00
C227   C     0.11876   0.48922   0.38843   0.00000  Uiso   1.00
C228   C     0.16668   0.41997   0.24995   0.00000  Uiso   1.00
C229   C     0.21636   0.49418   0.11067   0.00000  Uiso   1.00
C230   C     0.06463   0.45097   0.45557   0.00000  Uiso   1.00
C231   C     0.28254   0.49611   0.03494   0.00000  Uiso   1.00
C232   C     0.07474   0.46812   0.41098   0.00000  Uiso   1.00
C233   C     0.26574   0.50060   0.08364   0.00000  Uiso   1.00
C234   C     0.15192   0.49311   0.41073   0.00000  Uiso   1.00
C235   C     0.18469   0.48112   0.08906   0.00000  Uiso   1.00
C236   C     0.14562   0.47108   0.45180   0.00000  Uiso   1.00
C237   C     0.20149   0.47342   0.04070   0.00000  Uiso   1.00
C238   C     0.09979   0.45263   0.47635   0.00000  Uiso   1.00
C239   C     0.12413   0.43954   0.04263   0.00000  Uiso   1.00
C240   C     0.25041   0.48375   0.01320   0.00000  Uiso   1.00
C241   C     0.18303   0.46900   0.47010   0.00000  Uiso   1.00
C242   C     0.16945   0.46020   0.01856   0.00000  Uiso   1.00
C243   C     0.14243   0.38254   0.08513   0.00000  Uiso   1.00
C244   C     0.25197   0.43087   0.37387   0.00000  Uiso   1.00
C245   C     0.23334   0.47555   0.44219   0.00000  Uiso   1.00
C246   C     0.09017   0.43570   0.02081   0.00000  Uiso   1.00
C247   C     0.26630   0.48265   0.46437   0.00000  Uiso   1.00
C248   C     0.20098   0.64536   0.26309   0.00000  Uiso   1.00
C249   C     0.13252   0.35468   0.23662   0.00000  Uiso   1.00
C250   C     0.20098   0.35469   0.26308   0.00000  Uiso   1.00
H251   H     0.05583   0.41998   0.03901   0.00000  Uiso   1.00
H252   H     0.10621   0.37100   0.22590   0.00000  Uiso   1.00
H253   H     0.22730   0.37102   0.27376   0.00000  Uiso   1.00
H254   H     0.10613   0.62902   0.22605   0.00000  Uiso   1.00
H255   H     0.31152   0.45359   0.19714   0.00000  Uiso   1.00
H256   H     0.02176   0.54629   0.30298   0.00000  Uiso   1.00
H257   H     0.06243   0.45356   0.19717   0.00000  Uiso   1.00
H258   H     0.27086   0.54632   0.30295   0.00000  Uiso   1.00
H259   H     0.07718   0.41506   0.10614   0.00000  Uiso   1.00
H260   H     0.13353   0.37043   0.12135   0.00000  Uiso   1.00
H261   H     0.18200   0.38971   0.07007   0.00000  Uiso   1.00
H262   H     0.30411   0.48895   0.44329   0.00000  Uiso   1.00
H263   H     0.13404   0.35811   0.06351   0.00000  Uiso   1.00
H264   H     0.28465   0.48761   0.37545   0.00000  Uiso   1.00
H265   H     0.26468   0.43205   0.33487   0.00000  Uiso   1.00
H266   H     0.21469   0.41744   0.38751   0.00000  Uiso   1.00
H267   H     0.27692   0.41046   0.38390   0.00000  Uiso   1.00
H268   H     0.14631   0.47898   0.11013   0.00000  Uiso   1.00
H269   H     0.18353   0.51267   0.39474   0.00000  Uiso   1.00
H270   H     0.29090   0.51039   0.09992   0.00000  Uiso   1.00
H271   H     0.04918   0.46373   0.39357   0.00000  Uiso   1.00
H272   H     0.03011   0.43535   0.47311   0.00000  Uiso   1.00
H273   H     0.32023   0.50339   0.01426   0.00000  Uiso   1.00
H274   H     0.22732   0.62905   0.27375   0.00000  Uiso   1.00
N275   N     0.04759   0.50001   0.25001   0.00000  Uiso   1.00
N276   N     0.28574   0.49999   0.24999   0.00000  Uiso   1.00
N277   N     0.11378   0.41950   0.08686   0.00000  Uiso   1.00
N278   N     0.25195   0.47247   0.39209   0.00000  Uiso   1.00
O279   O     0.12846   0.56108   0.25001   0.00000  Uiso   1.00
O280   O     0.20488   0.43892   0.25000   0.00000  Uiso   1.00
O281   O     0.20490   0.56107   0.25000   0.00000  Uiso   1.00
O282   O     0.12843   0.43893   0.25000   0.00000  Uiso   1.00
O283   O     0.10661   0.50001   0.31613   0.00000  Uiso   1.00
O284   O     0.22672   0.49999   0.18388   0.00000  Uiso   1.00
O285   O     0.18305   0.50000   0.31612   0.00000  Uiso   1.00
O286   O     0.15028   0.50000   0.18388   0.00000  Uiso   1.00
Zn287  Zn    0.11562   0.50001   0.25000   0.00000  Uiso   1.00
Zn288  Zn    0.21771   0.49999   0.25000   0.00000  Uiso   1.00
C289   C     0.50001   0.58004   0.25000   0.00000  Uiso   1.00
C290   C     0.46582   0.64534   0.23669   0.00000  Uiso   1.00
C291   C     0.50006   0.37584   0.24987   0.00000  Uiso   1.00
C292   C     0.50004   0.62419   0.24993   0.00000  Uiso   1.00
C293   C     0.65398   0.47420   0.22064   0.00000  Uiso   1.00
C294   C     0.34600   0.52574   0.27942   0.00000  Uiso   1.00
C295   C     0.36859   0.47419   0.22065   0.00000  Uiso   1.00
C296   C     0.63140   0.52575   0.27939   0.00000  Uiso   1.00
C297   C     0.46969   0.49910   0.33830   0.00000  Uiso   1.00
C298   C     0.53038   0.49941   0.16171   0.00000  Uiso   1.00
C299   C     0.45209   0.48922   0.38843   0.00000  Uiso   1.00
C300   C     0.50001   0.41997   0.24995   0.00000  Uiso   1.00
C301   C     0.54969   0.49418   0.11067   0.00000  Uiso   1.00
C302   C     0.39796   0.45097   0.45557   0.00000  Uiso   1.00
C303   C     0.61587   0.49611   0.03494   0.00000  Uiso   1.00
C304   C     0.40807   0.46812   0.41098   0.00000  Uiso   1.00
C305   C     0.59908   0.50060   0.08364   0.00000  Uiso   1.00
C306   C     0.48525   0.49311   0.41073   0.00000  Uiso   1.00
C307   C     0.51802   0.48112   0.08906   0.00000  Uiso   1.00
C308   C     0.47895   0.47108   0.45180   0.00000  Uiso   1.00
C309   C     0.53483   0.47342   0.04070   0.00000  Uiso   1.00
C310   C     0.43313   0.45263   0.47635   0.00000  Uiso   1.00
C311   C     0.45746   0.43954   0.04263   0.00000  Uiso   1.00
C312   C     0.58375   0.48375   0.01320   0.00000  Uiso   1.00
C313   C     0.51636   0.46900   0.47010   0.00000  Uiso   1.00
C314   C     0.50279   0.46020   0.01856   0.00000  Uiso   1.00
C315   C     0.47576   0.38254   0.08513   0.00000  Uiso   1.00
C316   C     0.58530   0.43087   0.37387   0.00000  Uiso   1.00
C317   C     0.56668   0.47555   0.44219   0.00000  Uiso   1.00
C318   C     0.42350   0.43570   0.02081   0.00000  Uiso   1.00
C319   C     0.59963   0.48265   0.46437   0.00000  Uiso   1.00
C320   C     0.53431   0.64536   0.26309   0.00000  Uiso   1.00
C321   C     0.46585   0.35468   0.23662   0.00000  Uiso   1.00
C322   C     0.53431   0.35469   0.26308   0.00000  Uiso   1.00
H323   H     0.38916   0.41998   0.03901   0.00000  Uiso   1.00
H324   H     0.43955   0.37100   0.22590   0.00000  Uiso   1.00
H325   H     0.56064   0.37102   0.27376   0.00000  Uiso   1.00
H326   H     0.43946   0.62902   0.22605   0.00000  Uiso   1.00
H327   H     0.64486   0.45359   0.19714   0.00000  Uiso   1.00
H328   H     0.35509   0.54629   0.30298   0.00000  Uiso   1.00
H329   H     0.39577   0.45356   0.19717   0.00000  Uiso   1.00
H330   H     0.60419   0.54632   0.30295   0.00000  Uiso   1.00
H331   H     0.41051   0.41506   0.10614   0.00000  Uiso   1.00
H332   H     0.46686   0.37043   0.12135   0.00000  Uiso   1.00
H333   H     0.51534   0.38971   0.07007   0.00000  Uiso   1.00
H334   H     0.63744   0.48895   0.44329   0.00000  Uiso   1.00
H335   H     0.46737   0.35811   0.06351   0.00000  Uiso   1.00
H336   H     0.61799   0.48761   0.37545   0.00000  Uiso   1.00
H337   H     0.59802   0.43205   0.33487   0.00000  Uiso   1.00
H338   H     0.54802   0.41744   0.38751   0.00000  Uiso   1.00
H339   H     0.61026   0.41046   0.38390   0.00000  Uiso   1.00
H340   H     0.47964   0.47898   0.11013   0.00000  Uiso   1.00
H341   H     0.51686   0.51267   0.39474   0.00000  Uiso   1.00
H342   H     0.62423   0.51039   0.09992   0.00000  Uiso   1.00
H343   H     0.38251   0.46373   0.39357   0.00000  Uiso   1.00
H344   H     0.36345   0.43535   0.47311   0.00000  Uiso   1.00
H345   H     0.65357   0.50339   0.01426   0.00000  Uiso   1.00
H346   H     0.56066   0.62905   0.27375   0.00000  Uiso   1.00
N347   N     0.38093   0.50001   0.25001   0.00000  Uiso   1.00
N348   N     0.61907   0.49999   0.24999   0.00000  Uiso   1.00
N349   N     0.44712   0.41950   0.08686   0.00000  Uiso   1.00
N350   N     0.58528   0.47247   0.39209   0.00000  Uiso   1.00
O351   O     0.46179   0.56108   0.25001   0.00000  Uiso   1.00
O352   O     0.53821   0.43892   0.25000   0.00000  Uiso   1.00
O353   O     0.53823   0.56107   0.25000   0.00000  Uiso   1.00
O354   O     0.46177   0.43893   0.25000   0.00000  Uiso   1.00
O355   O     0.43994   0.50001   0.31613   0.00000  Uiso   1.00
O356   O     0.56006   0.49999   0.18388   0.00000  Uiso   1.00
O357   O     0.51639   0.50000   0.31612   0.00000  Uiso   1.00
O358   O     0.48361   0.50000   0.18388   0.00000  Uiso   1.00
Zn359  Zn    0.44896   0.50001   0.25000   0.00000  Uiso   1.00
Zn360  Zn    0.55104   0.49999   0.25000   0.00000  Uiso   1.00
C361   C     0.83334   0.58004   0.25000   0.00000  Uiso   1.00
C362   C     0.79915   0.64534   0.23669   0.00000  Uiso   1.00
C363   C     0.83340   0.37584   0.24987   0.00000  Uiso   1.00
C364   C     0.83337   0.62419   0.24993   0.00000  Uiso   1.00
C365   C     0.98731   0.47420   0.22064   0.00000  Uiso   1.00
C366   C     0.67933   0.52574   0.27942   0.00000  Uiso   1.00
C367   C     0.70192   0.47419   0.22065   0.00000  Uiso   1.00
C368   C     0.96473   0.52575   0.27939   0.00000  Uiso   1.00
C369   C     0.80302   0.49910   0.33830   0.00000  Uiso   1.00
C370   C     0.86372   0.49941   0.16171   0.00000  Uiso   1.00
C371   C     0.78542   0.48922   0.38843   0.00000  Uiso   1.00
C372   C     0.83335   0.41997   0.24995   0.00000  Uiso   1.00
C373   C     0.88303   0.49418   0.11067   0.00000  Uiso   1.00
C374   C     0.73129   0.45097   0.45557   0.00000  Uiso   1.00
C375   C     0.94921   0.49611   0.03494   0.00000  Uiso   1.00
C376   C     0.74141   0.46812   0.41098   0.00000  Uiso   1.00
C377   C     0.93241   0.50060   0.08364   0.00000  Uiso   1.00
C378   C     0.81858   0.49311   0.41073   0.00000  Uiso   1.00
C379   C     0.85135   0.48112   0.08906   0.00000  Uiso   1.00
C380   C     0.81228   0.47108   0.45180   0.00000  Uiso   1.00
C381   C     0.86816   0.47342   0.04070   0.00000  Uiso   1.00
C382   C     0.76646   0.45263   0.47635   0.00000  Uiso   1.00
C383   C     0.79080   0.43954   0.04263   0.00000  Uiso   1.00
C384   C     0.91708   0.48375   0.01320   0.00000  Uiso   1.00
C385   C     0.84970   0.46900   0.47010   0.00000  Uiso   1.00
C386   C     0.83612   0.46020   0.01856   0.00000  Uiso   1.00
C387   C     0.80909   0.38254   0.08513   0.00000  Uiso   1.00
C388   C     0.91864   0.43087   0.37387   0.00000  Uiso   1.00
C389   C     0.90001   0.47555   0.44219   0.00000  Uiso   1.00
C390   C     0.75683   0.43570   0.02081   0.00000  Uiso   1.00
C391   C     0.93296   0.48265   0.46437   0.00000  Uiso   1.00
C392   C     0.86764   0.64536   0.26309   0.00000  Uiso   1.00
C393   C     0.79919   0.35468   0.23662   0.00000  Uiso   1.00
C394   C     0.86764   0.35469   0.26308   0.00000  Uiso   1.00
H395   H     0.72250   0.41998   0.03901   0.00000  Uiso   1.00
H396   H     0.77288   0.37100   0.22590   0.00000  Uiso   1.00
H397   H     0.89397   0.37102   0.27376   0.00000  Uiso   1.00
H398   H     0.77279   0.62902   0.22605   0.00000  Uiso   1.00
H399   H     0.97819   0.45359   0.19714   0.00000  Uiso   1.00
H400   H     0.68842   0.54629   0.30298   0.00000  Uiso   1.00
H401   H     0.72910   0.45356   0.19717   0.00000  Uiso   1.00
H402   H     0.93753   0.54632   0.30295   0.00000  Uiso   1.00
H403   H     0.74384   0.41506   0.10614   0.00000  Uiso   1.00
H404   H     0.80019   0.37043   0.12135   0.00000  Uiso   1.00
H405   H     0.84867   0.38971   0.07007   0.00000  Uiso   1.00
H406   H     0.97078   0.48895   0.44329   0.00000  Uiso   1.00
H407   H     0.80070   0.35811   0.06351   0.00000  Uiso   1.00
H408   H     0.95132   0.48761   0.37545   0.00000  Uiso   1.00
H409   H     0.93135   0.43205   0.33487   0.00000  Uiso   1.00
H410   H     0.88136   0.41744   0.38751   0.00000  Uiso   1.00
H411   H     0.94359   0.41046   0.38390   0.00000  Uiso   1.00
H412   H     0.81298   0.47898   0.11013   0.00000  Uiso   1.00
H413   H     0.85019   0.51267   0.39474   0.00000  Uiso   1.00
H414   H     0.95756   0.51039   0.09992   0.00000  Uiso   1.00
H415   H     0.71585   0.46373   0.39357   0.00000  Uiso   1.00
H416   H     0.69678   0.43535   0.47311   0.00000  Uiso   1.00
H417   H     0.98690   0.50339   0.01426   0.00000  Uiso   1.00
H418   H     0.89399   0.62905   0.27375   0.00000  Uiso   1.00
N419   N     0.71426   0.50001   0.25001   0.00000  Uiso   1.00
N420   N     0.95241   0.49999   0.24999   0.00000  Uiso   1.00
N421   N     0.78045   0.41950   0.08686   0.00000  Uiso   1.00
N422   N     0.91862   0.47247   0.39209   0.00000  Uiso   1.00
O423   O     0.79512   0.56108   0.25001   0.00000  Uiso   1.00
O424   O     0.87154   0.43892   0.25000   0.00000  Uiso   1.00
O425   O     0.87157   0.56107   0.25000   0.00000  Uiso   1.00
O426   O     0.79510   0.43893   0.25000   0.00000  Uiso   1.00
O427   O     0.77328   0.50001   0.31613   0.00000  Uiso   1.00
O428   O     0.89339   0.49999   0.18388   0.00000  Uiso   1.00
O429   O     0.84972   0.50000   0.31612   0.00000  Uiso   1.00
O430   O     0.81695   0.50000   0.18388   0.00000  Uiso   1.00
Zn431  Zn    0.78229   0.50001   0.25000   0.00000  Uiso   1.00
Zn432  Zn    0.88438   0.49999   0.25000   0.00000  Uiso   1.00
C433   C     0.16668   0.91337   0.25000   0.00000  Uiso   1.00
C434   C     0.13248   0.97868   0.23669   0.00000  Uiso   1.00
C435   C     0.16673   0.70917   0.24987   0.00000  Uiso   1.00
C436   C     0.16670   0.95752   0.24993   0.00000  Uiso   1.00
C437   C     0.32065   0.80753   0.22064   0.00000  Uiso   1.00
C438   C     0.01266   0.85908   0.27942   0.00000  Uiso   1.00
C439   C     0.03526   0.80753   0.22065   0.00000  Uiso   1.00
C440   C     0.29806   0.85909   0.27939   0.00000  Uiso   1.00
C441   C     0.13636   0.83243   0.33830   0.00000  Uiso   1.00
C442   C     0.19705   0.83274   0.16171   0.00000  Uiso   1.00
C443   C     0.11876   0.82255   0.38843   0.00000  Uiso   1.00
C444   C     0.16668   0.75331   0.24995   0.00000  Uiso   1.00
C445   C     0.21636   0.82751   0.11067   0.00000  Uiso   1.00
C446   C     0.06463   0.78430   0.45557   0.00000  Uiso   1.00
C447   C     0.28254   0.82945   0.03494   0.00000  Uiso   1.00
C448   C     0.07474   0.80146   0.41098   0.00000  Uiso   1.00
C449   C     0.26574   0.83394   0.08364   0.00000  Uiso   1.00
C450   C     0.15192   0.82644   0.41073   0.00000  Uiso   1.00
C451   C     0.18469   0.81445   0.08906   0.00000  Uiso   1.00
C452   C     0.14562   0.80442   0.45180   0.00000  Uiso   1.00
C453   C     0.20149   0.80676   0.04070   0.00000  Uiso   1.00
C454   C     0.09979   0.78596   0.47635   0.00000  Uiso   1.00
C455   C     0.12413   0.77288   0.04263   0.00000  Uiso   1.00
C456   C     0.25041   0.81708   0.01320   0.00000  Uiso   1.00
C457   C     0.18303   0.80233   0.47010   0.00000  Uiso   1.00
C458   C     0.16945   0.79354   0.01856   0.00000  Uiso   1.00
C459   C     0.14243   0.71587   0.08513   0.00000  Uiso   1.00
C460   C     0.25197   0.76420   0.37387   0.00000  Uiso   1.00
C461   C     0.23334   0.80889   0.44219   0.00000  Uiso   1.00
C462   C     0.09017   0.76904   0.02081   0.00000  Uiso   1.00
C463   C     0.26630   0.81599   0.46437   0.00000  Uiso   1.00
C464   C     0.20098   0.97869   0.26309   0.00000  Uiso   1.00
C465   C     0.13252   0.68801   0.23662   0.00000  Uiso   1.00
C466   C     0.20098   0.68802   0.26308   0.00000  Uiso   1.00
H467   H     0.05583   0.75332   0.03901   0.00000  Uiso   1.00
H468   H     0.10621   0.70433   0.22590   0.00000  Uiso   1.00
H469   H     0.22730   0.70435   0.27376   0.00000  Uiso   1.00
H470   H     0.10613   0.96235   0.22605   0.00000  Uiso   1.00
H471   H     0.31152   0.78692   0.19714   0.00000  Uiso   1.00
H472   H     0.02176   0.87963   0.30298   0.00000  Uiso   1.00
H473   H     0.06243   0.78689   0.19717   0.00000  Uiso   1.00
H474   H     0.27086   0.87965   0.30295   0.00000  Uiso   1.00
H475   H     0.07718   0.74839   0.10614   0.00000  Uiso   1.00
H476   H     0.13353   0.70376   0.12135   0.00000  Uiso   1.00
H477   H     0.18200   0.72304   0.07007   0.00000  Uiso   1.00
H478   H     0.30411   0.82228   0.44329   0.00000  Uiso   1.00
H479   H     0.13404   0.69144   0.06351   0.00000  Uiso   1.00
H480   H     0.28465   0.82094   0.37545   0.00000  Uiso   1.00
H481   H     0.26468   0.76539   0.33487   0.00000  Uiso   1.00
H482   H     0.21469   0.75077   0.38751   0.00000  Uiso   1.00
H483   H     0.27692   0.74379   0.38390   0.00000  Uiso   1.00
H484   H     0.14631   0.81231   0.11013   0.00000  Uiso   1.00
H485   H     0.18353   0.84600   0.39474   0.00000  Uiso   1.00
H486   H     0.29090   0.84373   0.09992   0.00000  Uiso   1.00
H487   H     0.04918   0.79706   0.39357   0.00000  Uiso   1.00
H488   H     0.03011   0.76868   0.47311   0.00000  Uiso   1.00
H489   H     0.32023   0.83673   0.01426   0.00000  Uiso   1.00
H490   H     0.22732   0.96238   0.27375   0.00000  Uiso   1.00
N491   N     0.04759   0.83334   0.25001   0.00000  Uiso   1.00
N492   N     0.28574   0.83332   0.24999   0.00000  Uiso   1.00
N493   N     0.11378   0.75283   0.08686   0.00000  Uiso   1.00
N494   N     0.25195   0.80580   0.39209   0.00000  Uiso   1.00
O495   O     0.12846   0.89442   0.25001   0.00000  Uiso   1.00
O496   O     0.20488   0.77225   0.25000   0.00000  Uiso   1.00
O497   O     0.20490   0.89441   0.25000   0.00000  Uiso   1.00
O498   O     0.12843   0.77226   0.25000   0.00000  Uiso   1.00
O499   O     0.10661   0.83334   0.31613   0.00000  Uiso   1.00
O500   O     0.22672   0.83333   0.18388   0.00000  Uiso   1.00
O501   O     0.18305   0.83333   0.31612   0.00000  Uiso   1.00
O502   O     0.15028   0.83334   0.18388   0.00000  Uiso   1.00
Zn503  Zn    0.11562   0.83334   0.25000   0.00000  Uiso   1.00
Zn504  Zn    0.21771   0.83333   0.25000   0.00000  Uiso   1.00
C505   C     0.50001   0.91337   0.25000   0.00000  Uiso   1.00
C506   C     0.46582   0.97868   0.23669   0.00000  Uiso   1.00
C507   C     0.50006   0.70917   0.24987   0.00000  Uiso   1.00
C508   C     0.50004   0.95752   0.24993   0.00000  Uiso   1.00
C509   C     0.65398   0.80753   0.22064   0.00000  Uiso   1.00
C510   C     0.34600   0.85908   0.27942   0.00000  Uiso   1.00
C511   C     0.36859   0.80753   0.22065   0.00000  Uiso   1.00
C512   C     0.63140   0.85909   0.27939   0.00000  Uiso   1.00
C513   C     0.46969   0.83243   0.33830   0.00000  Uiso   1.00
C514   C     0.53038   0.83274   0.16171   0.00000  Uiso   1.00
C515   C     0.45209   0.82255   0.38843   0.00000  Uiso   1.00
C516   C     0.50001   0.75331   0.24995   0.00000  Uiso   1.00
C517   C     0.54969   0.82751   0.11067   0.00000  Uiso   1.00
C518   C     0.39796   0.78430   0.45557   0.00000  Uiso   1.00
C519   C     0.61587   0.82945   0.03494   0.00000  Uiso   1.00
C520   C     0.40807   0.80146   0.41098   0.00000  Uiso   1.00
C521   C     0.59908   0.83394   0.08364   0.00000  Uiso   1.00
C522   C     0.48525   0.82644   0.41073   0.00000  Uiso   1.00
C523   C     0.51802   0.81445   0.08906   0.00000  Uiso   1.00
C524   C     0.47895   0.80442   0.45180   0.00000  Uiso   1.00
C525   C     0.53483   0.80676   0.04070   0.00000  Uiso   1.00
C526   C     0.43313   0.78596   0.47635   0.00000  Uiso   1.00
C527   C     0.45746   0.77288   0.04263   0.00000  Uiso   1.00
C528   C     0.58375   0.81708   0.01320   0.00000  Uiso   1.00
C529   C     0.51636   0.80233   0.47010   0.00000  Uiso   1.00
C530   C     0.50279   0.79354   0.01856   0.00000  Uiso   1.00
C531   C     0.47576   0.71587   0.08513   0.00000  Uiso   1.00
C532   C     0.58530   0.76420   0.37387   0.00000  Uiso   1.00
C533   C     0.56668   0.80889   0.44219   0.00000  Uiso   1.00
C534   C     0.42350   0.76904   0.02081   0.00000  Uiso   1.00
C535   C     0.59963   0.81599   0.46437   0.00000  Uiso   1.00
C536   C     0.53431   0.97869   0.26309   0.00000  Uiso   1.00
C537   C     0.46585   0.68801   0.23662   0.00000  Uiso   1.00
C538   C     0.53431   0.68802   0.26308   0.00000  Uiso   1.00
H539   H     0.38916   0.75332   0.03901   0.00000  Uiso   1.00
H540   H     0.43955   0.70433   0.22590   0.00000  Uiso   1.00
H541   H     0.56064   0.70435   0.27376   0.00000  Uiso   1.00
H542   H     0.43946   0.96235   0.22605   0.00000  Uiso   1.00
H543   H     0.64486   0.78692   0.19714   0.00000  Uiso   1.00
H544   H     0.35509   0.87963   0.30298   0.00000  Uiso   1.00
H545   H     0.39577   0.78689   0.19717   0.00000  Uiso   1.00
H546   H     0.60419   0.87965   0.30295   0.00000  Uiso   1.00
H547   H     0.41051   0.74839   0.10614   0.00000  Uiso   1.00
H548   H     0.46686   0.70376   0.12135   0.00000  Uiso   1.00
H549   H     0.51534   0.72304   0.07007   0.00000  Uiso   1.00
H550   H     0.63744   0.82228   0.44329   0.00000  Uiso   1.00
H551   H     0.46737   0.69144   0.06351   0.00000  Uiso   1.00
H552   H     0.61799   0.82094   0.37545   0.00000  Uiso   1.00
H553   H     0.59802   0.76539   0.33487   0.00000  Uiso   1.00
H554   H     0.54802   0.75077   0.38751   0.00000  Uiso   1.00
H555   H     0.61026   0.74379   0.38390   0.00000  Uiso   1.00
H556   H     0.47964   0.81231   0.11013   0.00000  Uiso   1.00
H557   H     0.51686   0.84600   0.39474   0.00000  Uiso   1.00
H558   H     0.62423   0.84373   0.09992   0.00000  Uiso   1.00
H559   H     0.38251   0.79706   0.39357   0.00000  Uiso   1.00
H560   H     0.36345   0.76868   0.47311   0.00000  Uiso   1.00
H561   H     0.65357   0.83673   0.01426   0.00000  Uiso   1.00
H562   H     0.56066   0.96238   0.27375   0.00000  Uiso   1.00
N563   N     0.38093   0.83334   0.25001   0.00000  Uiso   1.00
N564   N     0.61907   0.83332   0.24999   0.00000  Uiso   1.00
N565   N     0.44712   0.75283   0.08686   0.00000  Uiso   1.00
N566   N     0.58528   0.80580   0.39209   0.00000  Uiso   1.00
O567   O     0.46179   0.89442   0.25001   0.00000  Uiso   1.00
O568   O     0.53821   0.77225   0.25000   0.00000  Uiso   1.00
O569   O     0.53823   0.89441   0.25000   0.00000  Uiso   1.00
O570   O     0.46177   0.77226   0.25000   0.00000  Uiso   1.00
O571   O     0.43994   0.83334   0.31613   0.00000  Uiso   1.00
O572   O     0.56006   0.83333   0.18388   0.00000  Uiso   1.00
O573   O     0.51639   0.83333   0.31612   0.00000  Uiso   1.00
O574   O     0.48361   0.83334   0.18388   0.00000  Uiso   1.00
Zn575  Zn    0.44896   0.83334   0.25000   0.00000  Uiso   1.00
Zn576  Zn    0.55104   0.83333   0.25000   0.00000  Uiso   1.00
C577   C     0.83334   0.91337   0.25000   0.00000  Uiso   1.00
C578   C     0.79915   0.97868   0.23669   0.00000  Uiso   1.00
C579   C     0.83340   0.70917   0.24987   0.00000  Uiso   1.00
C580   C     0.83337   0.95752   0.24993   0.00000  Uiso   1.00
C581   C     0.98731   0.80753   0.22064   0.00000  Uiso   1.00
C582   C     0.67933   0.85908   0.27942   0.00000  Uiso   1.00
C583   C     0.70192   0.80753   0.22065   0.00000  Uiso   1.00
C584   C     0.96473   0.85909   0.27939   0.00000  Uiso   1.00
C585   C     0.80302   0.83243   0.33830   0.00000  Uiso   1.00
C586   C     0.86372   0.83274   0.16171   0.00000  Uiso   1.00
C587   C     0.78542   0.82255   0.38843   0.00000  Uiso   1.00
C588   C     0.83335   0.75331   0.24995   0.00000  Uiso   1.00
C589   C     0.88303   0.82751   0.11067   0.00000  Uiso   1.00
C590   C     0.73129   0.78430   0.45557   0.00000  Uiso   1.00
C591   C     0.94921   0.82945   0.03494   0.00000  Uiso   1.00
C592   C     0.74141   0.80146   0.41098   0.00000  Uiso   1.00
C593   C     0.93241   0.83394   0.08364   0.00000  Uiso   1.00
C594   C     0.81858   0.82644   0.41073   0.00000  Uiso   1.00
C595   C     0.85135   0.81445   0.08906   0.00000  Uiso   1.00
C596   C     0.81228   0.80442   0.45180   0.00000  Uiso   1.00
C597   C     0.86816   0.80676   0.04070   0.00000  Uiso   1.00
C598   C     0.76646   0.78596   0.47635   0.00000  Uiso   1.00
C599   C     0.79080   0.77288   0.04263   0.00000  Uiso   1.00
C600   C     0.91708   0.81708   0.01320   0.00000  Uiso   1.00
C601   C     0.84970   0.80233   0.47010   0.00000  Uiso   1.00
C602   C     0.83612   0.79354   0.01856   0.00000  Uiso   1.00
C603   C     0.80909   0.71587   0.08513   0.00000  Uiso   1.00
C604   C     0.91864   0.76420   0.37387   0.00000  Uiso   1.00
C605   C     0.90001   0.80889   0.44219   0.00000  Uiso   1.00
C606   C     0.75683   0.76904   0.02081   0.00000  Uiso   1.00
C607   C     0.93296   0.81599   0.46437   0.00000  Uiso   1.00
C608   C     0.86764   0.97869   0.26309   0.00000  Uiso   1.00
C609   C     0.79919   0.68801   0.23662   0.00000  Uiso   1.00
C610   C     0.86764   0.68802   0.26308   0.00000  Uiso   1.00
H611   H     0.72250   0.75332   0.03901   0.00000  Uiso   1.00
H612   H     0.77288   0.70433   0.22590   0.00000  Uiso   1.00
H613   H     0.89397   0.70435   0.27376   0.00000  Uiso   1.00
H614   H     0.77279   0.96235   0.22605   0.00000  Uiso   1.00
H615   H     0.97819   0.78692   0.19714   0.00000  Uiso   1.00
H616   H     0.68842   0.87963   0.30298   0.00000  Uiso   1.00
H617   H     0.72910   0.78689   0.19717   0.00000  Uiso   1.00
H618   H     0.93753   0.87965   0.30295   0.00000  Uiso   1.00
H619   H     0.74384   0.74839   0.10614   0.00000  Uiso   1.00
H620   H     0.80019   0.70376   0.12135   0.00000  Uiso   1.00
H621   H     0.84867   0.72304   0.07007   0.00000  Uiso   1.00
H622   H     0.97078   0.82228   0.44329   0.00000  Uiso   1.00
H623   H     0.80070   0.69144   0.06351   0.00000  Uiso   1.00
H624   H     0.95132   0.82094   0.37545   0.00000  Uiso   1.00
H625   H     0.93135   0.76539   0.33487   0.00000  Uiso   1.00
H626   H     0.88136   0.75077   0.38751   0.00000  Uiso   1.00
H627   H     0.94359   0.74379   0.38390   0.00000  Uiso   1.00
H628   H     0.81298   0.81231   0.11013   0.00000  Uiso   1.00
H629   H     0.85019   0.84600   0.39474   0.00000  Uiso   1.00
H630   H     0.95756   0.84373   0.09992   0.00000  Uiso   1.00
H631   H     0.71585   0.79706   0.39357   0.00000  Uiso   1.00
H632   H     0.69678   0.76868   0.47311   0.00000  Uiso   1.00
H633   H     0.98690   0.83673   0.01426   0.00000  Uiso   1.00
H634   H     0.89399   0.96238   0.27375   0.00000  Uiso   1.00
N635   N     0.71426   0.83334   0.25001   0.00000  Uiso   1.00
N636   N     0.95241   0.83332   0.24999   0.00000  Uiso   1.00
N637   N     0.78045   0.75283   0.08686   0.00000  Uiso   1.00
N638   N     0.91862   0.80580   0.39209   0.00000  Uiso   1.00
O639   O     0.79512   0.89442   0.25001   0.00000  Uiso   1.00
O640   O     0.87154   0.77225   0.25000   0.00000  Uiso   1.00
O641   O     0.87157   0.89441   0.25000   0.00000  Uiso   1.00
O642   O     0.79510   0.77226   0.25000   0.00000  Uiso   1.00
O643   O     0.77328   0.83334   0.31613   0.00000  Uiso   1.00
O644   O     0.89339   0.83333   0.18388   0.00000  Uiso   1.00
O645   O     0.84972   0.83333   0.31612   0.00000  Uiso   1.00
O646   O     0.81695   0.83334   0.18388   0.00000  Uiso   1.00
Zn647  Zn    0.78229   0.83334   0.25000   0.00000  Uiso   1.00
Zn648  Zn    0.88438   0.83333   0.25000   0.00000  Uiso   1.00
C649   C     0.16668   0.24670   0.75000   0.00000  Uiso   1.00
C650   C     0.13248   0.31201   0.73669   0.00000  Uiso   1.00
C651   C     0.16673   0.04251   0.74987   0.00000  Uiso   1.00
C652   C     0.16670   0.29085   0.74993   0.00000  Uiso   1.00
C653   C     0.32065   0.14086   0.72064   0.00000  Uiso   1.00
C654   C     0.01266   0.19241   0.77942   0.00000  Uiso   1.00
C655   C     0.03526   0.14086   0.72065   0.00000  Uiso   1.00
C656   C     0.29806   0.19242   0.77939   0.00000  Uiso   1.00
C657   C     0.13636   0.16577   0.83830   0.00000  Uiso   1.00
C658   C     0.19705   0.16607   0.66171   0.00000  Uiso   1.00
C659   C     0.11876   0.15589   0.88843   0.00000  Uiso   1.00
C660   C     0.16668   0.08664   0.74995   0.00000  Uiso   1.00
C661   C     0.21636   0.16085   0.61067   0.00000  Uiso   1.00
C662   C     0.06463   0.11763   0.95557   0.00000  Uiso   1.00
C663   C     0.28254   0.16278   0.53494   0.00000  Uiso   1.00
C664   C     0.07474   0.13479   0.91098   0.00000  Uiso   1.00
C665   C     0.26574   0.16727   0.58364   0.00000  Uiso   1.00
C666   C     0.15192   0.15978   0.91073   0.00000  Uiso   1.00
C667   C     0.18469   0.14778   0.58906   0.00000  Uiso   1.00
C668   C     0.14562   0.13775   0.95180   0.00000  Uiso   1.00
C669   C     0.20149   0.14009   0.54070   0.00000  Uiso   1.00
C670   C     0.09979   0.11930   0.97635   0.00000  Uiso   1.00
C671   C     0.12413   0.10621   0.54263   0.00000  Uiso   1.00
C672   C     0.25041   0.15041   0.51320   0.00000  Uiso   1.00
C673   C     0.18303   0.13567   0.97010   0.00000  Uiso   1.00
C674   C     0.16945   0.12687   0.51856   0.00000  Uiso   1.00
C675   C     0.14243   0.04921   0.58513   0.00000  Uiso   1.00
C676   C     0.25197   0.09754   0.87387   0.00000  Uiso   1.00
C677   C     0.23334   0.14222   0.94219   0.00000  Uiso   1.00
C678   C     0.09017   0.10237   0.52081   0.00000  Uiso   1.00
C679   C     0.26630   0.14932   0.96437   0.00000  Uiso   1.00
C680   C     0.20098   0.31202   0.76309   0.00000  Uiso   1.00
C681   C     0.13252   0.02135   0.73662   0.00000  Uiso   1.00
C682   C     0.20098   0.02136   0.76308   0.00000  Uiso   1.00
H683   H     0.05583   0.08665   0.53901   0.00000  Uiso   1.00
H684   H     0.10621   0.03767   0.72590   0.00000  Uiso   1.00
H685   H     0.22730   0.03768   0.77376   0.00000  Uiso   1.00
H686   H     0.10613   0.29569   0.72605   0.00000  Uiso   1.00
H687   H     0.31152   0.12025   0.69714   0.00000  Uiso   1.00
H688   H     0.02176   0.21296   0.80298   0.00000  Uiso   1.00
H689   H     0.06243   0.12022   0.69717   0.00000  Uiso   1.00
H690   H     0.27086   0.21298   0.80295   0.00000  Uiso   1.00
H691   H     0.07718   0.08172   0.60614   0.00000  Uiso   1.00
H692   H     0.13353   0.03710   0.62135   0.00000  Uiso   1.00
H693   H     0.18200   0.05638   0.57007   0.00000  Uiso   1.00
H694   H     0.30411   0.15562   0.94329   0.00000  Uiso   1.00
H695   H     0.13404   0.02477   0.56351   0.00000  Uiso   1.00
H696   H     0.28465   0.15427   0.87545   0.00000  Uiso   1.00
H697   H     0.26468   0.09872   0.83487   0.00000  Uiso   1.00
H698   H     0.21469   0.08410   0.88751   0.00000  Uiso   1.00
H699   H     0.27692   0.07713   0.88390   0.00000  Uiso   1.00
H700   H     0.14631   0.14565   0.61013   0.00000  Uiso   1.00
H701   H     0.18353   0.17933   0.89474   0.00000  Uiso   1.00
H702   H     0.29090   0.17706   0.59992   0.00000  Uiso   1.00
H703   H     0.04918   0.13040   0.89357   0.00000  Uiso   1.00
H704   H     0.03011   0.10201   0.97311   0.00000  Uiso   1.00
H705   H     0.32023   0.17006   0.51426   0.00000  Uiso   1.00
H706   H     0.22732   0.29571   0.77375   0.00000  Uiso   1.00
N707   N     0.04759   0.16668   0.75001   0.00000  Uiso   1.00
N708   N     0.28574   0.16666   0.74999   0.00000  Uiso   1.00
N709   N     0.11378   0.08616   0.58686   0.00000  Uiso   1.00
N710   N     0.25195   0.13914   0.89209   0.00000  Uiso   1.00
O711   O     0.12846   0.22775   0.75001   0.00000  Uiso   1.00
O712   O     0.20488   0.10558   0.75000   0.00000  Uiso   1.00
O713   O     0.20490   0.22774   0.75000   0.00000  Uiso   1.00
O714   O     0.12843   0.10559   0.75000   0.00000  Uiso   1.00
O715   O     0.10661   0.16667   0.81613   0.00000  Uiso   1.00
O716   O     0.22672   0.16666   0.68388   0.00000  Uiso   1.00
O717   O     0.18305   0.16666   0.81612   0.00000  Uiso   1.00
O718   O     0.15028   0.16667   0.68388   0.00000  Uiso   1.00
Zn719  Zn    0.11562   0.16667   0.75000   0.00000  Uiso   1.00
Zn720  Zn    0.21771   0.16666   0.75000   0.00000  Uiso   1.00
C721   C     0.50001   0.24670   0.75000   0.00000  Uiso   1.00
C722   C     0.46582   0.31201   0.73669   0.00000  Uiso   1.00
C723   C     0.50006   0.04251   0.74987   0.00000  Uiso   1.00
C724   C     0.50004   0.29085   0.74993   0.00000  Uiso   1.00
C725   C     0.65398   0.14086   0.72064   0.00000  Uiso   1.00
C726   C     0.34600   0.19241   0.77942   0.00000  Uiso   1.00
C727   C     0.36859   0.14086   0.72065   0.00000  Uiso   1.00
C728   C     0.63140   0.19242   0.77939   0.00000  Uiso   1.00
C729   C     0.46969   0.16577   0.83830   0.00000  Uiso   1.00
C730   C     0.53038   0.16607   0.66171   0.00000  Uiso   1.00
C731   C     0.45209   0.15589   0.88843   0.00000  Uiso   1.00
C732   C     0.50001   0.08664   0.74995   0.00000  Uiso   1.00
C733   C     0.54969   0.16085   0.61067   0.00000  Uiso   1.00
C734   C     0.39796   0.11763   0.95557   0.00000  Uiso   1.00
C735   C     0.61587   0.16278   0.53494   0.00000  Uiso   1.00
C736   C     0.40807   0.13479   0.91098   0.00000  Uiso   1.00
C737   C     0.59908   0.16727   0.58364   0.00000  Uiso   1.00
C738   C     0.48525   0.15978   0.91073   0.00000  Uiso   1.00
C739   C     0.51802   0.14778   0.58906   0.00000  Uiso   1.00
C740   C     0.47895   0.13775   0.95180   0.00000  Uiso   1.00
C741   C     0.53483   0.14009   0.54070   0.00000  Uiso   1.00
C742   C     0.43313   0.11930   0.97635   0.00000  Uiso   1.00
C743   C     0.45746   0.10621   0.54263   0.00000  Uiso   1.00
C744   C     0.58375   0.15041   0.51320   0.00000  Uiso   1.00
C745   C     0.51636   0.13567   0.97010   0.00000  Uiso   1.00
C746   C     0.50279   0.12687   0.51856   0.00000  Uiso   1.00
C747   C     0.47576   0.04921   0.58513   0.00000  Uiso   1.00
C748   C     0.58530   0.09754   0.87387   0.00000  Uiso   1.00
C749   C     0.56668   0.14222   0.94219   0.00000  Uiso   1.00
C750   C     0.42350   0.10237   0.52081   0.00000  Uiso   1.00
C751   C     0.59963   0.14932   0.96437   0.00000  Uiso   1.00
C752   C     0.53431   0.31202   0.76309   0.00000  Uiso   1.00
C753   C     0.46585   0.02135   0.73662   0.00000  Uiso   1.00
C754   C     0.53431   0.02136   0.76308   0.00000  Uiso   1.00
H755   H     0.38916   0.08665   0.53901   0.00000  Uiso   1.00
H756   H     0.43955   0.03767   0.72590   0.00000  Uiso   1.00
H757   H     0.56064   0.03768   0.77376   0.00000  Uiso   1.00
H758   H     0.43946   0.29569   0.72605   0.00000  Uiso   1.00
H759   H     0.64486   0.12025   0.69714   0.00000  Uiso   1.00
H760   H     0.35509   0.21296   0.80298   0.00000  Uiso   1.00
H761   H     0.39577   0.12022   0.69717   0.00000  Uiso   1.00
H762   H     0.60419   0.21298   0.80295   0.00000  Uiso   1.00
H763   H     0.41051   0.08172   0.60614   0.00000  Uiso   1.00
H764   H     0.46686   0.03710   0.62135   0.00000  Uiso   1.00
H765   H     0.51534   0.05638   0.57007   0.00000  Uiso   1.00
H766   H     0.63744   0.15562   0.94329   0.00000  Uiso   1.00
H767   H     0.46737   0.02477   0.56351   0.00000  Uiso   1.00
H768   H     0.61799   0.15427   0.87545   0.00000  Uiso   1.00
H769   H     0.59802   0.09872   0.83487   0.00000  Uiso   1.00
H770   H     0.54802   0.08410   0.88751   0.00000  Uiso   1.00
H771   H     0.61026   0.07713   0.88390   0.00000  Uiso   1.00
H772   H     0.47964   0.14565   0.61013   0.00000  Uiso   1.00
H773   H     0.51686   0.17933   0.89474   0.00000  Uiso   1.00
H774   H     0.62423   0.17706   0.59992   0.00000  Uiso   1.00
H775   H     0.38251   0.13040   0.89357   0.00000  Uiso   1.00
H776   H     0.36345   0.10201   0.97311   0.00000  Uiso   1.00
H777   H     0.65357   0.17006   0.51426   0.00000  Uiso   1.00
H778   H     0.56066   0.29571   0.77375   0.00000  Uiso   1.00
N779   N     0.38093   0.16668   0.75001   0.00000  Uiso   1.00
N780   N     0.61907   0.16666   0.74999   0.00000  Uiso   1.00
N781   N     0.44712   0.08616   0.58686   0.00000  Uiso   1.00
N782   N     0.58528   0.13914   0.89209   0.00000  Uiso   1.00
O783   O     0.46179   0.22775   0.75001   0.00000  Uiso   1.00
O784   O     0.53821   0.10558   0.75000   0.00000  Uiso   1.00
O785   O     0.53823   0.22774   0.75000   0.00000  Uiso   1.00
O786   O     0.46177   0.10559   0.75000   0.00000  Uiso   1.00
O787   O     0.43994   0.16667   0.81613   0.00000  Uiso   1.00
O788   O     0.56006   0.16666   0.68388   0.00000  Uiso   1.00
O789   O     0.51639   0.16666   0.81612   0.00000  Uiso   1.00
O790   O     0.48361   0.16667   0.68388   0.00000  Uiso   1.00
Zn791  Zn    0.44896   0.16667   0.75000   0.00000  Uiso   1.00
Zn792  Zn    0.55104   0.16666   0.75000   0.00000  Uiso   1.00
C793   C     0.83334   0.24670   0.75000   0.00000  Uiso   1.00
C794   C     0.79915   0.31201   0.73669   0.00000  Uiso   1.00
C795   C     0.83340   0.04251   0.74987   0.00000  Uiso   1.00
C796   C     0.83337   0.29085   0.74993   0.00000  Uiso   1.00
C797   C     0.98731   0.14086   0.72064   0.00000  Uiso   1.00
C798   C     0.67933   0.19241   0.77942   0.00000  Uiso   1.00
C799   C     0.70192   0.14086   0.72065   0.00000  Uiso   1.00
C800   C     0.96473   0.19242   0.77939   0.00000  Uiso   1.00
C801   C     0.80302   0.16577   0.83830   0.00000  Uiso   1.00
C802   C     0.86372   0.16607   0.66171   0.00000  Uiso   1.00
C803   C     0.78542   0.15589   0.88843   0.00000  Uiso   1.00
C804   C     0.83335   0.08664   0.74995   0.00000  Uiso   1.00
C805   C     0.88303   0.16085   0.61067   0.00000  Uiso   1.00
C806   C     0.73129   0.11763   0.95557   0.00000  Uiso   1.00
C807   C     0.94921   0.16278   0.53494   0.00000  Uiso   1.00
C808   C     0.74141   0.13479   0.91098   0.00000  Uiso   1.00
C809   C     0.93241   0.16727   0.58364   0.00000  Uiso   1.00
C810   C     0.81858   0.15978   0.91073   0.00000  Uiso   1.00
C811   C     0.85135   0.14778   0.58906   0.00000  Uiso   1.00
C812   C     0.81228   0.13775   0.95180   0.00000  Uiso   1.00
C813   C     0.86816   0.14009   0.54070   0.00000  Uiso   1.00
C814   C     0.76646   0.11930   0.97635   0.00000  Uiso   1.00
C815   C     0.79080   0.10621   0.54263   0.00000  Uiso   1.00
C816   C     0.91708   0.15041   0.51320   0.00000  Uiso   1.00
C817   C     0.84970   0.13567   0.97010   0.00000  Uiso   1.00
C818   C     0.83612   0.12687   0.51856   0.00000  Uiso   1.00
C819   C     0.80909   0.04921   0.58513   0.00000  Uiso   1.00
C820   C     0.91864   0.09754   0.87387   0.00000  Uiso   1.00
C821   C     0.90001   0.14222   0.94219   0.00000  Uiso   1.00
C822   C     0.75683   0.10237   0.52081   0.00000  Uiso   1.00
C823   C     0.93296   0.14932   0.96437   0.00000  Uiso   1.00
C824   C     0.86764   0.31202   0.76309   0.00000  Uiso   1.00
C825   C     0.79919   0.02135   0.73662   0.00000  Uiso   1.00
C826   C     0.86764   0.02136   0.76308   0.00000  Uiso   1.00
H827   H     0.72250   0.08665   0.53901   0.00000  Uiso   1.00
H828   H     0.77288   0.03767   0.72590   0.00000  Uiso   1.00
H829   H     0.89397   0.03768   0.77376   0.00000  Uiso   1.00
H830   H     0.77279   0.29569   0.72605   0.00000  Uiso   1.00
H831   H     0.97819   0.12025   0.69714   0.00000  Uiso   1.00
H832   H     0.68842   0.21296   0.80298   0.00000  Uiso   1.00
H833   H     0.72910   0.12022   0.69717   0.00000  Uiso   1.00
H834   H     0.93753   0.21298   0.80295   0.00000  Uiso   1.00
H835   H     0.74384   0.08172   0.60614   0.00000  Uiso   1.00
H836   H     0.80019   0.03710   0.62135   0.00000  Uiso   1.00
H837   H     0.84867   0.05638   0.57007   0.00000  Uiso   1.00
H838   H     0.97078   0.15562   0.94329   0.00000  Uiso   1.00
H839   H     0.80070   0.02477   0.56351   0.00000  Uiso   1.00
H840   H     0.95132   0.15427   0.87545   0.00000  Uiso   1.00
H841   H     0.93135   0.09872   0.83487   0.00000  Uiso   1.00
H842   H     0.88136   0.08410   0.88751   0.00000  Uiso   1.00
H843   H     0.94359   0.07713   0.88390   0.00000  Uiso   1.00
H844   H     0.81298   0.14565   0.61013   0.00000  Uiso   1.00
H845   H     0.85019   0.17933   0.89474   0.00000  Uiso   1.00
H846   H     0.95756   0.17706   0.59992   0.00000  Uiso   1.00
H847   H     0.71585   0.13040   0.89357   0.00000  Uiso   1.00
H848   H     0.69678   0.10201   0.97311   0.00000  Uiso   1.00
H849   H     0.98690   0.17006   0.51426   0.00000  Uiso   1.00
H850   H     0.89399   0.29571   0.77375   0.00000  Uiso   1.00
N851   N     0.71426   0.16668   0.75001   0.00000  Uiso   1.00
N852   N     0.95241   0.16666   0.74999   0.00000  Uiso   1.00
N853   N     0.78045   0.08616   0.58686   0.00000  Uiso   1.00
N854   N     0.91862   0.13914   0.89209   0.00000  Uiso   1.00
O855   O     0.79512   0.22775   0.75001   0.00000  Uiso   1.00
O856   O     0.87154   0.10558   0.75000   0.00000  Uiso   1.00
O857   O     0.87157   0.22774   0.75000   0.00000  Uiso   1.00
O858   O     0.79510   0.10559   0.75000   0.00000  Uiso   1.00
O859   O     0.77328   0.16667   0.81613   0.00000  Uiso   1.00
O860   O     0.89339   0.16666   0.68388   0.00000  Uiso   1.00
O861   O     0.84972   0.16666   0.81612   0.00000  Uiso   1.00
O862   O     0.81695   0.16667   0.68388   0.00000  Uiso   1.00
Zn863  Zn    0.78229   0.16667   0.75000   0.00000  Uiso   1.00
Zn864  Zn    0.88438   0.16666   0.75000   0.00000  Uiso   1.00
C865   C     0.16668   0.58004   0.75000   0.00000  Uiso   1.00
C866   C     0.13248   0.64534   0.73669   0.00000  Uiso   1.00
C867   C     0.16673   0.37584   0.74987   0.00000  Uiso   1.00
C868   C     0.16670   0.62419   0.74993   0.00000  Uiso   1.00
C869   C     0.32065   0.47420   0.72064   0.00000  Uiso   1.00
C870   C     0.01266   0.52574   0.77942   0.00000  Uiso   1.00
C871   C     0.03526   0.47419   0.72065   0.00000  Uiso   1.00
C872   C     0.29806   0.52575   0.77939   0.00000  Uiso   1.00
C873   C     0.13636   0.49910   0.83830   0.00000  Uiso   1.00
C874   C     0.19705   0.49941   0.66171   0.00000  Uiso   1.00
C875   C     0.11876   0.48922   0.88843   0.00000  Uiso   1.00
C876   C     0.16668   0.41997   0.74995   0.00000  Uiso   1.00
C877   C     0.21636   0.49418   0.61067   0.00000  Uiso   1.00
C878   C     0.06463   0.45097   0.95557   0.00000  Uiso   1.00
C879   C     0.28254   0.49611   0.53494   0.00000  Uiso   1.00
C880   C     0.07474   0.46812   0.91098   0.00000  Uiso   1.00
C881   C     0.26574   0.50060   0.58364   0.00000  Uiso   1.00
C882   C     0.15192   0.49311   0.91073   0.00000  Uiso   1.00
C883   C     0.18469   0.48112   0.58906   0.00000  Uiso   1.00
C884   C     0.14562   0.47108   0.95180   0.00000  Uiso   1.00
C885   C     0.20149   0.47342   0.54070   0.00000  Uiso   1.00
C886   C     0.09979   0.45263   0.97635   0.00000  Uiso   1.00
C887   C     0.12413   0.43954   0.54263   0.00000  Uiso   1.00
C888   C     0.25041   0.48375   0.51320   0.00000  Uiso   1.00
C889   C     0.18303   0.46900   0.97010   0.00000  Uiso   1.00
C890   C     0.16945   0.46020   0.51856   0.00000  Uiso   1.00
C891   C     0.14243   0.38254   0.58513   0.00000  Uiso   1.00
C892   C     0.25197   0.43087   0.87387   0.00000  Uiso   1.00
C893   C     0.23334   0.47555   0.94219   0.00000  Uiso   1.00
C894   C     0.09017   0.43570   0.52081   0.00000  Uiso   1.00
C895   C     0.26630   0.48265   0.96437   0.00000  Uiso   1.00
C896   C     0.20098   0.64536   0.76309   0.00000  Uiso   1.00
C897   C     0.13252   0.35468   0.73662   0.00000  Uiso   1.00
C898   C     0.20098   0.35469   0.76308   0.00000  Uiso   1.00
H899   H     0.05583   0.41998   0.53901   0.00000  Uiso   1.00
H900   H     0.10621   0.37100   0.72590   0.00000  Uiso   1.00
H901   H     0.22730   0.37102   0.77376   0.00000  Uiso   1.00
H902   H     0.10613   0.62902   0.72605   0.00000  Uiso   1.00
H903   H     0.31152   0.45359   0.69714   0.00000  Uiso   1.00
H904   H     0.02176   0.54629   0.80298   0.00000  Uiso   1.00
H905   H     0.06243   0.45356   0.69717   0.00000  Uiso   1.00
H906   H     0.27086   0.54632   0.80295   0.00000  Uiso   1.00
H907   H     0.07718   0.41506   0.60614   0.00000  Uiso   1.00
H908   H     0.13353   0.37043   0.62135   0.00000  Uiso   1.00
H909   H     0.18200   0.38971   0.57007   0.00000  Uiso   1.00
H910   H     0.30411   0.48895   0.94329   0.00000  Uiso   1.00
H911   H     0.13404   0.35811   0.56351   0.00000  Uiso   1.00
H912   H     0.28465   0.48761   0.87545   0.00000  Uiso   1.00
H913   H     0.26468   0.43205   0.83487   0.00000  Uiso   1.00
H914   H     0.21469   0.41744   0.88751   0.00000  Uiso   1.00
H915   H     0.27692   0.41046   0.88390   0.00000  Uiso   1.00
H916   H     0.14631   0.47898   0.61013   0.00000  Uiso   1.00
H917   H     0.18353   0.51267   0.89474   0.00000  Uiso   1.00
H918   H     0.29090   0.51039   0.59992   0.00000  Uiso   1.00
H919   H     0.04918   0.46373   0.89357   0.00000  Uiso   1.00
H920   H     0.03011   0.43535   0.97311   0.00000  Uiso   1.00
H921   H     0.32023   0.50339   0.51426   0.00000  Uiso   1.00
H922   H     0.22732   0.62905   0.77375   0.00000  Uiso   1.00
N923   N     0.04759   0.50001   0.75001   0.00000  Uiso   1.00
N924   N     0.28574   0.49999   0.74999   0.00000  Uiso   1.00
N925   N     0.11378   0.41950   0.58686   0.00000  Uiso   1.00
N926   N     0.25195   0.47247   0.89209   0.00000  Uiso   1.00
O927   O     0.12846   0.56108   0.75001   0.00000  Uiso   1.00
O928   O     0.20488   0.43892   0.75000   0.00000  Uiso   1.00
O929   O     0.20490   0.56107   0.75000   0.00000  Uiso   1.00
O930   O     0.12843   0.43893   0.75000   0.00000  Uiso   1.00
O931   O     0.10661   0.50001   0.81613   0.00000  Uiso   1.00
O932   O     0.22672   0.49999   0.68388   0.00000  Uiso   1.00
O933   O     0.18305   0.50000   0.81612   0.00000  Uiso   1.00
O934   O     0.15028   0.50000   0.68388   0.00000  Uiso   1.00
Zn935  Zn    0.11562   0.50001   0.75000   0.00000  Uiso   1.00
Zn936  Zn    0.21771   0.49999   0.75000   0.00000  Uiso   1.00
C937   C     0.50001   0.58004   0.75000   0.00000  Uiso   1.00
C938   C     0.46582   0.64534   0.73669   0.00000  Uiso   1.00
C939   C     0.50006   0.37584   0.74987   0.00000  Uiso   1.00
C940   C     0.50004   0.62419   0.74993   0.00000  Uiso   1.00
C941   C     0.65398   0.47420   0.72064   0.00000  Uiso   1.00
C942   C     0.34600   0.52574   0.77942   0.00000  Uiso   1.00
C943   C     0.36859   0.47419   0.72065   0.00000  Uiso   1.00
C944   C     0.63140   0.52575   0.77939   0.00000  Uiso   1.00
C945   C     0.46969   0.49910   0.83830   0.00000  Uiso   1.00
C946   C     0.53038   0.49941   0.66171   0.00000  Uiso   1.00
C947   C     0.45209   0.48922   0.88843   0.00000  Uiso   1.00
C948   C     0.50001   0.41997   0.74995   0.00000  Uiso   1.00
C949   C     0.54969   0.49418   0.61067   0.00000  Uiso   1.00
C950   C     0.39796   0.45097   0.95557   0.00000  Uiso   1.00
C951   C     0.61587   0.49611   0.53494   0.00000  Uiso   1.00
C952   C     0.40807   0.46812   0.91098   0.00000  Uiso   1.00
C953   C     0.59908   0.50060   0.58364   0.00000  Uiso   1.00
C954   C     0.48525   0.49311   0.91073   0.00000  Uiso   1.00
C955   C     0.51802   0.48112   0.58906   0.00000  Uiso   1.00
C956   C     0.47895   0.47108   0.95180   0.00000  Uiso   1.00
C957   C     0.53483   0.47342   0.54070   0.00000  Uiso   1.00
C958   C     0.43313   0.45263   0.97635   0.00000  Uiso   1.00
C959   C     0.45746   0.43954   0.54263   0.00000  Uiso   1.00
C960   C     0.58375   0.48375   0.51320   0.00000  Uiso   1.00
C961   C     0.51636   0.46900   0.97010   0.00000  Uiso   1.00
C962   C     0.50279   0.46020   0.51856   0.00000  Uiso   1.00
C963   C     0.47576   0.38254   0.58513   0.00000  Uiso   1.00
C964   C     0.58530   0.43087   0.87387   0.00000  Uiso   1.00
C965   C     0.56668   0.47555   0.94219   0.00000  Uiso   1.00
C966   C     0.42350   0.43570   0.52081   0.00000  Uiso   1.00
C967   C     0.59963   0.48265   0.96437   0.00000  Uiso   1.00
C968   C     0.53431   0.64536   0.76309   0.00000  Uiso   1.00
C969   C     0.46585   0.35468   0.73662   0.00000  Uiso   1.00
C970   C     0.53431   0.35469   0.76308   0.00000  Uiso   1.00
H971   H     0.38916   0.41998   0.53901   0.00000  Uiso   1.00
H972   H     0.43955   0.37100   0.72590   0.00000  Uiso   1.00
H973   H     0.56064   0.37102   0.77376   0.00000  Uiso   1.00
H974   H     0.43946   0.62902   0.72605   0.00000  Uiso   1.00
H975   H     0.64486   0.45359   0.69714   0.00000  Uiso   1.00
H976   H     0.35509   0.54629   0.80298   0.00000  Uiso   1.00
H977   H     0.39577   0.45356   0.69717   0.00000  Uiso   1.00
H978   H     0.60419   0.54632   0.80295   0.00000  Uiso   1.00
H979   H     0.41051   0.41506   0.60614   0.00000  Uiso   1.00
H980   H     0.46686   0.37043   0.62135   0.00000  Uiso   1.00
H981   H     0.51534   0.38971   0.57007   0.00000  Uiso   1.00
H982   H     0.63744   0.48895   0.94329   0.00000  Uiso   1.00
H983   H     0.46737   0.35811   0.56351   0.00000  Uiso   1.00
H984   H     0.61799   0.48761   0.87545   0.00000  Uiso   1.00
H985   H     0.59802   0.43205   0.83487   0.00000  Uiso   1.00
H986   H     0.54802   0.41744   0.88751   0.00000  Uiso   1.00
H987   H     0.61026   0.41046   0.88390   0.00000  Uiso   1.00
H988   H     0.47964   0.47898   0.61013   0.00000  Uiso   1.00
H989   H     0.51686   0.51267   0.89474   0.00000  Uiso   1.00
H990   H     0.62423   0.51039   0.59992   0.00000  Uiso   1.00
H991   H     0.38251   0.46373   0.89357   0.00000  Uiso   1.00
H992   H     0.36345   0.43535   0.97311   0.00000  Uiso   1.00
H993   H     0.65357   0.50339   0.51426   0.00000  Uiso   1.00
H994   H     0.56066   0.62905   0.77375   0.00000  Uiso   1.00
N995   N     0.38093   0.50001   0.75001   0.00000  Uiso   1.00
N996   N     0.61907   0.49999   0.74999   0.00000  Uiso   1.00
N997   N     0.44712   0.41950   0.58686   0.00000  Uiso   1.00
N998   N     0.58528   0.47247   0.89209   0.00000  Uiso   1.00
O999   O     0.46179   0.56108   0.75001   0.00000  Uiso   1.00
O1000  O     0.53821   0.43892   0.75000   0.00000  Uiso   1.00
O1001  O     0.53823   0.56107   0.75000   0.00000  Uiso   1.00
O1002  O     0.46177   0.43893   0.75000   0.00000  Uiso   1.00
O1003  O     0.43994   0.50001   0.81613   0.00000  Uiso   1.00
O1004  O     0.56006   0.49999   0.68388   0.00000  Uiso   1.00
O1005  O     0.51639   0.50000   0.81612   0.00000  Uiso   1.00
O1006  O     0.48361   0.50000   0.68388   0.00000  Uiso   1.00
Zn1007 Zn    0.44896   0.50001   0.75000   0.00000  Uiso   1.00
Zn1008 Zn    0.55104   0.49999   0.75000   0.00000  Uiso   1.00
C1009  C     0.83334   0.58004   0.75000   0.00000  Uiso   1.00
C1010  C     0.79915   0.64534   0.73669   0.00000  Uiso   1.00
C1011  C     0.83340   0.37584   0.74987   0.00000  Uiso   1.00
C1012  C     0.83337   0.62419   0.74993   0.00000  Uiso   1.00
C1013  C     0.98731   0.47420   0.72064   0.00000  Uiso   1.00
C1014  C     0.67933   0.52574   0.77942   0.00000  Uiso   1.00
C1015  C     0.70192   0.47419   0.72065   0.00000  Uiso   1.00
C1016  C     0.96473   0.52575   0.77939   0.00000  Uiso   1.00
C1017  C     0.80302   0.49910   0.83830   0.00000  Uiso   1.00
C1018  C     0.86372   0.49941   0.66171   0.00000  Uiso   1.00
C1019  C     0.78542   0.48922   0.88843   0.00000  Uiso   1.00
C1020  C     0.83335   0.41997   0.74995   0.00000  Uiso   1.00
C1021  C     0.88303   0.49418   0.61067   0.00000  Uiso   1.00
C1022  C     0.73129   0.45097   0.95557   0.00000  Uiso   1.00
C1023  C     0.94921   0.49611   0.53494   0.00000  Uiso   1.00
C1024  C     0.74141   0.46812   0.91098   0.00000  Uiso   1.00
C1025  C     0.93241   0.50060   0.58364   0.00000  Uiso   1.00
C1026  C     0.81858   0.49311   0.91073   0.00000  Uiso   1.00
C1027  C     0.85135   0.48112   0.58906   0.00000  Uiso   1.00
C1028  C     0.81228   0.47108   0.95180   0.00000  Uiso   1.00
C1029  C     0.86816   0.47342   0.54070   0.00000  Uiso   1.00
C1030  C     0.76646   0.45263   0.97635   0.00000  Uiso   1.00
C1031  C     0.79080   0.43954   0.54263   0.00000  Uiso   1.00
C1032  C     0.91708   0.48375   0.51320   0.00000  Uiso   1.00
C1033  C     0.84970   0.46900   0.97010   0.00000  Uiso   1.00
C1034  C     0.83612   0.46020   0.51856   0.00000  Uiso   1.00
C1035  C     0.80909   0.38254   0.58513   0.00000  Uiso   1.00
C1036  C     0.91864   0.43087   0.87387   0.00000  Uiso   1.00
C1037  C     0.90001   0.47555   0.94219   0.00000  Uiso   1.00
C1038  C     0.75683   0.43570   0.52081   0.00000  Uiso   1.00
C1039  C     0.93296   0.48265   0.96437   0.00000  Uiso   1.00
C1040  C     0.86764   0.64536   0.76309   0.00000  Uiso   1.00
C1041  C     0.79919   0.35468   0.73662   0.00000  Uiso   1.00
C1042  C     0.86764   0.35469   0.76308   0.00000  Uiso   1.00
H1043  H     0.72250   0.41998   0.53901   0.00000  Uiso   1.00
H1044  H     0.77288   0.37100   0.72590   0.00000  Uiso   1.00
H1045  H     0.89397   0.37102   0.77376   0.00000  Uiso   1.00
H1046  H     0.77279   0.62902   0.72605   0.00000  Uiso   1.00
H1047  H     0.97819   0.45359   0.69714   0.00000  Uiso   1.00
H1048  H     0.68842   0.54629   0.80298   0.00000  Uiso   1.00
H1049  H     0.72910   0.45356   0.69717   0.00000  Uiso   1.00
H1050  H     0.93753   0.54632   0.80295   0.00000  Uiso   1.00
H1051  H     0.74384   0.41506   0.60614   0.00000  Uiso   1.00
H1052  H     0.80019   0.37043   0.62135   0.00000  Uiso   1.00
H1053  H     0.84867   0.38971   0.57007   0.00000  Uiso   1.00
H1054  H     0.97078   0.48895   0.94329   0.00000  Uiso   1.00
H1055  H     0.80070   0.35811   0.56351   0.00000  Uiso   1.00
H1056  H     0.95132   0.48761   0.87545   0.00000  Uiso   1.00
H1057  H     0.93135   0.43205   0.83487   0.00000  Uiso   1.00
H1058  H     0.88136   0.41744   0.88751   0.00000  Uiso   1.00
H1059  H     0.94359   0.41046   0.88390   0.00000  Uiso   1.00
H1060  H     0.81298   0.47898   0.61013   0.00000  Uiso   1.00
H1061  H     0.85019   0.51267   0.89474   0.00000  Uiso   1.00
H1062  H     0.95756   0.51039   0.59992   0.00000  Uiso   1.00
H1063  H     0.71585   0.46373   0.89357   0.00000  Uiso   1.00
H1064  H     0.69678   0.43535   0.97311   0.00000  Uiso   1.00
H1065  H     0.98690   0.50339   0.51426   0.00000  Uiso   1.00
H1066  H     0.89399   0.62905   0.77375   0.00000  Uiso   1.00
N1067  N     0.71426   0.50001   0.75001   0.00000  Uiso   1.00
N1068  N     0.95241   0.49999   0.74999   0.00000  Uiso   1.00
N1069  N     0.78045   0.41950   0.58686   0.00000  Uiso   1.00
N1070  N     0.91862   0.47247   0.89209   0.00000  Uiso   1.00
O1071  O     0.79512   0.56108   0.75001   0.00000  Uiso   1.00
O1072  O     0.87154   0.43892   0.75000   0.00000  Uiso   1.00
O1073  O     0.87157   0.56107   0.75000   0.00000  Uiso   1.00
O1074  O     0.79510   0.43893   0.75000   0.00000  Uiso   1.00
O1075  O     0.77328   0.50001   0.81613   0.00000  Uiso   1.00
O1076  O     0.89339   0.49999   0.68388   0.00000  Uiso   1.00
O1077  O     0.84972   0.50000   0.81612   0.00000  Uiso   1.00
O1078  O     0.81695   0.50000   0.68388   0.00000  Uiso   1.00
Zn1079 Zn    0.78229   0.50001   0.75000   0.00000  Uiso   1.00
Zn1080 Zn    0.88438   0.49999   0.75000   0.00000  Uiso   1.00
C1081  C     0.16668   0.91337   0.75000   0.00000  Uiso   1.00
C1082  C     0.13248   0.97868   0.73669   0.00000  Uiso   1.00
C1083  C     0.16673   0.70917   0.74987   0.00000  Uiso   1.00
C1084  C     0.16670   0.95752   0.74993   0.00000  Uiso   1.00
C1085  C     0.32065   0.80753   0.72064   0.00000  Uiso   1.00
C1086  C     0.01266   0.85908   0.77942   0.00000  Uiso   1.00
C1087  C     0.03526   0.80753   0.72065   0.00000  Uiso   1.00
C1088  C     0.29806   0.85909   0.77939   0.00000  Uiso   1.00
C1089  C     0.13636   0.83243   0.83830   0.00000  Uiso   1.00
C1090  C     0.19705   0.83274   0.66171   0.00000  Uiso   1.00
C1091  C     0.11876   0.82255   0.88843   0.00000  Uiso   1.00
C1092  C     0.16668   0.75331   0.74995   0.00000  Uiso   1.00
C1093  C     0.21636   0.82751   0.61067   0.00000  Uiso   1.00
C1094  C     0.06463   0.78430   0.95557   0.00000  Uiso   1.00
C1095  C     0.28254   0.82945   0.53494   0.00000  Uiso   1.00
C1096  C     0.07474   0.80146   0.91098   0.00000  Uiso   1.00
C1097  C     0.26574   0.83394   0.58364   0.00000  Uiso   1.00
C1098  C     0.15192   0.82644   0.91073   0.00000  Uiso   1.00
C1099  C     0.18469   0.81445   0.58906   0.00000  Uiso   1.00
C1100  C     0.14562   0.80442   0.95180   0.00000  Uiso   1.00
C1101  C     0.20149   0.80676   0.54070   0.00000  Uiso   1.00
C1102  C     0.09979   0.78596   0.97635   0.00000  Uiso   1.00
C1103  C     0.12413   0.77288   0.54263   0.00000  Uiso   1.00
C1104  C     0.25041   0.81708   0.51320   0.00000  Uiso   1.00
C1105  C     0.18303   0.80233   0.97010   0.00000  Uiso   1.00
C1106  C     0.16945   0.79354   0.51856   0.00000  Uiso   1.00
C1107  C     0.14243   0.71587   0.58513   0.00000  Uiso   1.00
C1108  C     0.25197   0.76420   0.87387   0.00000  Uiso   1.00
C1109  C     0.23334   0.80889   0.94219   0.00000  Uiso   1.00
C1110  C     0.09017   0.76904   0.52081   0.00000  Uiso   1.00
C1111  C     0.26630   0.81599   0.96437   0.00000  Uiso   1.00
C1112  C     0.20098   0.97869   0.76309   0.00000  Uiso   1.00
C1113  C     0.13252   0.68801   0.73662   0.00000  Uiso   1.00
C1114  C     0.20098   0.68802   0.76308   0.00000  Uiso   1.00
H1115  H     0.05583   0.75332   0.53901   0.00000  Uiso   1.00
H1116  H     0.10621   0.70433   0.72590   0.00000  Uiso   1.00
H1117  H     0.22730   0.70435   0.77376   0.00000  Uiso   1.00
H1118  H     0.10613   0.96235   0.72605   0.00000  Uiso   1.00
H1119  H     0.31152   0.78692   0.69714   0.00000  Uiso   1.00
H1120  H     0.02176   0.87963   0.80298   0.00000  Uiso   1.00
H1121  H     0.06243   0.78689   0.69717   0.00000  Uiso   1.00
H1122  H     0.27086   0.87965   0.80295   0.00000  Uiso   1.00
H1123  H     0.07718   0.74839   0.60614   0.00000  Uiso   1.00
H1124  H     0.13353   0.70376   0.62135   0.00000  Uiso   1.00
H1125  H     0.18200   0.72304   0.57007   0.00000  Uiso   1.00
H1126  H     0.30411   0.82228   0.94329   0.00000  Uiso   1.00
H1127  H     0.13404   0.69144   0.56351   0.00000  Uiso   1.00
H1128  H     0.28465   0.82094   0.87545   0.00000  Uiso   1.00
H1129  H     0.26468   0.76539   0.83487   0.00000  Uiso   1.00
H1130  H     0.21469   0.75077   0.88751   0.00000  Uiso   1.00
H1131  H     0.27692   0.74379   0.88390   0.00000  Uiso   1.00
H1132  H     0.14631   0.81231   0.61013   0.00000  Uiso   1.00
H1133  H     0.18353   0.84600   0.89474   0.00000  Uiso   1.00
H1134  H     0.29090   0.84373   0.59992   0.00000  Uiso   1.00
H1135  H     0.04918   0.79706   0.89357   0.00000  Uiso   1.00
H1136  H     0.03011   0.76868   0.97311   0.00000  Uiso   1.00
H1137  H     0.32023   0.83673   0.51426   0.00000  Uiso   1.00
H1138  H     0.22732   0.96238   0.77375   0.00000  Uiso   1.00
N1139  N     0.04759   0.83334   0.75001   0.00000  Uiso   1.00
N1140  N     0.28574   0.83332   0.74999   0.00000  Uiso   1.00
N1141  N     0.11378   0.75283   0.58686   0.00000  Uiso   1.00
N1142  N     0.25195   0.80580   0.89209   0.00000  Uiso   1.00
O1143  O     0.12846   0.89442   0.75001   0.00000  Uiso   1.00
O1144  O     0.20488   0.77225   0.75000   0.00000  Uiso   1.00
O1145  O     0.20490   0.89441   0.75000   0.00000  Uiso   1.00
O1146  O     0.12843   0.77226   0.75000   0.00000  Uiso   1.00
O1147  O     0.10661   0.83334   0.81613   0.00000  Uiso   1.00
O1148  O     0.22672   0.83333   0.68388   0.00000  Uiso   1.00
O1149  O     0.18305   0.83333   0.81612   0.00000  Uiso   1.00
O1150  O     0.15028   0.83334   0.68388   0.00000  Uiso   1.00
Zn1151 Zn    0.11562   0.83334   0.75000   0.00000  Uiso   1.00
Zn1152 Zn    0.21771   0.83333   0.75000   0.00000  Uiso   1.00
C1153  C     0.50001   0.91337   0.75000   0.00000  Uiso   1.00
C1154  C     0.46582   0.97868   0.73669   0.00000  Uiso   1.00
C1155  C     0.50006   0.70917   0.74987   0.00000  Uiso   1.00
C1156  C     0.50004   0.95752   0.74993   0.00000  Uiso   1.00
C1157  C     0.65398   0.80753   0.72064   0.00000  Uiso   1.00
C1158  C     0.34600   0.85908   0.77942   0.00000  Uiso   1.00
C1159  C     0.36859   0.80753   0.72065   0.00000  Uiso   1.00
C1160  C     0.63140   0.85909   0.77939   0.00000  Uiso   1.00
C1161  C     0.46969   0.83243   0.83830   0.00000  Uiso   1.00
C1162  C     0.53038   0.83274   0.66171   0.00000  Uiso   1.00
C1163  C     0.45209   0.82255   0.88843   0.00000  Uiso   1.00
C1164  C     0.50001   0.75331   0.74995   0.00000  Uiso   1.00
C1165  C     0.54969   0.82751   0.61067   0.00000  Uiso   1.00
C1166  C     0.39796   0.78430   0.95557   0.00000  Uiso   1.00
C1167  C     0.61587   0.82945   0.53494   0.00000  Uiso   1.00
C1168  C     0.40807   0.80146   0.91098   0.00000  Uiso   1.00
C1169  C     0.59908   0.83394   0.58364   0.00000  Uiso   1.00
C1170  C     0.48525   0.82644   0.91073   0.00000  Uiso   1.00
C1171  C     0.51802   0.81445   0.58906   0.00000  Uiso   1.00
C1172  C     0.47895   0.80442   0.95180   0.00000  Uiso   1.00
C1173  C     0.53483   0.80676   0.54070   0.00000  Uiso   1.00
C1174  C     0.43313   0.78596   0.97635   0.00000  Uiso   1.00
C1175  C     0.45746   0.77288   0.54263   0.00000  Uiso   1.00
C1176  C     0.58375   0.81708   0.51320   0.00000  Uiso   1.00
C1177  C     0.51636   0.80233   0.97010   0.00000  Uiso   1.00
C1178  C     0.50279   0.79354   0.51856   0.00000  Uiso   1.00
C1179  C     0.47576   0.71587   0.58513   0.00000  Uiso   1.00
C1180  C     0.58530   0.76420   0.87387   0.00000  Uiso   1.00
C1181  C     0.56668   0.80889   0.94219   0.00000  Uiso   1.00
C1182  C     0.42350   0.76904   0.52081   0.00000  Uiso   1.00
C1183  C     0.59963   0.81599   0.96437   0.00000  Uiso   1.00
C1184  C     0.53431   0.97869   0.76309   0.00000  Uiso   1.00
C1185  C     0.46585   0.68801   0.73662   0.00000  Uiso   1.00
C1186  C     0.53431   0.68802   0.76308   0.00000  Uiso   1.00
H1187  H     0.38916   0.75332   0.53901   0.00000  Uiso   1.00
H1188  H     0.43955   0.70433   0.72590   0.00000  Uiso   1.00
H1189  H     0.56064   0.70435   0.77376   0.00000  Uiso   1.00
H1190  H     0.43946   0.96235   0.72605   0.00000  Uiso   1.00
H1191  H     0.64486   0.78692   0.69714   0.00000  Uiso   1.00
H1192  H     0.35509   0.87963   0.80298   0.00000  Uiso   1.00
H1193  H     0.39577   0.78689   0.69717   0.00000  Uiso   1.00
H1194  H     0.60419   0.87965   0.80295   0.00000  Uiso   1.00
H1195  H     0.41051   0.74839   0.60614   0.00000  Uiso   1.00
H1196  H     0.46686   0.70376   0.62135   0.00000  Uiso   1.00
H1197  H     0.51534   0.72304   0.57007   0.00000  Uiso   1.00
H1198  H     0.63744   0.82228   0.94329   0.00000  Uiso   1.00
H1199  H     0.46737   0.69144   0.56351   0.00000  Uiso   1.00
H1200  H     0.61799   0.82094   0.87545   0.00000  Uiso   1.00
H1201  H     0.59802   0.76539   0.83487   0.00000  Uiso   1.00
H1202  H     0.54802   0.75077   0.88751   0.00000  Uiso   1.00
H1203  H     0.61026   0.74379   0.88390   0.00000  Uiso   1.00
H1204  H     0.47964   0.81231   0.61013   0.00000  Uiso   1.00
H1205  H     0.51686   0.84600   0.89474   0.00000  Uiso   1.00
H1206  H     0.62423   0.84373   0.59992   0.00000  Uiso   1.00
H1207  H     0.38251   0.79706   0.89357   0.00000  Uiso   1.00
H1208  H     0.36345   0.76868   0.97311   0.00000  Uiso   1.00
H1209  H     0.65357   0.83673   0.51426   0.00000  Uiso   1.00
H1210  H     0.56066   0.96238   0.77375   0.00000  Uiso   1.00
N1211  N     0.38093   0.83334   0.75001   0.00000  Uiso   1.00
N1212  N     0.61907   0.83332   0.74999   0.00000  Uiso   1.00
N1213  N     0.44712   0.75283   0.58686   0.00000  Uiso   1.00
N1214  N     0.58528   0.80580   0.89209   0.00000  Uiso   1.00
O1215  O     0.46179   0.89442   0.75001   0.00000  Uiso   1.00
O1216  O     0.53821   0.77225   0.75000   0.00000  Uiso   1.00
O1217  O     0.53823   0.89441   0.75000   0.00000  Uiso   1.00
O1218  O     0.46177   0.77226   0.75000   0.00000  Uiso   1.00
O1219  O     0.43994   0.83334   0.81613   0.00000  Uiso   1.00
O1220  O     0.56006   0.83333   0.68388   0.00000  Uiso   1.00
O1221  O     0.51639   0.83333   0.81612   0.00000  Uiso   1.00
O1222  O     0.48361   0.83334   0.68388   0.00000  Uiso   1.00
Zn1223 Zn    0.44896   0.83334   0.75000   0.00000  Uiso   1.00
Zn1224 Zn    0.55104   0.83333   0.75000   0.00000  Uiso   1.00
C1225  C     0.83334   0.91337   0.75000   0.00000  Uiso   1.00
C1226  C     0.79915   0.97868   0.73669   0.00000  Uiso   1.00
C1227  C     0.83340   0.70917   0.74987   0.00000  Uiso   1.00
C1228  C     0.83337   0.95752   0.74993   0.00000  Uiso   1.00
C1229  C     0.98731   0.80753   0.72064   0.00000  Uiso   1.00
C1230  C     0.67933   0.85908   0.77942   0.00000  Uiso   1.00
C1231  C     0.70192   0.80753   0.72065   0.00000  Uiso   1.00
C1232  C     0.96473   0.85909   0.77939   0.00000  Uiso   1.00
C1233  C     0.80302   0.83243   0.83830   0.00000  Uiso   1.00
C1234  C     0.86372   0.83274   0.66171   0.00000  Uiso   1.00
C1235  C     0.78542   0.82255   0.88843   0.00000  Uiso   1.00
C1236  C     0.83335   0.75331   0.74995   0.00000  Uiso   1.00
C1237  C     0.88303   0.82751   0.61067   0.00000  Uiso   1.00
C1238  C     0.73129   0.78430   0.95557   0.00000  Uiso   1.00
C1239  C     0.94921   0.82945   0.53494   0.00000  Uiso   1.00
C1240  C     0.74141   0.80146   0.91098   0.00000  Uiso   1.00
C1241  C     0.93241   0.83394   0.58364   0.00000  Uiso   1.00
C1242  C     0.81858   0.82644   0.91073   0.00000  Uiso   1.00
C1243  C     0.85135   0.81445   0.58906   0.00000  Uiso   1.00
C1244  C     0.81228   0.80442   0.95180   0.00000  Uiso   1.00
C1245  C     0.86816   0.80676   0.54070   0.00000  Uiso   1.00
C1246  C     0.76646   0.78596   0.97635   0.00000  Uiso   1.00
C1247  C     0.79080   0.77288   0.54263   0.00000  Uiso   1.00
C1248  C     0.91708   0.81708   0.51320   0.00000  Uiso   1.00
C1249  C     0.84970   0.80233   0.97010   0.00000  Uiso   1.00
C1250  C     0.83612   0.79354   0.51856   0.00000  Uiso   1.00
C1251  C     0.80909   0.71587   0.58513   0.00000  Uiso   1.00
C1252  C     0.91864   0.76420   0.87387   0.00000  Uiso   1.00
C1253  C     0.90001   0.80889   0.94219   0.00000  Uiso   1.00
C1254  C     0.75683   0.76904   0.52081   0.00000  Uiso   1.00
C1255  C     0.93296   0.81599   0.96437   0.00000  Uiso   1.00
C1256  C     0.86764   0.97869   0.76309   0.00000  Uiso   1.00
C1257  C     0.79919   0.68801   0.73662   0.00000  Uiso   1.00
C1258  C     0.86764   0.68802   0.76308   0.00000  Uiso   1.00
H1259  H     0.72250   0.75332   0.53901   0.00000  Uiso   1.00
H1260  H     0.77288   0.70433   0.72590   0.00000  Uiso   1.00
H1261  H     0.89397   0.70435   0.77376   0.00000  Uiso   1.00
H1262  H     0.77279   0.96235   0.72605   0.00000  Uiso   1.00
H1263  H     0.97819   0.78692   0.69714   0.00000  Uiso   1.00
H1264  H     0.68842   0.87963   0.80298   0.00000  Uiso   1.00
H1265  H     0.72910   0.78689   0.69717   0.00000  Uiso   1.00
H1266  H     0.93753   0.87965   0.80295   0.00000  Uiso   1.00
H1267  H     0.74384   0.74839   0.60614   0.00000  Uiso   1.00
H1268  H     0.80019   0.70376   0.62135   0.00000  Uiso   1.00
H1269  H     0.84867   0.72304   0.57007   0.00000  Uiso   1.00
H1270  H     0.97078   0.82228   0.94329   0.00000  Uiso   1.00
H1271  H     0.80070   0.69144   0.56351   0.00000  Uiso   1.00
H1272  H     0.95132   0.82094   0.87545   0.00000  Uiso   1.00
H1273  H     0.93135   0.76539   0.83487   0.00000  Uiso   1.00
H1274  H     0.88136   0.75077   0.88751   0.00000  Uiso   1.00
H1275  H     0.94359   0.74379   0.88390   0.00000  Uiso   1.00
H1276  H     0.81298   0.81231   0.61013   0.00000  Uiso   1.00
H1277  H     0.85019   0.84600   0.89474   0.00000  Uiso   1.00
H1278  H     0.95756   0.84373   0.59992   0.00000  Uiso   1.00
H1279  H     0.71585   0.79706   0.89357   0.00000  Uiso   1.00
H1280  H     0.69678   0.76868   0.97311   0.00000  Uiso   1.00
H1281  H     0.98690   0.83673   0.51426   0.00000  Uiso   1.00
H1282  H     0.89399   0.96238   0.77375   0.00000  Uiso   1.00
N1283  N     0.71426   0.83334   0.75001   0.00000  Uiso   1.00
N1284  N     0.95241   0.83332   0.74999   0.00000  Uiso   1.00
N1285  N     0.78045   0.75283   0.58686   0.00000  Uiso   1.00
N1286  N     0.91862   0.80580   0.89209   0.00000  Uiso   1.00
O1287  O     0.79512   0.89442   0.75001   0.00000  Uiso   1.00
O1288  O     0.87154   0.77225   0.75000   0.00000  Uiso   1.00
O1289  O     0.87157   0.89441   0.75000   0.00000  Uiso   1.00
O1290  O     0.79510   0.77226   0.75000   0.00000  Uiso   1.00
O1291  O     0.77328   0.83334   0.81613   0.00000  Uiso   1.00
O1292  O     0.89339   0.83333   0.68388   0.00000  Uiso   1.00
O1293  O     0.84972   0.83333   0.81612   0.00000  Uiso   1.00
O1294  O     0.81695   0.83334   0.68388   0.00000  Uiso   1.00
Zn1295 Zn    0.78229   0.83334   0.75000   0.00000  Uiso   1.00
Zn1296 Zn    0.88438   0.83333   0.75000   0.00000  Uiso   1.00
loop_
_geom_bond_atom_site_label_1
_geom_bond_atom_site_label_2
_geom_bond_distance
_geom_bond_site_symmetry_2
_ccdc_geom_bond_type
C1     C4      1.418   .     S
C1     O65     1.283   .     A
C1     O63     1.283   .     A
C2     H38     1.084   .     S
C2     C4      1.397   .     A
C2     C249    1.370   .     S
C3     C34     1.397   .     A
C3     C33     1.397   .     A
C3     C12     1.417   .     S
C4     C32     1.397   .     A
C5     N60     1.366   .     A
C5     H39     1.082   .     S
C5     C79     1.416   .     S
C6     H40     1.082   .     S
C6     N59     1.366   .     A
C6     C152    1.416   1_455 S
C7     N59     1.367   .     A
C7     H41     1.082   .     S
C7     C149    1.416   1_455 S
C8     N60     1.367   .     A
C8     H42     1.082   .     S
C8     C78     1.416   .     S
C9     O67     1.294   .     A
C9     C11     1.460   .     S
C9     O69     1.292   .     A
C10    O70     1.294   .     A
C10    O68     1.292   .     A
C10    C13     1.460   .     S
C11    C18     1.392   .     A
C11    C16     1.401   .     A
C12    O64     1.283   .     A
C12    O66     1.283   .     A
C13    C17     1.400   .     A
C13    C19     1.395   .     A
C14    H56     1.084   .     S
C14    C22     1.406   .     A
C14    C16     1.398   .     A
C15    H57     1.083   .     S
C15    C24     1.403   .     A
C15    C17     1.392   .     A
C16    H55     1.083   .     S
C17    H54     1.083   .     S
C18    C20     1.394   .     A
C18    H53     1.081   .     S
C19    C21     1.397   .     A
C19    H52     1.079   .     S
C20    C22     1.413   .     A
C20    C25     1.414   .     A
C21    C26     1.418   .     A
C21    C24     1.416   .     A
C22    C678    1.393   .     S
C23    C30     1.402   .     A
C23    N61     1.426   .     S
C23    C26     1.430   .     A
C24    C679    1.390   1_554 S
C25    C29     1.429   .     A
C25    C674    1.414   .     S
C26    C673    1.414   1_554 S
C27    H45     1.110   .     S
C27    H47     1.111   .     S
C27    N61     1.447   .     S
C27    H44     1.111   .     S
C28    H49     1.111   .     S
C28    H50     1.110   .     S
C28    N62     1.447   .     S
C28    H51     1.111   .     S
C29    C31     1.396   .     A
C29    N62     1.427   .     S
C30    H35     1.084   .     S
C30    C670    1.393   1_554 S
C31    H46     1.082   .     S
C31    C672    1.390   .     S
C32    H58     1.084   .     S
C32    C250    1.370   .     S
C33    H36     1.084   .     S
C33    C434    1.370   1_545 S
C34    H37     1.084   .     S
C34    C464    1.370   1_545 S
H43    N61     1.032   .     S
H48    N62     1.032   .     S
N59    Zn71    2.010   .     S
N60    Zn72    2.010   .     S
O63    Zn71    1.998   .     S
O64    Zn72    1.998   .     S
O65    Zn72    1.998   .     S
O66    Zn71    1.998   .     S
O67    Zn71    1.940   .     S
O68    Zn72    1.940   .     S
O69    Zn72    1.898   .     S
O70    Zn71    1.898   .     S
C73    C76     1.418   .     S
C73    O137    1.283   .     A
C73    O135    1.283   .     A
C74    H110    1.084   .     S
C74    C76     1.397   .     A
C74    C321    1.370   .     S
C75    C106    1.397   .     A
C75    C105    1.397   .     A
C75    C84     1.417   .     S
C76    C104    1.397   .     A
C77    N132    1.366   .     A
C77    H111    1.082   .     S
C77    C151    1.416   .     S
C78    H112    1.082   .     S
C78    N131    1.366   .     A
C79    N131    1.367   .     A
C79    H113    1.082   .     S
C80    N132    1.367   .     A
C80    H114    1.082   .     S
C80    C150    1.416   .     S
C81    O139    1.294   .     A
C81    C83     1.460   .     S
C81    O141    1.292   .     A
C82    O142    1.294   .     A
C82    O140    1.292   .     A
C82    C85     1.460   .     S
C83    C90     1.392   .     A
C83    C88     1.401   .     A
C84    O136    1.283   .     A
C84    O138    1.283   .     A
C85    C89     1.400   .     A
C85    C91     1.395   .     A
C86    H128    1.084   .     S
C86    C94     1.406   .     A
C86    C88     1.398   .     A
C87    H129    1.083   .     S
C87    C96     1.403   .     A
C87    C89     1.392   .     A
C88    H127    1.083   .     S
C89    H126    1.083   .     S
C90    C92     1.394   .     A
C90    H125    1.081   .     S
C91    C93     1.397   .     A
C91    H124    1.079   .     S
C92    C94     1.413   .     A
C92    C97     1.414   .     A
C93    C98     1.418   .     A
C93    C96     1.416   .     A
C94    C750    1.393   .     S
C95    C102    1.402   .     A
C95    N133    1.426   .     S
C95    C98     1.430   .     A
C96    C751    1.390   1_554 S
C97    C101    1.429   .     A
C97    C746    1.414   .     S
C98    C745    1.414   1_554 S
C99    H117    1.110   .     S
C99    H119    1.111   .     S
C99    N133    1.447   .     S
C99    H116    1.111   .     S
C100   H121    1.111   .     S
C100   H122    1.110   .     S
C100   N134    1.447   .     S
C100   H123    1.111   .     S
C101   C103    1.396   .     A
C101   N134    1.427   .     S
C102   H107    1.084   .     S
C102   C742    1.393   1_554 S
C103   H118    1.082   .     S
C103   C744    1.390   .     S
C104   H130    1.084   .     S
C104   C322    1.370   .     S
C105   H108    1.084   .     S
C105   C506    1.370   1_545 S
C106   H109    1.084   .     S
C106   C536    1.370   1_545 S
H115   N133    1.032   .     S
H120   N134    1.032   .     S
N131   Zn143   2.010   .     S
N132   Zn144   2.010   .     S
O135   Zn143   1.998   .     S
O136   Zn144   1.998   .     S
O137   Zn144   1.998   .     S
O138   Zn143   1.998   .     S
O139   Zn143   1.940   .     S
O140   Zn144   1.940   .     S
O141   Zn144   1.898   .     S
O142   Zn143   1.898   .     S
C145   C148    1.418   .     S
C145   O209    1.283   .     A
C145   O207    1.283   .     A
C146   H182    1.084   .     S
C146   C148    1.397   .     A
C146   C393    1.370   .     S
C147   C178    1.397   .     A
C147   C177    1.397   .     A
C147   C156    1.417   .     S
C148   C176    1.397   .     A
C149   N204    1.366   .     A
C149   H183    1.082   .     S
C149   C7      1.416   1_655 S
C150   H184    1.082   .     S
C150   N203    1.366   .     A
C151   N203    1.367   .     A
C151   H185    1.082   .     S
C152   N204    1.367   .     A
C152   H186    1.082   .     S
C152   C6      1.416   1_655 S
C153   O211    1.294   .     A
C153   C155    1.460   .     S
C153   O213    1.292   .     A
C154   O214    1.294   .     A
C154   O212    1.292   .     A
C154   C157    1.460   .     S
C155   C162    1.392   .     A
C155   C160    1.401   .     A
C156   O208    1.283   .     A
C156   O210    1.283   .     A
C157   C161    1.400   .     A
C157   C163    1.395   .     A
C158   H200    1.084   .     S
C158   C166    1.406   .     A
C158   C160    1.398   .     A
C159   H201    1.083   .     S
C159   C168    1.403   .     A
C159   C161    1.392   .     A
C160   H199    1.083   .     S
C161   H198    1.083   .     S
C162   C164    1.394   .     A
C162   H197    1.081   .     S
C163   C165    1.397   .     A
C163   H196    1.079   .     S
C164   C166    1.413   .     A
C164   C169    1.414   .     A
C165   C170    1.418   .     A
C165   C168    1.416   .     A
C166   C822    1.393   .     S
C167   C174    1.402   .     A
C167   N205    1.426   .     S
C167   C170    1.430   .     A
C168   C823    1.390   1_554 S
C169   C173    1.429   .     A
C169   C818    1.414   .     S
C170   C817    1.414   1_554 S
C171   H189    1.110   .     S
C171   H191    1.111   .     S
C171   N205    1.447   .     S
C171   H188    1.111   .     S
C172   H193    1.111   .     S
C172   H194    1.110   .     S
C172   N206    1.447   .     S
C172   H195    1.111   .     S
C173   C175    1.396   .     A
C173   N206    1.427   .     S
C174   H179    1.084   .     S
C174   C814    1.393   1_554 S
C175   H190    1.082   .     S
C175   C816    1.390   .     S
C176   H202    1.084   .     S
C176   C394    1.370   .     S
C177   H180    1.084   .     S
C177   C578    1.370   1_545 S
C178   H181    1.084   .     S
C178   C608    1.370   1_545 S
H187   N205    1.032   .     S
H192   N206    1.032   .     S
N203   Zn215   2.010   .     S
N204   Zn216   2.010   .     S
O207   Zn215   1.998   .     S
O208   Zn216   1.998   .     S
O209   Zn216   1.998   .     S
O210   Zn215   1.998   .     S
O211   Zn215   1.940   .     S
O212   Zn216   1.940   .     S
O213   Zn216   1.898   .     S
O214   Zn215   1.898   .     S
C217   C220    1.418   .     S
C217   O281    1.283   .     A
C217   O279    1.283   .     A
C218   H254    1.084   .     S
C218   C220    1.397   .     A
C218   C465    1.370   .     S
C219   C250    1.397   .     A
C219   C249    1.397   .     A
C219   C228    1.417   .     S
C220   C248    1.397   .     A
C221   N276    1.366   .     A
C221   H255    1.082   .     S
C221   C295    1.416   .     S
C222   H256    1.082   .     S
C222   N275    1.366   .     A
C222   C368    1.416   1_455 S
C223   N275    1.367   .     A
C223   H257    1.082   .     S
C223   C365    1.416   1_455 S
C224   N276    1.367   .     A
C224   H258    1.082   .     S
C224   C294    1.416   .     S
C225   O283    1.294   .     A
C225   C227    1.460   .     S
C225   O285    1.292   .     A
C226   O286    1.294   .     A
C226   O284    1.292   .     A
C226   C229    1.460   .     S
C227   C234    1.392   .     A
C227   C232    1.401   .     A
C228   O280    1.283   .     A
C228   O282    1.283   .     A
C229   C233    1.400   .     A
C229   C235    1.395   .     A
C230   H272    1.084   .     S
C230   C238    1.406   .     A
C230   C232    1.398   .     A
C231   H273    1.083   .     S
C231   C240    1.403   .     A
C231   C233    1.392   .     A
C232   H271    1.083   .     S
C233   H270    1.083   .     S
C234   C236    1.394   .     A
C234   H269    1.081   .     S
C235   C237    1.397   .     A
C235   H268    1.079   .     S
C236   C238    1.413   .     A
C236   C241    1.414   .     A
C237   C242    1.418   .     A
C237   C240    1.416   .     A
C238   C894    1.393   .     S
C239   C246    1.402   .     A
C239   N277    1.426   .     S
C239   C242    1.430   .     A
C240   C895    1.390   1_554 S
C241   C245    1.429   .     A
C241   C890    1.414   .     S
C242   C889    1.414   1_554 S
C243   H261    1.110   .     S
C243   H263    1.111   .     S
C243   N277    1.447   .     S
C243   H260    1.111   .     S
C244   H265    1.111   .     S
C244   H266    1.110   .     S
C244   N278    1.447   .     S
C244   H267    1.111   .     S
C245   C247    1.396   .     A
C245   N278    1.427   .     S
C246   H251    1.084   .     S
C246   C886    1.393   1_554 S
C247   H262    1.082   .     S
C247   C888    1.390   .     S
C248   H274    1.084   .     S
C248   C466    1.370   .     S
C249   H252    1.084   .     S
C250   H253    1.084   .     S
H259   N277    1.032   .     S
H264   N278    1.032   .     S
N275   Zn287   2.010   .     S
N276   Zn288   2.010   .     S
O279   Zn287   1.998   .     S
O280   Zn288   1.998   .     S
O281   Zn288   1.998   .     S
O282   Zn287   1.998   .     S
O283   Zn287   1.940   .     S
O284   Zn288   1.940   .     S
O285   Zn288   1.898   .     S
O286   Zn287   1.898   .     S
C289   C292    1.418   .     S
C289   O353    1.283   .     A
C289   O351    1.283   .     A
C290   H326    1.084   .     S
C290   C292    1.397   .     A
C290   C537    1.370   .     S
C291   C322    1.397   .     A
C291   C321    1.397   .     A
C291   C300    1.417   .     S
C292   C320    1.397   .     A
C293   N348    1.366   .     A
C293   H327    1.082   .     S
C293   C367    1.416   .     S
C294   H328    1.082   .     S
C294   N347    1.366   .     A
C295   N347    1.367   .     A
C295   H329    1.082   .     S
C296   N348    1.367   .     A
C296   H330    1.082   .     S
C296   C366    1.416   .     S
C297   O355    1.294   .     A
C297   C299    1.460   .     S
C297   O357    1.292   .     A
C298   O358    1.294   .     A
C298   O356    1.292   .     A
C298   C301    1.460   .     S
C299   C306    1.392   .     A
C299   C304    1.401   .     A
C300   O352    1.283   .     A
C300   O354    1.283   .     A
C301   C305    1.400   .     A
C301   C307    1.395   .     A
C302   H344    1.084   .     S
C302   C310    1.406   .     A
C302   C304    1.398   .     A
C303   H345    1.083   .     S
C303   C312    1.403   .     A
C303   C305    1.392   .     A
C304   H343    1.083   .     S
C305   H342    1.083   .     S
C306   C308    1.394   .     A
C306   H341    1.081   .     S
C307   C309    1.397   .     A
C307   H340    1.079   .     S
C308   C310    1.413   .     A
C308   C313    1.414   .     A
C309   C314    1.418   .     A
C309   C312    1.416   .     A
C310   C966    1.393   .     S
C311   C318    1.402   .     A
C311   N349    1.426   .     S
C311   C314    1.430   .     A
C312   C967    1.390   1_554 S
C313   C317    1.429   .     A
C313   C962    1.414   .     S
C314   C961    1.414   1_554 S
C315   H333    1.110   .     S
C315   H335    1.111   .     S
C315   N349    1.447   .     S
C315   H332    1.111   .     S
C316   H337    1.111   .     S
C316   H338    1.110   .     S
C316   N350    1.447   .     S
C316   H339    1.111   .     S
C317   C319    1.396   .     A
C317   N350    1.427   .     S
C318   H323    1.084   .     S
C318   C958    1.393   1_554 S
C319   H334    1.082   .     S
C319   C960    1.390   .     S
C320   H346    1.084   .     S
C320   C538    1.370   .     S
C321   H324    1.084   .     S
C322   H325    1.084   .     S
H331   N349    1.032   .     S
H336   N350    1.032   .     S
N347   Zn359   2.010   .     S
N348   Zn360   2.010   .     S
O351   Zn359   1.998   .     S
O352   Zn360   1.998   .     S
O353   Zn360   1.998   .     S
O354   Zn359   1.998   .     S
O355   Zn359   1.940   .     S
O356   Zn360   1.940   .     S
O357   Zn360   1.898   .     S
O358   Zn359   1.898   .     S
C361   C364    1.418   .     S
C361   O425    1.283   .     A
C361   O423    1.283   .     A
C362   H398    1.084   .     S
C362   C364    1.397   .     A
C362   C609    1.370   .     S
C363   C394    1.397   .     A
C363   C393    1.397   .     A
C363   C372    1.417   .     S
C364   C392    1.397   .     A
C365   N420    1.366   .     A
C365   H399    1.082   .     S
C365   C223    1.416   1_655 S
C366   H400    1.082   .     S
C366   N419    1.366   .     A
C367   N419    1.367   .     A
C367   H401    1.082   .     S
C368   N420    1.367   .     A
C368   H402    1.082   .     S
C368   C222    1.416   1_655 S
C369   O427    1.294   .     A
C369   C371    1.460   .     S
C369   O429    1.292   .     A
C370   O430    1.294   .     A
C370   O428    1.292   .     A
C370   C373    1.460   .     S
C371   C378    1.392   .     A
C371   C376    1.401   .     A
C372   O424    1.283   .     A
C372   O426    1.283   .     A
C373   C377    1.400   .     A
C373   C379    1.395   .     A
C374   H416    1.084   .     S
C374   C382    1.406   .     A
C374   C376    1.398   .     A
C375   H417    1.083   .     S
C375   C384    1.403   .     A
C375   C377    1.392   .     A
C376   H415    1.083   .     S
C377   H414    1.083   .     S
C378   C380    1.394   .     A
C378   H413    1.081   .     S
C379   C381    1.397   .     A
C379   H412    1.079   .     S
C380   C382    1.413   .     A
C380   C385    1.414   .     A
C381   C386    1.418   .     A
C381   C384    1.416   .     A
C382   C1038   1.393   .     S
C383   C390    1.402   .     A
C383   N421    1.426   .     S
C383   C386    1.430   .     A
C384   C1039   1.390   1_554 S
C385   C389    1.429   .     A
C385   C1034   1.414   .     S
C386   C1033   1.414   1_554 S
C387   H405    1.110   .     S
C387   H407    1.111   .     S
C387   N421    1.447   .     S
C387   H404    1.111   .     S
C388   H409    1.111   .     S
C388   H410    1.110   .     S
C388   N422    1.447   .     S
C388   H411    1.111   .     S
C389   C391    1.396   .     A
C389   N422    1.427   .     S
C390   H395    1.084   .     S
C390   C1030   1.393   1_554 S
C391   H406    1.082   .     S
C391   C1032   1.390   .     S
C392   H418    1.084   .     S
C392   C610    1.370   .     S
C393   H396    1.084   .     S
C394   H397    1.084   .     S
H403   N421    1.032   .     S
H408   N422    1.032   .     S
N419   Zn431   2.010   .     S
N420   Zn432   2.010   .     S
O423   Zn431   1.998   .     S
O424   Zn432   1.998   .     S
O425   Zn432   1.998   .     S
O426   Zn431   1.998   .     S
O427   Zn431   1.940   .     S
O428   Zn432   1.940   .     S
O429   Zn432   1.898   .     S
O430   Zn431   1.898   .     S
C433   C436    1.418   .     S
C433   O497    1.283   .     A
C433   O495    1.283   .     A
C434   H470    1.084   .     S
C434   C436    1.397   .     A
C434   C33     1.370   1_565 S
C435   C466    1.397   .     A
C435   C465    1.397   .     A
C435   C444    1.417   .     S
C436   C464    1.397   .     A
C437   N492    1.366   .     A
C437   H471    1.082   .     S
C437   C511    1.416   .     S
C438   H472    1.082   .     S
C438   N491    1.366   .     A
C438   C584    1.416   1_455 S
C439   N491    1.367   .     A
C439   H473    1.082   .     S
C439   C581    1.416   1_455 S
C440   N492    1.367   .     A
C440   H474    1.082   .     S
C440   C510    1.416   .     S
C441   O499    1.294   .     A
C441   C443    1.460   .     S
C441   O501    1.292   .     A
C442   O502    1.294   .     A
C442   O500    1.292   .     A
C442   C445    1.460   .     S
C443   C450    1.392   .     A
C443   C448    1.401   .     A
C444   O496    1.283   .     A
C444   O498    1.283   .     A
C445   C449    1.400   .     A
C445   C451    1.395   .     A
C446   H488    1.084   .     S
C446   C454    1.406   .     A
C446   C448    1.398   .     A
C447   H489    1.083   .     S
C447   C456    1.403   .     A
C447   C449    1.392   .     A
C448   H487    1.083   .     S
C449   H486    1.083   .     S
C450   C452    1.394   .     A
C450   H485    1.081   .     S
C451   C453    1.397   .     A
C451   H484    1.079   .     S
C452   C454    1.413   .     A
C452   C457    1.414   .     A
C453   C458    1.418   .     A
C453   C456    1.416   .     A
C454   C1110   1.393   .     S
C455   C462    1.402   .     A
C455   N493    1.426   .     S
C455   C458    1.430   .     A
C456   C1111   1.390   1_554 S
C457   C461    1.429   .     A
C457   C1106   1.414   .     S
C458   C1105   1.414   1_554 S
C459   H477    1.110   .     S
C459   H479    1.111   .     S
C459   N493    1.447   .     S
C459   H476    1.111   .     S
C460   H481    1.111   .     S
C460   H482    1.110   .     S
C460   N494    1.447   .     S
C460   H483    1.111   .     S
C461   C463    1.396   .     A
C461   N494    1.427   .     S
C462   H467    1.084   .     S
C462   C1102   1.393   1_554 S
C463   H478    1.082   .     S
C463   C1104   1.390   .     S
C464   H490    1.084   .     S
C464   C34     1.370   1_565 S
C465   H468    1.084   .     S
C466   H469    1.084   .     S
H475   N493    1.032   .     S
H480   N494    1.032   .     S
N491   Zn503   2.010   .     S
N492   Zn504   2.010   .     S
O495   Zn503   1.998   .     S
O496   Zn504   1.998   .     S
O497   Zn504   1.998   .     S
O498   Zn503   1.998   .     S
O499   Zn503   1.940   .     S
O500   Zn504   1.940   .     S
O501   Zn504   1.898   .     S
O502   Zn503   1.898   .     S
C505   C508    1.418   .     S
C505   O569    1.283   .     A
C505   O567    1.283   .     A
C506   H542    1.084   .     S
C506   C508    1.397   .     A
C506   C105    1.370   1_565 S
C507   C538    1.397   .     A
C507   C537    1.397   .     A
C507   C516    1.417   .     S
C508   C536    1.397   .     A
C509   N564    1.366   .     A
C509   H543    1.082   .     S
C509   C583    1.416   .     S
C510   H544    1.082   .     S
C510   N563    1.366   .     A
C511   N563    1.367   .     A
C511   H545    1.082   .     S
C512   N564    1.367   .     A
C512   H546    1.082   .     S
C512   C582    1.416   .     S
C513   O571    1.294   .     A
C513   C515    1.460   .     S
C513   O573    1.292   .     A
C514   O574    1.294   .     A
C514   O572    1.292   .     A
C514   C517    1.460   .     S
C515   C522    1.392   .     A
C515   C520    1.401   .     A
C516   O568    1.283   .     A
C516   O570    1.283   .     A
C517   C521    1.400   .     A
C517   C523    1.395   .     A
C518   H560    1.084   .     S
C518   C526    1.406   .     A
C518   C520    1.398   .     A
C519   H561    1.083   .     S
C519   C528    1.403   .     A
C519   C521    1.392   .     A
C520   H559    1.083   .     S
C521   H558    1.083   .     S
C522   C524    1.394   .     A
C522   H557    1.081   .     S
C523   C525    1.397   .     A
C523   H556    1.079   .     S
C524   C526    1.413   .     A
C524   C529    1.414   .     A
C525   C530    1.418   .     A
C525   C528    1.416   .     A
C526   C1182   1.393   .     S
C527   C534    1.402   .     A
C527   N565    1.426   .     S
C527   C530    1.430   .     A
C528   C1183   1.390   1_554 S
C529   C533    1.429   .     A
C529   C1178   1.414   .     S
C530   C1177   1.414   1_554 S
C531   H549    1.110   .     S
C531   H551    1.111   .     S
C531   N565    1.447   .     S
C531   H548    1.111   .     S
C532   H553    1.111   .     S
C532   H554    1.110   .     S
C532   N566    1.447   .     S
C532   H555    1.111   .     S
C533   C535    1.396   .     A
C533   N566    1.427   .     S
C534   H539    1.084   .     S
C534   C1174   1.393   1_554 S
C535   H550    1.082   .     S
C535   C1176   1.390   .     S
C536   H562    1.084   .     S
C536   C106    1.370   1_565 S
C537   H540    1.084   .     S
C538   H541    1.084   .     S
H547   N565    1.032   .     S
H552   N566    1.032   .     S
N563   Zn575   2.010   .     S
N564   Zn576   2.010   .     S
O567   Zn575   1.998   .     S
O568   Zn576   1.998   .     S
O569   Zn576   1.998   .     S
O570   Zn575   1.998   .     S
O571   Zn575   1.940   .     S
O572   Zn576   1.940   .     S
O573   Zn576   1.898   .     S
O574   Zn575   1.898   .     S
C577   C580    1.418   .     S
C577   O641    1.283   .     A
C577   O639    1.283   .     A
C578   H614    1.084   .     S
C578   C580    1.397   .     A
C578   C177    1.370   1_565 S
C579   C610    1.397   .     A
C579   C609    1.397   .     A
C579   C588    1.417   .     S
C580   C608    1.397   .     A
C581   N636    1.366   .     A
C581   H615    1.082   .     S
C581   C439    1.416   1_655 S
C582   H616    1.082   .     S
C582   N635    1.366   .     A
C583   N635    1.367   .     A
C583   H617    1.082   .     S
C584   N636    1.367   .     A
C584   H618    1.082   .     S
C584   C438    1.416   1_655 S
C585   O643    1.294   .     A
C585   C587    1.460   .     S
C585   O645    1.292   .     A
C586   O646    1.294   .     A
C586   O644    1.292   .     A
C586   C589    1.460   .     S
C587   C594    1.392   .     A
C587   C592    1.401   .     A
C588   O640    1.283   .     A
C588   O642    1.283   .     A
C589   C593    1.400   .     A
C589   C595    1.395   .     A
C590   H632    1.084   .     S
C590   C598    1.406   .     A
C590   C592    1.398   .     A
C591   H633    1.083   .     S
C591   C600    1.403   .     A
C591   C593    1.392   .     A
C592   H631    1.083   .     S
C593   H630    1.083   .     S
C594   C596    1.394   .     A
C594   H629    1.081   .     S
C595   C597    1.397   .     A
C595   H628    1.079   .     S
C596   C598    1.413   .     A
C596   C601    1.414   .     A
C597   C602    1.418   .     A
C597   C600    1.416   .     A
C598   C1254   1.393   .     S
C599   C606    1.402   .     A
C599   N637    1.426   .     S
C599   C602    1.430   .     A
C600   C1255   1.390   1_554 S
C601   C605    1.429   .     A
C601   C1250   1.414   .     S
C602   C1249   1.414   1_554 S
C603   H621    1.110   .     S
C603   H623    1.111   .     S
C603   N637    1.447   .     S
C603   H620    1.111   .     S
C604   H625    1.111   .     S
C604   H626    1.110   .     S
C604   N638    1.447   .     S
C604   H627    1.111   .     S
C605   C607    1.396   .     A
C605   N638    1.427   .     S
C606   H611    1.084   .     S
C606   C1246   1.393   1_554 S
C607   H622    1.082   .     S
C607   C1248   1.390   .     S
C608   H634    1.084   .     S
C608   C178    1.370   1_565 S
C609   H612    1.084   .     S
C610   H613    1.084   .     S
H619   N637    1.032   .     S
H624   N638    1.032   .     S
N635   Zn647   2.010   .     S
N636   Zn648   2.010   .     S
O639   Zn647   1.998   .     S
O640   Zn648   1.998   .     S
O641   Zn648   1.998   .     S
O642   Zn647   1.998   .     S
O643   Zn647   1.940   .     S
O644   Zn648   1.940   .     S
O645   Zn648   1.898   .     S
O646   Zn647   1.898   .     S
C649   C652    1.418   .     S
C649   O713    1.283   .     A
C649   O711    1.283   .     A
C650   H686    1.084   .     S
C650   C652    1.397   .     A
C650   C897    1.370   .     S
C651   C682    1.397   .     A
C651   C681    1.397   .     A
C651   C660    1.417   .     S
C652   C680    1.397   .     A
C653   N708    1.366   .     A
C653   H687    1.082   .     S
C653   C727    1.416   .     S
C654   H688    1.082   .     S
C654   N707    1.366   .     A
C654   C800    1.416   1_455 S
C655   N707    1.367   .     A
C655   H689    1.082   .     S
C655   C797    1.416   1_455 S
C656   N708    1.367   .     A
C656   H690    1.082   .     S
C656   C726    1.416   .     S
C657   O715    1.294   .     A
C657   C659    1.460   .     S
C657   O717    1.292   .     A
C658   O718    1.294   .     A
C658   O716    1.292   .     A
C658   C661    1.460   .     S
C659   C666    1.392   .     A
C659   C664    1.401   .     A
C660   O712    1.283   .     A
C660   O714    1.283   .     A
C661   C665    1.400   .     A
C661   C667    1.395   .     A
C662   H704    1.084   .     S
C662   C670    1.406   .     A
C662   C664    1.398   .     A
C663   H705    1.083   .     S
C663   C672    1.403   .     A
C663   C665    1.392   .     A
C664   H703    1.083   .     S
C665   H702    1.083   .     S
C666   C668    1.394   .     A
C666   H701    1.081   .     S
C667   C669    1.397   .     A
C667   H700    1.079   .     S
C668   C670    1.413   .     A
C668   C673    1.414   .     A
C669   C674    1.418   .     A
C669   C672    1.416   .     A
C670   C30     1.393   1_556 S
C671   C678    1.402   .     A
C671   N709    1.426   .     S
C671   C674    1.430   .     A
C673   C677    1.429   .     A
C673   C26     1.414   1_556 S
C675   H693    1.110   .     S
C675   H695    1.111   .     S
C675   N709    1.447   .     S
C675   H692    1.111   .     S
C676   H697    1.111   .     S
C676   H698    1.110   .     S
C676   N710    1.447   .     S
C676   H699    1.111   .     S
C677   C679    1.396   .     A
C677   N710    1.427   .     S
C678   H683    1.084   .     S
C679   H694    1.082   .     S
C679   C24     1.390   1_556 S
C680   H706    1.084   .     S
C680   C898    1.370   .     S
C681   H684    1.084   .     S
C681   C1082   1.370   1_545 S
C682   H685    1.084   .     S
C682   C1112   1.370   1_545 S
H691   N709    1.032   .     S
H696   N710    1.032   .     S
N707   Zn719   2.010   .     S
N708   Zn720   2.010   .     S
O711   Zn719   1.998   .     S
O712   Zn720   1.998   .     S
O713   Zn720   1.998   .     S
O714   Zn719   1.998   .     S
O715   Zn719   1.940   .     S
O716   Zn720   1.940   .     S
O717   Zn720   1.898   .     S
O718   Zn719   1.898   .     S
C721   C724    1.418   .     S
C721   O785    1.283   .     A
C721   O783    1.283   .     A
C722   H758    1.084   .     S
C722   C724    1.397   .     A
C722   C969    1.370   .     S
C723   C754    1.397   .     A
C723   C753    1.397   .     A
C723   C732    1.417   .     S
C724   C752    1.397   .     A
C725   N780    1.366   .     A
C725   H759    1.082   .     S
C725   C799    1.416   .     S
C726   H760    1.082   .     S
C726   N779    1.366   .     A
C727   N779    1.367   .     A
C727   H761    1.082   .     S
C728   N780    1.367   .     A
C728   H762    1.082   .     S
C728   C798    1.416   .     S
C729   O787    1.294   .     A
C729   C731    1.460   .     S
C729   O789    1.292   .     A
C730   O790    1.294   .     A
C730   O788    1.292   .     A
C730   C733    1.460   .     S
C731   C738    1.392   .     A
C731   C736    1.401   .     A
C732   O784    1.283   .     A
C732   O786    1.283   .     A
C733   C737    1.400   .     A
C733   C739    1.395   .     A
C734   H776    1.084   .     S
C734   C742    1.406   .     A
C734   C736    1.398   .     A
C735   H777    1.083   .     S
C735   C744    1.403   .     A
C735   C737    1.392   .     A
C736   H775    1.083   .     S
C737   H774    1.083   .     S
C738   C740    1.394   .     A
C738   H773    1.081   .     S
C739   C741    1.397   .     A
C739   H772    1.079   .     S
C740   C742    1.413   .     A
C740   C745    1.414   .     A
C741   C746    1.418   .     A
C741   C744    1.416   .     A
C742   C102    1.393   1_556 S
C743   C750    1.402   .     A
C743   N781    1.426   .     S
C743   C746    1.430   .     A
C745   C749    1.429   .     A
C745   C98     1.414   1_556 S
C747   H765    1.110   .     S
C747   H767    1.111   .     S
C747   N781    1.447   .     S
C747   H764    1.111   .     S
C748   H769    1.111   .     S
C748   H770    1.110   .     S
C748   N782    1.447   .     S
C748   H771    1.111   .     S
C749   C751    1.396   .     A
C749   N782    1.427   .     S
C750   H755    1.084   .     S
C751   H766    1.082   .     S
C751   C96     1.390   1_556 S
C752   H778    1.084   .     S
C752   C970    1.370   .     S
C753   H756    1.084   .     S
C753   C1154   1.370   1_545 S
C754   H757    1.084   .     S
C754   C1184   1.370   1_545 S
H763   N781    1.032   .     S
H768   N782    1.032   .     S
N779   Zn791   2.010   .     S
N780   Zn792   2.010   .     S
O783   Zn791   1.998   .     S
O784   Zn792   1.998   .     S
O785   Zn792   1.998   .     S
O786   Zn791   1.998   .     S
O787   Zn791   1.940   .     S
O788   Zn792   1.940   .     S
O789   Zn792   1.898   .     S
O790   Zn791   1.898   .     S
C793   C796    1.418   .     S
C793   O857    1.283   .     A
C793   O855    1.283   .     A
C794   H830    1.084   .     S
C794   C796    1.397   .     A
C794   C1041   1.370   .     S
C795   C826    1.397   .     A
C795   C825    1.397   .     A
C795   C804    1.417   .     S
C796   C824    1.397   .     A
C797   N852    1.366   .     A
C797   H831    1.082   .     S
C797   C655    1.416   1_655 S
C798   H832    1.082   .     S
C798   N851    1.366   .     A
C799   N851    1.367   .     A
C799   H833    1.082   .     S
C800   N852    1.367   .     A
C800   H834    1.082   .     S
C800   C654    1.416   1_655 S
C801   O859    1.294   .     A
C801   C803    1.460   .     S
C801   O861    1.292   .     A
C802   O862    1.294   .     A
C802   O860    1.292   .     A
C802   C805    1.460   .     S
C803   C810    1.392   .     A
C803   C808    1.401   .     A
C804   O856    1.283   .     A
C804   O858    1.283   .     A
C805   C809    1.400   .     A
C805   C811    1.395   .     A
C806   H848    1.084   .     S
C806   C814    1.406   .     A
C806   C808    1.398   .     A
C807   H849    1.083   .     S
C807   C816    1.403   .     A
C807   C809    1.392   .     A
C808   H847    1.083   .     S
C809   H846    1.083   .     S
C810   C812    1.394   .     A
C810   H845    1.081   .     S
C811   C813    1.397   .     A
C811   H844    1.079   .     S
C812   C814    1.413   .     A
C812   C817    1.414   .     A
C813   C818    1.418   .     A
C813   C816    1.416   .     A
C814   C174    1.393   1_556 S
C815   C822    1.402   .     A
C815   N853    1.426   .     S
C815   C818    1.430   .     A
C817   C821    1.429   .     A
C817   C170    1.414   1_556 S
C819   H837    1.110   .     S
C819   H839    1.111   .     S
C819   N853    1.447   .     S
C819   H836    1.111   .     S
C820   H841    1.111   .     S
C820   H842    1.110   .     S
C820   N854    1.447   .     S
C820   H843    1.111   .     S
C821   C823    1.396   .     A
C821   N854    1.427   .     S
C822   H827    1.084   .     S
C823   H838    1.082   .     S
C823   C168    1.390   1_556 S
C824   H850    1.084   .     S
C824   C1042   1.370   .     S
C825   H828    1.084   .     S
C825   C1226   1.370   1_545 S
C826   H829    1.084   .     S
C826   C1256   1.370   1_545 S
H835   N853    1.032   .     S
H840   N854    1.032   .     S
N851   Zn863   2.010   .     S
N852   Zn864   2.010   .     S
O855   Zn863   1.998   .     S
O856   Zn864   1.998   .     S
O857   Zn864   1.998   .     S
O858   Zn863   1.998   .     S
O859   Zn863   1.940   .     S
O860   Zn864   1.940   .     S
O861   Zn864   1.898   .     S
O862   Zn863   1.898   .     S
C865   C868    1.418   .     S
C865   O929    1.283   .     A
C865   O927    1.283   .     A
C866   H902    1.084   .     S
C866   C868    1.397   .     A
C866   C1113   1.370   .     S
C867   C898    1.397   .     A
C867   C897    1.397   .     A
C867   C876    1.417   .     S
C868   C896    1.397   .     A
C869   N924    1.366   .     A
C869   H903    1.082   .     S
C869   C943    1.416   .     S
C870   H904    1.082   .     S
C870   N923    1.366   .     A
C870   C1016   1.416   1_455 S
C871   N923    1.367   .     A
C871   H905    1.082   .     S
C871   C1013   1.416   1_455 S
C872   N924    1.367   .     A
C872   H906    1.082   .     S
C872   C942    1.416   .     S
C873   O931    1.294   .     A
C873   C875    1.460   .     S
C873   O933    1.292   .     A
C874   O934    1.294   .     A
C874   O932    1.292   .     A
C874   C877    1.460   .     S
C875   C882    1.392   .     A
C875   C880    1.401   .     A
C876   O928    1.283   .     A
C876   O930    1.283   .     A
C877   C881    1.400   .     A
C877   C883    1.395   .     A
C878   H920    1.084   .     S
C878   C886    1.406   .     A
C878   C880    1.398   .     A
C879   H921    1.083   .     S
C879   C888    1.403   .     A
C879   C881    1.392   .     A
C880   H919    1.083   .     S
C881   H918    1.083   .     S
C882   C884    1.394   .     A
C882   H917    1.081   .     S
C883   C885    1.397   .     A
C883   H916    1.079   .     S
C884   C886    1.413   .     A
C884   C889    1.414   .     A
C885   C890    1.418   .     A
C885   C888    1.416   .     A
C886   C246    1.393   1_556 S
C887   C894    1.402   .     A
C887   N925    1.426   .     S
C887   C890    1.430   .     A
C889   C893    1.429   .     A
C889   C242    1.414   1_556 S
C891   H909    1.110   .     S
C891   H911    1.111   .     S
C891   N925    1.447   .     S
C891   H908    1.111   .     S
C892   H913    1.111   .     S
C892   H914    1.110   .     S
C892   N926    1.447   .     S
C892   H915    1.111   .     S
C893   C895    1.396   .     A
C893   N926    1.427   .     S
C894   H899    1.084   .     S
C895   H910    1.082   .     S
C895   C240    1.390   1_556 S
C896   H922    1.084   .     S
C896   C1114   1.370   .     S
C897   H900    1.084   .     S
C898   H901    1.084   .     S
H907   N925    1.032   .     S
H912   N926    1.032   .     S
N923   Zn935   2.010   .     S
N924   Zn936   2.010   .     S
O927   Zn935   1.998   .     S
O928   Zn936   1.998   .     S
O929   Zn936   1.998   .     S
O930   Zn935   1.998   .     S
O931   Zn935   1.940   .     S
O932   Zn936   1.940   .     S
O933   Zn936   1.898   .     S
O934   Zn935   1.898   .     S
C937   C940    1.418   .     S
C937   O1001   1.283   .     A
C937   O999    1.283   .     A
C938   H974    1.084   .     S
C938   C940    1.397   .     A
C938   C1185   1.370   .     S
C939   C970    1.397   .     A
C939   C969    1.397   .     A
C939   C948    1.417   .     S
C940   C968    1.397   .     A
C941   N996    1.366   .     A
C941   H975    1.082   .     S
C941   C1015   1.416   .     S
C942   H976    1.082   .     S
C942   N995    1.366   .     A
C943   N995    1.367   .     A
C943   H977    1.082   .     S
C944   N996    1.367   .     A
C944   H978    1.082   .     S
C944   C1014   1.416   .     S
C945   O1003   1.294   .     A
C945   C947    1.460   .     S
C945   O1005   1.292   .     A
C946   O1006   1.294   .     A
C946   O1004   1.292   .     A
C946   C949    1.460   .     S
C947   C954    1.392   .     A
C947   C952    1.401   .     A
C948   O1000   1.283   .     A
C948   O1002   1.283   .     A
C949   C953    1.400   .     A
C949   C955    1.395   .     A
C950   H992    1.084   .     S
C950   C958    1.406   .     A
C950   C952    1.398   .     A
C951   H993    1.083   .     S
C951   C960    1.403   .     A
C951   C953    1.392   .     A
C952   H991    1.083   .     S
C953   H990    1.083   .     S
C954   C956    1.394   .     A
C954   H989    1.081   .     S
C955   C957    1.397   .     A
C955   H988    1.079   .     S
C956   C958    1.413   .     A
C956   C961    1.414   .     A
C957   C962    1.418   .     A
C957   C960    1.416   .     A
C958   C318    1.393   1_556 S
C959   C966    1.402   .     A
C959   N997    1.426   .     S
C959   C962    1.430   .     A
C961   C965    1.429   .     A
C961   C314    1.414   1_556 S
C963   H981    1.110   .     S
C963   H983    1.111   .     S
C963   N997    1.447   .     S
C963   H980    1.111   .     S
C964   H985    1.111   .     S
C964   H986    1.110   .     S
C964   N998    1.447   .     S
C964   H987    1.111   .     S
C965   C967    1.396   .     A
C965   N998    1.427   .     S
C966   H971    1.084   .     S
C967   H982    1.082   .     S
C967   C312    1.390   1_556 S
C968   H994    1.084   .     S
C968   C1186   1.370   .     S
C969   H972    1.084   .     S
C970   H973    1.084   .     S
H979   N997    1.032   .     S
H984   N998    1.032   .     S
N995   Zn1007  2.010   .     S
N996   Zn1008  2.010   .     S
O999   Zn1007  1.998   .     S
O1000  Zn1008  1.998   .     S
O1001  Zn1008  1.998   .     S
O1002  Zn1007  1.998   .     S
O1003  Zn1007  1.940   .     S
O1004  Zn1008  1.940   .     S
O1005  Zn1008  1.898   .     S
O1006  Zn1007  1.898   .     S
C1009  C1012   1.418   .     S
C1009  O1073   1.283   .     A
C1009  O1071   1.283   .     A
C1010  H1046   1.084   .     S
C1010  C1012   1.397   .     A
C1010  C1257   1.370   .     S
C1011  C1042   1.397   .     A
C1011  C1041   1.397   .     A
C1011  C1020   1.417   .     S
C1012  C1040   1.397   .     A
C1013  N1068   1.366   .     A
C1013  H1047   1.082   .     S
C1013  C871    1.416   1_655 S
C1014  H1048   1.082   .     S
C1014  N1067   1.366   .     A
C1015  N1067   1.367   .     A
C1015  H1049   1.082   .     S
C1016  N1068   1.367   .     A
C1016  H1050   1.082   .     S
C1016  C870    1.416   1_655 S
C1017  O1075   1.294   .     A
C1017  C1019   1.460   .     S
C1017  O1077   1.292   .     A
C1018  O1078   1.294   .     A
C1018  O1076   1.292   .     A
C1018  C1021   1.460   .     S
C1019  C1026   1.392   .     A
C1019  C1024   1.401   .     A
C1020  O1072   1.283   .     A
C1020  O1074   1.283   .     A
C1021  C1025   1.400   .     A
C1021  C1027   1.395   .     A
C1022  H1064   1.084   .     S
C1022  C1030   1.406   .     A
C1022  C1024   1.398   .     A
C1023  H1065   1.083   .     S
C1023  C1032   1.403   .     A
C1023  C1025   1.392   .     A
C1024  H1063   1.083   .     S
C1025  H1062   1.083   .     S
C1026  C1028   1.394   .     A
C1026  H1061   1.081   .     S
C1027  C1029   1.397   .     A
C1027  H1060   1.079   .     S
C1028  C1030   1.413   .     A
C1028  C1033   1.414   .     A
C1029  C1034   1.418   .     A
C1029  C1032   1.416   .     A
C1030  C390    1.393   1_556 S
C1031  C1038   1.402   .     A
C1031  N1069   1.426   .     S
C1031  C1034   1.430   .     A
C1033  C1037   1.429   .     A
C1033  C386    1.414   1_556 S
C1035  H1053   1.110   .     S
C1035  H1055   1.111   .     S
C1035  N1069   1.447   .     S
C1035  H1052   1.111   .     S
C1036  H1057   1.111   .     S
C1036  H1058   1.110   .     S
C1036  N1070   1.447   .     S
C1036  H1059   1.111   .     S
C1037  C1039   1.396   .     A
C1037  N1070   1.427   .     S
C1038  H1043   1.084   .     S
C1039  H1054   1.082   .     S
C1039  C384    1.390   1_556 S
C1040  H1066   1.084   .     S
C1040  C1258   1.370   .     S
C1041  H1044   1.084   .     S
C1042  H1045   1.084   .     S
H1051  N1069   1.032   .     S
H1056  N1070   1.032   .     S
N1067  Zn1079  2.010   .     S
N1068  Zn1080  2.010   .     S
O1071  Zn1079  1.998   .     S
O1072  Zn1080  1.998   .     S
O1073  Zn1080  1.998   .     S
O1074  Zn1079  1.998   .     S
O1075  Zn1079  1.940   .     S
O1076  Zn1080  1.940   .     S
O1077  Zn1080  1.898   .     S
O1078  Zn1079  1.898   .     S
C1081  C1084   1.418   .     S
C1081  O1145   1.283   .     A
C1081  O1143   1.283   .     A
C1082  H1118   1.084   .     S
C1082  C1084   1.397   .     A
C1082  C681    1.370   1_565 S
C1083  C1114   1.397   .     A
C1083  C1113   1.397   .     A
C1083  C1092   1.417   .     S
C1084  C1112   1.397   .     A
C1085  N1140   1.366   .     A
C1085  H1119   1.082   .     S
C1085  C1159   1.416   .     S
C1086  H1120   1.082   .     S
C1086  N1139   1.366   .     A
C1086  C1232   1.416   1_455 S
C1087  N1139   1.367   .     A
C1087  H1121   1.082   .     S
C1087  C1229   1.416   1_455 S
C1088  N1140   1.367   .     A
C1088  H1122   1.082   .     S
C1088  C1158   1.416   .     S
C1089  O1147   1.294   .     A
C1089  C1091   1.460   .     S
C1089  O1149   1.292   .     A
C1090  O1150   1.294   .     A
C1090  O1148   1.292   .     A
C1090  C1093   1.460   .     S
C1091  C1098   1.392   .     A
C1091  C1096   1.401   .     A
C1092  O1144   1.283   .     A
C1092  O1146   1.283   .     A
C1093  C1097   1.400   .     A
C1093  C1099   1.395   .     A
C1094  H1136   1.084   .     S
C1094  C1102   1.406   .     A
C1094  C1096   1.398   .     A
C1095  H1137   1.083   .     S
C1095  C1104   1.403   .     A
C1095  C1097   1.392   .     A
C1096  H1135   1.083   .     S
C1097  H1134   1.083   .     S
C1098  C1100   1.394   .     A
C1098  H1133   1.081   .     S
C1099  C1101   1.397   .     A
C1099  H1132   1.079   .     S
C1100  C1102   1.413   .     A
C1100  C1105   1.414   .     A
C1101  C1106   1.418   .     A
C1101  C1104   1.416   .     A
C1102  C462    1.393   1_556 S
C1103  C1110   1.402   .     A
C1103  N1141   1.426   .     S
C1103  C1106   1.430   .     A
C1105  C1109   1.429   .     A
C1105  C458    1.414   1_556 S
C1107  H1125   1.110   .     S
C1107  H1127   1.111   .     S
C1107  N1141   1.447   .     S
C1107  H1124   1.111   .     S
C1108  H1129   1.111   .     S
C1108  H1130   1.110   .     S
C1108  N1142   1.447   .     S
C1108  H1131   1.111   .     S
C1109  C1111   1.396   .     A
C1109  N1142   1.427   .     S
C1110  H1115   1.084   .     S
C1111  H1126   1.082   .     S
C1111  C456    1.390   1_556 S
C1112  H1138   1.084   .     S
C1112  C682    1.370   1_565 S
C1113  H1116   1.084   .     S
C1114  H1117   1.084   .     S
H1123  N1141   1.032   .     S
H1128  N1142   1.032   .     S
N1139  Zn1151  2.010   .     S
N1140  Zn1152  2.010   .     S
O1143  Zn1151  1.998   .     S
O1144  Zn1152  1.998   .     S
O1145  Zn1152  1.998   .     S
O1146  Zn1151  1.998   .     S
O1147  Zn1151  1.940   .     S
O1148  Zn1152  1.940   .     S
O1149  Zn1152  1.898   .     S
O1150  Zn1151  1.898   .     S
C1153  C1156   1.418   .     S
C1153  O1217   1.283   .     A
C1153  O1215   1.283   .     A
C1154  H1190   1.084   .     S
C1154  C1156   1.397   .     A
C1154  C753    1.370   1_565 S
C1155  C1186   1.397   .     A
C1155  C1185   1.397   .     A
C1155  C1164   1.417   .     S
C1156  C1184   1.397   .     A
C1157  N1212   1.366   .     A
C1157  H1191   1.082   .     S
C1157  C1231   1.416   .     S
C1158  H1192   1.082   .     S
C1158  N1211   1.366   .     A
C1159  N1211   1.367   .     A
C1159  H1193   1.082   .     S
C1160  N1212   1.367   .     A
C1160  H1194   1.082   .     S
C1160  C1230   1.416   .     S
C1161  O1219   1.294   .     A
C1161  C1163   1.460   .     S
C1161  O1221   1.292   .     A
C1162  O1222   1.294   .     A
C1162  O1220   1.292   .     A
C1162  C1165   1.460   .     S
C1163  C1170   1.392   .     A
C1163  C1168   1.401   .     A
C1164  O1216   1.283   .     A
C1164  O1218   1.283   .     A
C1165  C1169   1.400   .     A
C1165  C1171   1.395   .     A
C1166  H1208   1.084   .     S
C1166  C1174   1.406   .     A
C1166  C1168   1.398   .     A
C1167  H1209   1.083   .     S
C1167  C1176   1.403   .     A
C1167  C1169   1.392   .     A
C1168  H1207   1.083   .     S
C1169  H1206   1.083   .     S
C1170  C1172   1.394   .     A
C1170  H1205   1.081   .     S
C1171  C1173   1.397   .     A
C1171  H1204   1.079   .     S
C1172  C1174   1.413   .     A
C1172  C1177   1.414   .     A
C1173  C1178   1.418   .     A
C1173  C1176   1.416   .     A
C1174  C534    1.393   1_556 S
C1175  C1182   1.402   .     A
C1175  N1213   1.426   .     S
C1175  C1178   1.430   .     A
C1177  C1181   1.429   .     A
C1177  C530    1.414   1_556 S
C1179  H1197   1.110   .     S
C1179  H1199   1.111   .     S
C1179  N1213   1.447   .     S
C1179  H1196   1.111   .     S
C1180  H1201   1.111   .     S
C1180  H1202   1.110   .     S
C1180  N1214   1.447   .     S
C1180  H1203   1.111   .     S
C1181  C1183   1.396   .     A
C1181  N1214   1.427   .     S
C1182  H1187   1.084   .     S
C1183  H1198   1.082   .     S
C1183  C528    1.390   1_556 S
C1184  H1210   1.084   .     S
C1184  C754    1.370   1_565 S
C1185  H1188   1.084   .     S
C1186  H1189   1.084   .     S
H1195  N1213   1.032   .     S
H1200  N1214   1.032   .     S
N1211  Zn1223  2.010   .     S
N1212  Zn1224  2.010   .     S
O1215  Zn1223  1.998   .     S
O1216  Zn1224  1.998   .     S
O1217  Zn1224  1.998   .     S
O1218  Zn1223  1.998   .     S
O1219  Zn1223  1.940   .     S
O1220  Zn1224  1.940   .     S
O1221  Zn1224  1.898   .     S
O1222  Zn1223  1.898   .     S
C1225  C1228   1.418   .     S
C1225  O1289   1.283   .     A
C1225  O1287   1.283   .     A
C1226  H1262   1.084   .     S
C1226  C1228   1.397   .     A
C1226  C825    1.370   1_565 S
C1227  C1258   1.397   .     A
C1227  C1257   1.397   .     A
C1227  C1236   1.417   .     S
C1228  C1256   1.397   .     A
C1229  N1284   1.366   .     A
C1229  H1263   1.082   .     S
C1229  C1087   1.416   1_655 S
C1230  H1264   1.082   .     S
C1230  N1283   1.366   .     A
C1231  N1283   1.367   .     A
C1231  H1265   1.082   .     S
C1232  N1284   1.367   .     A
C1232  H1266   1.082   .     S
C1232  C1086   1.416   1_655 S
C1233  O1291   1.294   .     A
C1233  C1235   1.460   .     S
C1233  O1293   1.292   .     A
C1234  O1294   1.294   .     A
C1234  O1292   1.292   .     A
C1234  C1237   1.460   .     S
C1235  C1242   1.392   .     A
C1235  C1240   1.401   .     A
C1236  O1288   1.283   .     A
C1236  O1290   1.283   .     A
C1237  C1241   1.400   .     A
C1237  C1243   1.395   .     A
C1238  H1280   1.084   .     S
C1238  C1246   1.406   .     A
C1238  C1240   1.398   .     A
C1239  H1281   1.083   .     S
C1239  C1248   1.403   .     A
C1239  C1241   1.392   .     A
C1240  H1279   1.083   .     S
C1241  H1278   1.083   .     S
C1242  C1244   1.394   .     A
C1242  H1277   1.081   .     S
C1243  C1245   1.397   .     A
C1243  H1276   1.079   .     S
C1244  C1246   1.413   .     A
C1244  C1249   1.414   .     A
C1245  C1250   1.418   .     A
C1245  C1248   1.416   .     A
C1246  C606    1.393   1_556 S
C1247  C1254   1.402   .     A
C1247  N1285   1.426   .     S
C1247  C1250   1.430   .     A
C1249  C1253   1.429   .     A
C1249  C602    1.414   1_556 S
C1251  H1269   1.110   .     S
C1251  H1271   1.111   .     S
C1251  N1285   1.447   .     S
C1251  H1268   1.111   .     S
C1252  H1273   1.111   .     S
C1252  H1274   1.110   .     S
C1252  N1286   1.447   .     S
C1252  H1275   1.111   .     S
C1253  C1255   1.396   .     A
C1253  N1286   1.427   .     S
C1254  H1259   1.084   .     S
C1255  H1270   1.082   .     S
C1255  C600    1.390   1_556 S
C1256  H1282   1.084   .     S
C1256  C826    1.370   1_565 S
C1257  H1260   1.084   .     S
C1258  H1261   1.084   .     S
H1267  N1285   1.032   .     S
H1272  N1286   1.032   .     S
N1283  Zn1295  2.010   .     S
N1284  Zn1296  2.010   .     S
O1287  Zn1295  1.998   .     S
O1288  Zn1296  1.998   .     S
O1289  Zn1296  1.998   .     S
O1290  Zn1295  1.998   .     S
O1291  Zn1295  1.940   .     S
O1292  Zn1296  1.940   .     S
O1293  Zn1296  1.898   .     S
O1294  Zn1295  1.898   .     S
