data_str_m3_o1_o17_pcu_sym.114
_audit_creation_date              2020-01-03
_audit_creation_method            'Materials Studio'
_symmetry_space_group_name_H-M    'P1'
_symmetry_Int_Tables_number       1
_symmetry_cell_setting            triclinic
loop_
_symmetry_equiv_pos_as_xyz
  x,y,z
_cell_length_a                    31.9845
_cell_length_b                    29.5056
_cell_length_c                    29.9877
_cell_angle_alpha                 89.7955
_cell_angle_beta                  90.3035
_cell_angle_gamma                 89.7895
loop_
_atom_site_label
_atom_site_type_symbol
_atom_site_fract_x
_atom_site_fract_y
_atom_site_fract_z
_atom_site_U_iso_or_equiv
_atom_site_adp_type
_atom_site_occupancy
O1     O     0.10559   0.20487   0.24999   0.00000  Uiso   1.00
O2     O     0.22774   0.12846   0.25000   0.00000  Uiso   1.00
O3     O     0.22774   0.20487   0.25000   0.00000  Uiso   1.00
O4     O     0.10559   0.12846   0.24999   0.00000  Uiso   1.00
C5     C     0.08677   0.16677   0.24977   0.00000  Uiso   1.00
C6     C     0.24657   0.16656   0.25023   0.00000  Uiso   1.00
O7     O     0.16666   0.20489   0.18392   0.00000  Uiso   1.00
O8     O     0.16667   0.12844   0.31607   0.00000  Uiso   1.00
O9     O     0.16667   0.20489   0.31607   0.00000  Uiso   1.00
O10    O     0.16666   0.12844   0.18392   0.00000  Uiso   1.00
C11    C     0.16689   0.16674   0.16332   0.00000  Uiso   1.00
C12    C     0.16644   0.16659   0.33668   0.00000  Uiso   1.00
Zn13   Zn    0.16667   0.21771   0.25000   0.00000  Uiso   1.00
Zn14   Zn    0.16667   0.11563   0.25000   0.00000  Uiso   1.00
C15    C     0.17786   0.12739   0.40759   0.00000  Uiso   1.00
C16    C     0.15546   0.20594   0.09241   0.00000  Uiso   1.00
C17    C     0.16576   0.16642   0.38457   0.00000  Uiso   1.00
C18    C     0.16756   0.16691   0.11543   0.00000  Uiso   1.00
C19    C     0.15316   0.20540   0.40710   0.00000  Uiso   1.00
C20    C     0.18016   0.12794   0.09290   0.00000  Uiso   1.00
C21    C     0.15196   0.20577   0.45342   0.00000  Uiso   1.00
C22    C     0.18136   0.12756   0.04658   0.00000  Uiso   1.00
C23    C     0.16592   0.16663   0.47679   0.00000  Uiso   1.00
C24    C     0.16740   0.16670   0.02321   0.00000  Uiso   1.00
C25    C     0.17855   0.12738   0.45366   0.00000  Uiso   1.00
C26    C     0.15477   0.20596   0.04634   0.00000  Uiso   1.00
C27    C     0.13841   0.24455   0.47694   0.00000  Uiso   1.00
C28    C     0.19491   0.08878   0.02305   0.00000  Uiso   1.00
C29    C     0.14075   0.24441   0.02335   0.00000  Uiso   1.00
C30    C     0.19257   0.08892   0.47665   0.00000  Uiso   1.00
H31    H     0.18783   0.09741   0.38963   0.00000  Uiso   1.00
H32    H     0.14549   0.23592   0.11037   0.00000  Uiso   1.00
H33    H     0.14469   0.23534   0.38817   0.00000  Uiso   1.00
H34    H     0.18863   0.09799   0.11183   0.00000  Uiso   1.00
H35    H     0.13040   0.27403   0.04161   0.00000  Uiso   1.00
H36    H     0.20292   0.05930   0.45839   0.00000  Uiso   1.00
C37    C     0.02141   0.14190   0.21683   0.00000  Uiso   1.00
C38    C     0.31192   0.19143   0.28317   0.00000  Uiso   1.00
C39    C     0.31153   0.14135   0.21761   0.00000  Uiso   1.00
C40    C     0.02181   0.19198   0.28239   0.00000  Uiso   1.00
C41    C     0.29070   0.16623   0.25058   0.00000  Uiso   1.00
C42    C     0.04263   0.16711   0.24942   0.00000  Uiso   1.00
C43    C     0.19115   0.02379   0.27936   0.00000  Uiso   1.00
C44    C     0.14218   0.30955   0.22064   0.00000  Uiso   1.00
C45    C     0.14219   0.02420   0.22064   0.00000  Uiso   1.00
C46    C     0.19115   0.30914   0.27936   0.00000  Uiso   1.00
H47    H     0.21073   0.04182   0.30282   0.00000  Uiso   1.00
H48    H     0.12261   0.29151   0.19718   0.00000  Uiso   1.00
H49    H     0.12264   0.04256   0.19716   0.00000  Uiso   1.00
H50    H     0.21070   0.29078   0.30284   0.00000  Uiso   1.00
N51    N     0.16667   0.28573   0.25000   0.00000  Uiso   1.00
N52    N     0.16667   0.04760   0.25000   0.00000  Uiso   1.00
N53    N     0.12108   0.28357   0.45461   0.00000  Uiso   1.00
O54    O     0.09073   0.27868   0.42597   0.00000  Uiso   1.00
O55    O     0.12974   0.32405   0.46896   0.00000  Uiso   1.00
N56    N     0.21224   0.04976   0.04539   0.00000  Uiso   1.00
O57    O     0.24259   0.05465   0.07403   0.00000  Uiso   1.00
O58    O     0.20357   0.00928   0.03104   0.00000  Uiso   1.00
N59    N     0.04356   0.11929   0.18166   0.00000  Uiso   1.00
O60    O     0.03712   0.07656   0.17373   0.00000  Uiso   1.00
O61    O     0.06950   0.14173   0.15673   0.00000  Uiso   1.00
N62    N     0.28978   0.21405   0.31833   0.00000  Uiso   1.00
O63    O     0.29627   0.25677   0.32631   0.00000  Uiso   1.00
O64    O     0.26382   0.19162   0.34326   0.00000  Uiso   1.00
N65    N     0.28873   0.11871   0.18297   0.00000  Uiso   1.00
O66    O     0.27006   0.14226   0.15193   0.00000  Uiso   1.00
O67    O     0.28279   0.07517   0.18525   0.00000  Uiso   1.00
N68    N     0.04460   0.21463   0.31702   0.00000  Uiso   1.00
O69    O     0.06318   0.19109   0.34812   0.00000  Uiso   1.00
O70    O     0.05065   0.25815   0.31468   0.00000  Uiso   1.00
O71    O     0.43892   0.20487   0.24999   0.00000  Uiso   1.00
O72    O     0.56108   0.12846   0.25000   0.00000  Uiso   1.00
O73    O     0.56108   0.20487   0.25000   0.00000  Uiso   1.00
O74    O     0.43892   0.12846   0.24999   0.00000  Uiso   1.00
C75    C     0.42010   0.16677   0.24977   0.00000  Uiso   1.00
C76    C     0.57990   0.16656   0.25023   0.00000  Uiso   1.00
O77    O     0.49999   0.20489   0.18392   0.00000  Uiso   1.00
O78    O     0.50001   0.12844   0.31607   0.00000  Uiso   1.00
O79    O     0.50001   0.20489   0.31607   0.00000  Uiso   1.00
O80    O     0.49999   0.12844   0.18392   0.00000  Uiso   1.00
C81    C     0.50023   0.16674   0.16332   0.00000  Uiso   1.00
C82    C     0.49977   0.16659   0.33668   0.00000  Uiso   1.00
Zn83   Zn    0.50000   0.21771   0.25000   0.00000  Uiso   1.00
Zn84   Zn    0.50000   0.11563   0.25000   0.00000  Uiso   1.00
C85    C     0.51119   0.12739   0.40759   0.00000  Uiso   1.00
C86    C     0.48880   0.20594   0.09241   0.00000  Uiso   1.00
C87    C     0.49910   0.16642   0.38457   0.00000  Uiso   1.00
C88    C     0.50090   0.16691   0.11543   0.00000  Uiso   1.00
C89    C     0.48650   0.20540   0.40710   0.00000  Uiso   1.00
C90    C     0.51349   0.12794   0.09290   0.00000  Uiso   1.00
C91    C     0.48529   0.20577   0.45342   0.00000  Uiso   1.00
C92    C     0.51469   0.12756   0.04658   0.00000  Uiso   1.00
C93    C     0.49925   0.16663   0.47679   0.00000  Uiso   1.00
C94    C     0.50073   0.16670   0.02321   0.00000  Uiso   1.00
C95    C     0.51188   0.12738   0.45366   0.00000  Uiso   1.00
C96    C     0.48810   0.20596   0.04634   0.00000  Uiso   1.00
C97    C     0.47174   0.24455   0.47694   0.00000  Uiso   1.00
C98    C     0.52824   0.08878   0.02305   0.00000  Uiso   1.00
C99    C     0.47408   0.24441   0.02335   0.00000  Uiso   1.00
C100   C     0.52591   0.08892   0.47665   0.00000  Uiso   1.00
H101   H     0.52117   0.09741   0.38963   0.00000  Uiso   1.00
H102   H     0.47883   0.23592   0.11037   0.00000  Uiso   1.00
H103   H     0.47802   0.23534   0.38817   0.00000  Uiso   1.00
H104   H     0.52197   0.09799   0.11183   0.00000  Uiso   1.00
H105   H     0.46374   0.27403   0.04161   0.00000  Uiso   1.00
H106   H     0.53625   0.05930   0.45839   0.00000  Uiso   1.00
C107   C     0.35474   0.14190   0.21683   0.00000  Uiso   1.00
C108   C     0.64526   0.19143   0.28317   0.00000  Uiso   1.00
C109   C     0.64486   0.14135   0.21761   0.00000  Uiso   1.00
C110   C     0.35514   0.19198   0.28239   0.00000  Uiso   1.00
C111   C     0.62404   0.16623   0.25058   0.00000  Uiso   1.00
C112   C     0.37596   0.16711   0.24942   0.00000  Uiso   1.00
C113   C     0.52449   0.02379   0.27936   0.00000  Uiso   1.00
C114   C     0.47551   0.30955   0.22064   0.00000  Uiso   1.00
C115   C     0.47552   0.02420   0.22064   0.00000  Uiso   1.00
C116   C     0.52448   0.30914   0.27936   0.00000  Uiso   1.00
H117   H     0.54406   0.04182   0.30282   0.00000  Uiso   1.00
H118   H     0.45594   0.29151   0.19718   0.00000  Uiso   1.00
H119   H     0.45597   0.04256   0.19716   0.00000  Uiso   1.00
H120   H     0.54403   0.29078   0.30284   0.00000  Uiso   1.00
N121   N     0.50000   0.28573   0.25000   0.00000  Uiso   1.00
N122   N     0.50000   0.04760   0.25000   0.00000  Uiso   1.00
N123   N     0.45441   0.28357   0.45461   0.00000  Uiso   1.00
O124   O     0.42406   0.27868   0.42597   0.00000  Uiso   1.00
O125   O     0.46308   0.32405   0.46896   0.00000  Uiso   1.00
N126   N     0.54558   0.04976   0.04539   0.00000  Uiso   1.00
O127   O     0.57592   0.05465   0.07403   0.00000  Uiso   1.00
O128   O     0.53691   0.00928   0.03104   0.00000  Uiso   1.00
N129   N     0.37689   0.11929   0.18166   0.00000  Uiso   1.00
O130   O     0.37045   0.07656   0.17373   0.00000  Uiso   1.00
O131   O     0.40283   0.14173   0.15673   0.00000  Uiso   1.00
N132   N     0.62311   0.21405   0.31833   0.00000  Uiso   1.00
O133   O     0.62960   0.25677   0.32631   0.00000  Uiso   1.00
O134   O     0.59715   0.19162   0.34326   0.00000  Uiso   1.00
N135   N     0.62206   0.11871   0.18297   0.00000  Uiso   1.00
O136   O     0.60340   0.14226   0.15193   0.00000  Uiso   1.00
O137   O     0.61612   0.07517   0.18525   0.00000  Uiso   1.00
N138   N     0.37794   0.21463   0.31702   0.00000  Uiso   1.00
O139   O     0.39652   0.19109   0.34812   0.00000  Uiso   1.00
O140   O     0.38398   0.25815   0.31468   0.00000  Uiso   1.00
O141   O     0.77226   0.20487   0.24999   0.00000  Uiso   1.00
O142   O     0.89441   0.12846   0.25000   0.00000  Uiso   1.00
O143   O     0.89441   0.20487   0.25000   0.00000  Uiso   1.00
O144   O     0.77226   0.12846   0.24999   0.00000  Uiso   1.00
C145   C     0.75343   0.16677   0.24977   0.00000  Uiso   1.00
C146   C     0.91323   0.16656   0.25023   0.00000  Uiso   1.00
O147   O     0.83333   0.20489   0.18392   0.00000  Uiso   1.00
O148   O     0.83334   0.12844   0.31607   0.00000  Uiso   1.00
O149   O     0.83334   0.20489   0.31607   0.00000  Uiso   1.00
O150   O     0.83333   0.12844   0.18392   0.00000  Uiso   1.00
C151   C     0.83356   0.16674   0.16332   0.00000  Uiso   1.00
C152   C     0.83310   0.16659   0.33668   0.00000  Uiso   1.00
Zn153  Zn    0.83333   0.21771   0.25000   0.00000  Uiso   1.00
Zn154  Zn    0.83333   0.11563   0.25000   0.00000  Uiso   1.00
C155   C     0.84453   0.12739   0.40759   0.00000  Uiso   1.00
C156   C     0.82213   0.20594   0.09241   0.00000  Uiso   1.00
C157   C     0.83243   0.16642   0.38457   0.00000  Uiso   1.00
C158   C     0.83423   0.16691   0.11543   0.00000  Uiso   1.00
C159   C     0.81983   0.20540   0.40710   0.00000  Uiso   1.00
C160   C     0.84682   0.12794   0.09290   0.00000  Uiso   1.00
C161   C     0.81863   0.20577   0.45342   0.00000  Uiso   1.00
C162   C     0.84803   0.12756   0.04658   0.00000  Uiso   1.00
C163   C     0.83259   0.16663   0.47679   0.00000  Uiso   1.00
C164   C     0.83407   0.16670   0.02321   0.00000  Uiso   1.00
C165   C     0.84522   0.12738   0.45366   0.00000  Uiso   1.00
C166   C     0.82144   0.20596   0.04634   0.00000  Uiso   1.00
C167   C     0.80508   0.24455   0.47694   0.00000  Uiso   1.00
C168   C     0.86157   0.08878   0.02305   0.00000  Uiso   1.00
C169   C     0.80741   0.24441   0.02335   0.00000  Uiso   1.00
C170   C     0.85924   0.08892   0.47665   0.00000  Uiso   1.00
H171   H     0.85450   0.09741   0.38963   0.00000  Uiso   1.00
H172   H     0.81216   0.23592   0.11037   0.00000  Uiso   1.00
H173   H     0.81136   0.23534   0.38817   0.00000  Uiso   1.00
H174   H     0.85530   0.09799   0.11183   0.00000  Uiso   1.00
H175   H     0.79707   0.27403   0.04161   0.00000  Uiso   1.00
H176   H     0.86958   0.05930   0.45839   0.00000  Uiso   1.00
C177   C     0.68808   0.14190   0.21683   0.00000  Uiso   1.00
C178   C     0.97859   0.19143   0.28317   0.00000  Uiso   1.00
C179   C     0.97819   0.14135   0.21761   0.00000  Uiso   1.00
C180   C     0.68847   0.19198   0.28239   0.00000  Uiso   1.00
C181   C     0.95737   0.16623   0.25058   0.00000  Uiso   1.00
C182   C     0.70930   0.16711   0.24942   0.00000  Uiso   1.00
C183   C     0.85782   0.02379   0.27936   0.00000  Uiso   1.00
C184   C     0.80885   0.30955   0.22064   0.00000  Uiso   1.00
C185   C     0.80885   0.02420   0.22064   0.00000  Uiso   1.00
C186   C     0.85781   0.30914   0.27936   0.00000  Uiso   1.00
H187   H     0.87739   0.04182   0.30282   0.00000  Uiso   1.00
H188   H     0.78927   0.29151   0.19718   0.00000  Uiso   1.00
H189   H     0.78930   0.04256   0.19716   0.00000  Uiso   1.00
H190   H     0.87736   0.29078   0.30284   0.00000  Uiso   1.00
N191   N     0.83333   0.28573   0.25000   0.00000  Uiso   1.00
N192   N     0.83333   0.04760   0.25000   0.00000  Uiso   1.00
N193   N     0.78774   0.28357   0.45461   0.00000  Uiso   1.00
O194   O     0.75740   0.27868   0.42597   0.00000  Uiso   1.00
O195   O     0.79641   0.32405   0.46896   0.00000  Uiso   1.00
N196   N     0.87891   0.04976   0.04539   0.00000  Uiso   1.00
O197   O     0.90926   0.05465   0.07403   0.00000  Uiso   1.00
O198   O     0.87024   0.00928   0.03104   0.00000  Uiso   1.00
N199   N     0.71023   0.11929   0.18166   0.00000  Uiso   1.00
O200   O     0.70378   0.07656   0.17373   0.00000  Uiso   1.00
O201   O     0.73617   0.14173   0.15673   0.00000  Uiso   1.00
N202   N     0.95644   0.21405   0.31833   0.00000  Uiso   1.00
O203   O     0.96294   0.25677   0.32631   0.00000  Uiso   1.00
O204   O     0.93049   0.19162   0.34326   0.00000  Uiso   1.00
N205   N     0.95540   0.11871   0.18297   0.00000  Uiso   1.00
O206   O     0.93673   0.14226   0.15193   0.00000  Uiso   1.00
O207   O     0.94945   0.07517   0.18525   0.00000  Uiso   1.00
N208   N     0.71127   0.21463   0.31702   0.00000  Uiso   1.00
O209   O     0.72985   0.19109   0.34812   0.00000  Uiso   1.00
O210   O     0.71731   0.25815   0.31468   0.00000  Uiso   1.00
O211   O     0.10559   0.53821   0.24999   0.00000  Uiso   1.00
O212   O     0.22774   0.46179   0.25000   0.00000  Uiso   1.00
O213   O     0.22774   0.53821   0.25000   0.00000  Uiso   1.00
O214   O     0.10559   0.46179   0.24999   0.00000  Uiso   1.00
C215   C     0.08677   0.50010   0.24977   0.00000  Uiso   1.00
C216   C     0.24657   0.49990   0.25023   0.00000  Uiso   1.00
O217   O     0.16666   0.53823   0.18392   0.00000  Uiso   1.00
O218   O     0.16667   0.46177   0.31607   0.00000  Uiso   1.00
O219   O     0.16667   0.53823   0.31607   0.00000  Uiso   1.00
O220   O     0.16666   0.46177   0.18392   0.00000  Uiso   1.00
C221   C     0.16689   0.50008   0.16332   0.00000  Uiso   1.00
C222   C     0.16644   0.49992   0.33668   0.00000  Uiso   1.00
Zn223  Zn    0.16667   0.55104   0.25000   0.00000  Uiso   1.00
Zn224  Zn    0.16667   0.44896   0.25000   0.00000  Uiso   1.00
C225   C     0.17786   0.46073   0.40759   0.00000  Uiso   1.00
C226   C     0.15546   0.53927   0.09241   0.00000  Uiso   1.00
C227   C     0.16576   0.49975   0.38457   0.00000  Uiso   1.00
C228   C     0.16756   0.50025   0.11543   0.00000  Uiso   1.00
C229   C     0.15316   0.53873   0.40710   0.00000  Uiso   1.00
C230   C     0.18016   0.46127   0.09290   0.00000  Uiso   1.00
C231   C     0.15196   0.53911   0.45342   0.00000  Uiso   1.00
C232   C     0.18136   0.46089   0.04658   0.00000  Uiso   1.00
C233   C     0.16592   0.49996   0.47679   0.00000  Uiso   1.00
C234   C     0.16740   0.50003   0.02321   0.00000  Uiso   1.00
C235   C     0.17855   0.46071   0.45366   0.00000  Uiso   1.00
C236   C     0.15477   0.53929   0.04634   0.00000  Uiso   1.00
C237   C     0.13841   0.57788   0.47694   0.00000  Uiso   1.00
C238   C     0.19491   0.42211   0.02305   0.00000  Uiso   1.00
C239   C     0.14075   0.57775   0.02335   0.00000  Uiso   1.00
C240   C     0.19257   0.42225   0.47665   0.00000  Uiso   1.00
H241   H     0.18783   0.43074   0.38963   0.00000  Uiso   1.00
H242   H     0.14549   0.56926   0.11037   0.00000  Uiso   1.00
H243   H     0.14469   0.56867   0.38817   0.00000  Uiso   1.00
H244   H     0.18863   0.43132   0.11183   0.00000  Uiso   1.00
H245   H     0.13040   0.60737   0.04161   0.00000  Uiso   1.00
H246   H     0.20292   0.39263   0.45839   0.00000  Uiso   1.00
C247   C     0.02141   0.47523   0.21683   0.00000  Uiso   1.00
C248   C     0.31192   0.52477   0.28317   0.00000  Uiso   1.00
C249   C     0.31153   0.47469   0.21761   0.00000  Uiso   1.00
C250   C     0.02181   0.52531   0.28239   0.00000  Uiso   1.00
C251   C     0.29070   0.49956   0.25058   0.00000  Uiso   1.00
C252   C     0.04263   0.50044   0.24942   0.00000  Uiso   1.00
C253   C     0.19115   0.35712   0.27936   0.00000  Uiso   1.00
C254   C     0.14218   0.64288   0.22064   0.00000  Uiso   1.00
C255   C     0.14219   0.35753   0.22064   0.00000  Uiso   1.00
C256   C     0.19115   0.64247   0.27936   0.00000  Uiso   1.00
H257   H     0.21073   0.37515   0.30282   0.00000  Uiso   1.00
H258   H     0.12261   0.62485   0.19718   0.00000  Uiso   1.00
H259   H     0.12264   0.37589   0.19716   0.00000  Uiso   1.00
H260   H     0.21070   0.62411   0.30284   0.00000  Uiso   1.00
N261   N     0.16667   0.61907   0.25000   0.00000  Uiso   1.00
N262   N     0.16667   0.38093   0.25000   0.00000  Uiso   1.00
N263   N     0.12108   0.61691   0.45461   0.00000  Uiso   1.00
O264   O     0.09073   0.61202   0.42597   0.00000  Uiso   1.00
O265   O     0.12974   0.65738   0.46896   0.00000  Uiso   1.00
N266   N     0.21224   0.38309   0.04539   0.00000  Uiso   1.00
O267   O     0.24259   0.38798   0.07403   0.00000  Uiso   1.00
O268   O     0.20357   0.34262   0.03104   0.00000  Uiso   1.00
N269   N     0.04356   0.45263   0.18166   0.00000  Uiso   1.00
O270   O     0.03712   0.40990   0.17373   0.00000  Uiso   1.00
O271   O     0.06950   0.47506   0.15673   0.00000  Uiso   1.00
N272   N     0.28978   0.54738   0.31833   0.00000  Uiso   1.00
O273   O     0.29627   0.59010   0.32631   0.00000  Uiso   1.00
O274   O     0.26382   0.52496   0.34326   0.00000  Uiso   1.00
N275   N     0.28873   0.45204   0.18297   0.00000  Uiso   1.00
O276   O     0.27006   0.47559   0.15193   0.00000  Uiso   1.00
O277   O     0.28279   0.40850   0.18525   0.00000  Uiso   1.00
N278   N     0.04460   0.54796   0.31702   0.00000  Uiso   1.00
O279   O     0.06318   0.52442   0.34812   0.00000  Uiso   1.00
O280   O     0.05065   0.59149   0.31468   0.00000  Uiso   1.00
O281   O     0.43892   0.53821   0.24999   0.00000  Uiso   1.00
O282   O     0.56108   0.46179   0.25000   0.00000  Uiso   1.00
O283   O     0.56108   0.53821   0.25000   0.00000  Uiso   1.00
O284   O     0.43892   0.46179   0.24999   0.00000  Uiso   1.00
C285   C     0.42010   0.50010   0.24977   0.00000  Uiso   1.00
C286   C     0.57990   0.49990   0.25023   0.00000  Uiso   1.00
O287   O     0.49999   0.53823   0.18392   0.00000  Uiso   1.00
O288   O     0.50001   0.46177   0.31607   0.00000  Uiso   1.00
O289   O     0.50001   0.53823   0.31607   0.00000  Uiso   1.00
O290   O     0.49999   0.46177   0.18392   0.00000  Uiso   1.00
C291   C     0.50023   0.50008   0.16332   0.00000  Uiso   1.00
C292   C     0.49977   0.49992   0.33668   0.00000  Uiso   1.00
Zn293  Zn    0.50000   0.55104   0.25000   0.00000  Uiso   1.00
Zn294  Zn    0.50000   0.44896   0.25000   0.00000  Uiso   1.00
C295   C     0.51119   0.46073   0.40759   0.00000  Uiso   1.00
C296   C     0.48880   0.53927   0.09241   0.00000  Uiso   1.00
C297   C     0.49910   0.49975   0.38457   0.00000  Uiso   1.00
C298   C     0.50090   0.50025   0.11543   0.00000  Uiso   1.00
C299   C     0.48650   0.53873   0.40710   0.00000  Uiso   1.00
C300   C     0.51349   0.46127   0.09290   0.00000  Uiso   1.00
C301   C     0.48529   0.53911   0.45342   0.00000  Uiso   1.00
C302   C     0.51469   0.46089   0.04658   0.00000  Uiso   1.00
C303   C     0.49925   0.49996   0.47679   0.00000  Uiso   1.00
C304   C     0.50073   0.50003   0.02321   0.00000  Uiso   1.00
C305   C     0.51188   0.46071   0.45366   0.00000  Uiso   1.00
C306   C     0.48810   0.53929   0.04634   0.00000  Uiso   1.00
C307   C     0.47174   0.57788   0.47694   0.00000  Uiso   1.00
C308   C     0.52824   0.42211   0.02305   0.00000  Uiso   1.00
C309   C     0.47408   0.57775   0.02335   0.00000  Uiso   1.00
C310   C     0.52591   0.42225   0.47665   0.00000  Uiso   1.00
H311   H     0.52117   0.43074   0.38963   0.00000  Uiso   1.00
H312   H     0.47883   0.56926   0.11037   0.00000  Uiso   1.00
H313   H     0.47802   0.56867   0.38817   0.00000  Uiso   1.00
H314   H     0.52197   0.43132   0.11183   0.00000  Uiso   1.00
H315   H     0.46374   0.60737   0.04161   0.00000  Uiso   1.00
H316   H     0.53625   0.39263   0.45839   0.00000  Uiso   1.00
C317   C     0.35474   0.47523   0.21683   0.00000  Uiso   1.00
C318   C     0.64526   0.52477   0.28317   0.00000  Uiso   1.00
C319   C     0.64486   0.47469   0.21761   0.00000  Uiso   1.00
C320   C     0.35514   0.52531   0.28239   0.00000  Uiso   1.00
C321   C     0.62404   0.49956   0.25058   0.00000  Uiso   1.00
C322   C     0.37596   0.50044   0.24942   0.00000  Uiso   1.00
C323   C     0.52449   0.35712   0.27936   0.00000  Uiso   1.00
C324   C     0.47551   0.64288   0.22064   0.00000  Uiso   1.00
C325   C     0.47552   0.35753   0.22064   0.00000  Uiso   1.00
C326   C     0.52448   0.64247   0.27936   0.00000  Uiso   1.00
H327   H     0.54406   0.37515   0.30282   0.00000  Uiso   1.00
H328   H     0.45594   0.62485   0.19718   0.00000  Uiso   1.00
H329   H     0.45597   0.37589   0.19716   0.00000  Uiso   1.00
H330   H     0.54403   0.62411   0.30284   0.00000  Uiso   1.00
N331   N     0.50000   0.61907   0.25000   0.00000  Uiso   1.00
N332   N     0.50000   0.38093   0.25000   0.00000  Uiso   1.00
N333   N     0.45441   0.61691   0.45461   0.00000  Uiso   1.00
O334   O     0.42406   0.61202   0.42597   0.00000  Uiso   1.00
O335   O     0.46308   0.65738   0.46896   0.00000  Uiso   1.00
N336   N     0.54558   0.38309   0.04539   0.00000  Uiso   1.00
O337   O     0.57592   0.38798   0.07403   0.00000  Uiso   1.00
O338   O     0.53691   0.34262   0.03104   0.00000  Uiso   1.00
N339   N     0.37689   0.45263   0.18166   0.00000  Uiso   1.00
O340   O     0.37045   0.40990   0.17373   0.00000  Uiso   1.00
O341   O     0.40283   0.47506   0.15673   0.00000  Uiso   1.00
N342   N     0.62311   0.54738   0.31833   0.00000  Uiso   1.00
O343   O     0.62960   0.59010   0.32631   0.00000  Uiso   1.00
O344   O     0.59715   0.52496   0.34326   0.00000  Uiso   1.00
N345   N     0.62206   0.45204   0.18297   0.00000  Uiso   1.00
O346   O     0.60340   0.47559   0.15193   0.00000  Uiso   1.00
O347   O     0.61612   0.40850   0.18525   0.00000  Uiso   1.00
N348   N     0.37794   0.54796   0.31702   0.00000  Uiso   1.00
O349   O     0.39652   0.52442   0.34812   0.00000  Uiso   1.00
O350   O     0.38398   0.59149   0.31468   0.00000  Uiso   1.00
O351   O     0.77226   0.53821   0.24999   0.00000  Uiso   1.00
O352   O     0.89441   0.46179   0.25000   0.00000  Uiso   1.00
O353   O     0.89441   0.53821   0.25000   0.00000  Uiso   1.00
O354   O     0.77226   0.46179   0.24999   0.00000  Uiso   1.00
C355   C     0.75343   0.50010   0.24977   0.00000  Uiso   1.00
C356   C     0.91323   0.49990   0.25023   0.00000  Uiso   1.00
O357   O     0.83333   0.53823   0.18392   0.00000  Uiso   1.00
O358   O     0.83334   0.46177   0.31607   0.00000  Uiso   1.00
O359   O     0.83334   0.53823   0.31607   0.00000  Uiso   1.00
O360   O     0.83333   0.46177   0.18392   0.00000  Uiso   1.00
C361   C     0.83356   0.50008   0.16332   0.00000  Uiso   1.00
C362   C     0.83310   0.49992   0.33668   0.00000  Uiso   1.00
Zn363  Zn    0.83333   0.55104   0.25000   0.00000  Uiso   1.00
Zn364  Zn    0.83333   0.44896   0.25000   0.00000  Uiso   1.00
C365   C     0.84453   0.46073   0.40759   0.00000  Uiso   1.00
C366   C     0.82213   0.53927   0.09241   0.00000  Uiso   1.00
C367   C     0.83243   0.49975   0.38457   0.00000  Uiso   1.00
C368   C     0.83423   0.50025   0.11543   0.00000  Uiso   1.00
C369   C     0.81983   0.53873   0.40710   0.00000  Uiso   1.00
C370   C     0.84682   0.46127   0.09290   0.00000  Uiso   1.00
C371   C     0.81863   0.53911   0.45342   0.00000  Uiso   1.00
C372   C     0.84803   0.46089   0.04658   0.00000  Uiso   1.00
C373   C     0.83259   0.49996   0.47679   0.00000  Uiso   1.00
C374   C     0.83407   0.50003   0.02321   0.00000  Uiso   1.00
C375   C     0.84522   0.46071   0.45366   0.00000  Uiso   1.00
C376   C     0.82144   0.53929   0.04634   0.00000  Uiso   1.00
C377   C     0.80508   0.57788   0.47694   0.00000  Uiso   1.00
C378   C     0.86157   0.42211   0.02305   0.00000  Uiso   1.00
C379   C     0.80741   0.57775   0.02335   0.00000  Uiso   1.00
C380   C     0.85924   0.42225   0.47665   0.00000  Uiso   1.00
H381   H     0.85450   0.43074   0.38963   0.00000  Uiso   1.00
H382   H     0.81216   0.56926   0.11037   0.00000  Uiso   1.00
H383   H     0.81136   0.56867   0.38817   0.00000  Uiso   1.00
H384   H     0.85530   0.43132   0.11183   0.00000  Uiso   1.00
H385   H     0.79707   0.60737   0.04161   0.00000  Uiso   1.00
H386   H     0.86958   0.39263   0.45839   0.00000  Uiso   1.00
C387   C     0.68808   0.47523   0.21683   0.00000  Uiso   1.00
C388   C     0.97859   0.52477   0.28317   0.00000  Uiso   1.00
C389   C     0.97819   0.47469   0.21761   0.00000  Uiso   1.00
C390   C     0.68847   0.52531   0.28239   0.00000  Uiso   1.00
C391   C     0.95737   0.49956   0.25058   0.00000  Uiso   1.00
C392   C     0.70930   0.50044   0.24942   0.00000  Uiso   1.00
C393   C     0.85782   0.35712   0.27936   0.00000  Uiso   1.00
C394   C     0.80885   0.64288   0.22064   0.00000  Uiso   1.00
C395   C     0.80885   0.35753   0.22064   0.00000  Uiso   1.00
C396   C     0.85781   0.64247   0.27936   0.00000  Uiso   1.00
H397   H     0.87739   0.37515   0.30282   0.00000  Uiso   1.00
H398   H     0.78927   0.62485   0.19718   0.00000  Uiso   1.00
H399   H     0.78930   0.37589   0.19716   0.00000  Uiso   1.00
H400   H     0.87736   0.62411   0.30284   0.00000  Uiso   1.00
N401   N     0.83333   0.61907   0.25000   0.00000  Uiso   1.00
N402   N     0.83333   0.38093   0.25000   0.00000  Uiso   1.00
N403   N     0.78774   0.61691   0.45461   0.00000  Uiso   1.00
O404   O     0.75740   0.61202   0.42597   0.00000  Uiso   1.00
O405   O     0.79641   0.65738   0.46896   0.00000  Uiso   1.00
N406   N     0.87891   0.38309   0.04539   0.00000  Uiso   1.00
O407   O     0.90926   0.38798   0.07403   0.00000  Uiso   1.00
O408   O     0.87024   0.34262   0.03104   0.00000  Uiso   1.00
N409   N     0.71023   0.45263   0.18166   0.00000  Uiso   1.00
O410   O     0.70378   0.40990   0.17373   0.00000  Uiso   1.00
O411   O     0.73617   0.47506   0.15673   0.00000  Uiso   1.00
N412   N     0.95644   0.54738   0.31833   0.00000  Uiso   1.00
O413   O     0.96294   0.59010   0.32631   0.00000  Uiso   1.00
O414   O     0.93049   0.52496   0.34326   0.00000  Uiso   1.00
N415   N     0.95540   0.45204   0.18297   0.00000  Uiso   1.00
O416   O     0.93673   0.47559   0.15193   0.00000  Uiso   1.00
O417   O     0.94945   0.40850   0.18525   0.00000  Uiso   1.00
N418   N     0.71127   0.54796   0.31702   0.00000  Uiso   1.00
O419   O     0.72985   0.52442   0.34812   0.00000  Uiso   1.00
O420   O     0.71731   0.59149   0.31468   0.00000  Uiso   1.00
O421   O     0.10559   0.87154   0.24999   0.00000  Uiso   1.00
O422   O     0.22774   0.79513   0.25000   0.00000  Uiso   1.00
O423   O     0.22774   0.87154   0.25000   0.00000  Uiso   1.00
O424   O     0.10559   0.79513   0.24999   0.00000  Uiso   1.00
C425   C     0.08677   0.83344   0.24977   0.00000  Uiso   1.00
C426   C     0.24657   0.83323   0.25023   0.00000  Uiso   1.00
O427   O     0.16666   0.87156   0.18392   0.00000  Uiso   1.00
O428   O     0.16667   0.79511   0.31607   0.00000  Uiso   1.00
O429   O     0.16667   0.87156   0.31607   0.00000  Uiso   1.00
O430   O     0.16666   0.79511   0.18392   0.00000  Uiso   1.00
C431   C     0.16689   0.83341   0.16332   0.00000  Uiso   1.00
C432   C     0.16644   0.83326   0.33668   0.00000  Uiso   1.00
Zn433  Zn    0.16667   0.88437   0.25000   0.00000  Uiso   1.00
Zn434  Zn    0.16667   0.78229   0.25000   0.00000  Uiso   1.00
C435   C     0.17786   0.79406   0.40759   0.00000  Uiso   1.00
C436   C     0.15546   0.87261   0.09241   0.00000  Uiso   1.00
C437   C     0.16576   0.83309   0.38457   0.00000  Uiso   1.00
C438   C     0.16756   0.83358   0.11543   0.00000  Uiso   1.00
C439   C     0.15316   0.87206   0.40710   0.00000  Uiso   1.00
C440   C     0.18016   0.79460   0.09290   0.00000  Uiso   1.00
C441   C     0.15196   0.87244   0.45342   0.00000  Uiso   1.00
C442   C     0.18136   0.79422   0.04658   0.00000  Uiso   1.00
C443   C     0.16592   0.83330   0.47679   0.00000  Uiso   1.00
C444   C     0.16740   0.83337   0.02321   0.00000  Uiso   1.00
C445   C     0.17855   0.79404   0.45366   0.00000  Uiso   1.00
C446   C     0.15477   0.87262   0.04634   0.00000  Uiso   1.00
C447   C     0.13841   0.91122   0.47694   0.00000  Uiso   1.00
C448   C     0.19491   0.75545   0.02305   0.00000  Uiso   1.00
C449   C     0.14075   0.91108   0.02335   0.00000  Uiso   1.00
C450   C     0.19257   0.75558   0.47665   0.00000  Uiso   1.00
H451   H     0.18783   0.76407   0.38963   0.00000  Uiso   1.00
H452   H     0.14549   0.90259   0.11037   0.00000  Uiso   1.00
H453   H     0.14469   0.90201   0.38817   0.00000  Uiso   1.00
H454   H     0.18863   0.76466   0.11183   0.00000  Uiso   1.00
H455   H     0.13040   0.94070   0.04161   0.00000  Uiso   1.00
H456   H     0.20292   0.72597   0.45839   0.00000  Uiso   1.00
C457   C     0.02141   0.80857   0.21683   0.00000  Uiso   1.00
C458   C     0.31192   0.85810   0.28317   0.00000  Uiso   1.00
C459   C     0.31153   0.80802   0.21761   0.00000  Uiso   1.00
C460   C     0.02181   0.85865   0.28239   0.00000  Uiso   1.00
C461   C     0.29070   0.83290   0.25058   0.00000  Uiso   1.00
C462   C     0.04263   0.83377   0.24942   0.00000  Uiso   1.00
C463   C     0.19115   0.69045   0.27936   0.00000  Uiso   1.00
C464   C     0.14218   0.97621   0.22064   0.00000  Uiso   1.00
C465   C     0.14219   0.69086   0.22064   0.00000  Uiso   1.00
C466   C     0.19115   0.97580   0.27936   0.00000  Uiso   1.00
H467   H     0.21073   0.70849   0.30282   0.00000  Uiso   1.00
H468   H     0.12261   0.95818   0.19718   0.00000  Uiso   1.00
H469   H     0.12264   0.70922   0.19716   0.00000  Uiso   1.00
H470   H     0.21070   0.95744   0.30284   0.00000  Uiso   1.00
N471   N     0.16667   0.95240   0.25000   0.00000  Uiso   1.00
N472   N     0.16667   0.71427   0.25000   0.00000  Uiso   1.00
N473   N     0.12108   0.95024   0.45461   0.00000  Uiso   1.00
O474   O     0.09073   0.94535   0.42597   0.00000  Uiso   1.00
O475   O     0.12974   0.99072   0.46896   0.00000  Uiso   1.00
N476   N     0.21224   0.71642   0.04539   0.00000  Uiso   1.00
O477   O     0.24259   0.72131   0.07403   0.00000  Uiso   1.00
O478   O     0.20357   0.67595   0.03104   0.00000  Uiso   1.00
N479   N     0.04356   0.78596   0.18166   0.00000  Uiso   1.00
O480   O     0.03712   0.74323   0.17373   0.00000  Uiso   1.00
O481   O     0.06950   0.80839   0.15673   0.00000  Uiso   1.00
N482   N     0.28978   0.88071   0.31833   0.00000  Uiso   1.00
O483   O     0.29627   0.92343   0.32631   0.00000  Uiso   1.00
O484   O     0.26382   0.85829   0.34326   0.00000  Uiso   1.00
N485   N     0.28873   0.78537   0.18297   0.00000  Uiso   1.00
O486   O     0.27006   0.80892   0.15193   0.00000  Uiso   1.00
O487   O     0.28279   0.74183   0.18525   0.00000  Uiso   1.00
N488   N     0.04460   0.88130   0.31702   0.00000  Uiso   1.00
O489   O     0.06318   0.85775   0.34812   0.00000  Uiso   1.00
O490   O     0.05065   0.92482   0.31468   0.00000  Uiso   1.00
O491   O     0.43892   0.87154   0.24999   0.00000  Uiso   1.00
O492   O     0.56108   0.79513   0.25000   0.00000  Uiso   1.00
O493   O     0.56108   0.87154   0.25000   0.00000  Uiso   1.00
O494   O     0.43892   0.79513   0.24999   0.00000  Uiso   1.00
C495   C     0.42010   0.83344   0.24977   0.00000  Uiso   1.00
C496   C     0.57990   0.83323   0.25023   0.00000  Uiso   1.00
O497   O     0.49999   0.87156   0.18392   0.00000  Uiso   1.00
O498   O     0.50001   0.79511   0.31607   0.00000  Uiso   1.00
O499   O     0.50001   0.87156   0.31607   0.00000  Uiso   1.00
O500   O     0.49999   0.79511   0.18392   0.00000  Uiso   1.00
C501   C     0.50023   0.83341   0.16332   0.00000  Uiso   1.00
C502   C     0.49977   0.83326   0.33668   0.00000  Uiso   1.00
Zn503  Zn    0.50000   0.88437   0.25000   0.00000  Uiso   1.00
Zn504  Zn    0.50000   0.78229   0.25000   0.00000  Uiso   1.00
C505   C     0.51119   0.79406   0.40759   0.00000  Uiso   1.00
C506   C     0.48880   0.87261   0.09241   0.00000  Uiso   1.00
C507   C     0.49910   0.83309   0.38457   0.00000  Uiso   1.00
C508   C     0.50090   0.83358   0.11543   0.00000  Uiso   1.00
C509   C     0.48650   0.87206   0.40710   0.00000  Uiso   1.00
C510   C     0.51349   0.79460   0.09290   0.00000  Uiso   1.00
C511   C     0.48529   0.87244   0.45342   0.00000  Uiso   1.00
C512   C     0.51469   0.79422   0.04658   0.00000  Uiso   1.00
C513   C     0.49925   0.83330   0.47679   0.00000  Uiso   1.00
C514   C     0.50073   0.83337   0.02321   0.00000  Uiso   1.00
C515   C     0.51188   0.79404   0.45366   0.00000  Uiso   1.00
C516   C     0.48810   0.87262   0.04634   0.00000  Uiso   1.00
C517   C     0.47174   0.91122   0.47694   0.00000  Uiso   1.00
C518   C     0.52824   0.75545   0.02305   0.00000  Uiso   1.00
C519   C     0.47408   0.91108   0.02335   0.00000  Uiso   1.00
C520   C     0.52591   0.75558   0.47665   0.00000  Uiso   1.00
H521   H     0.52117   0.76407   0.38963   0.00000  Uiso   1.00
H522   H     0.47883   0.90259   0.11037   0.00000  Uiso   1.00
H523   H     0.47802   0.90201   0.38817   0.00000  Uiso   1.00
H524   H     0.52197   0.76466   0.11183   0.00000  Uiso   1.00
H525   H     0.46374   0.94070   0.04161   0.00000  Uiso   1.00
H526   H     0.53625   0.72597   0.45839   0.00000  Uiso   1.00
C527   C     0.35474   0.80857   0.21683   0.00000  Uiso   1.00
C528   C     0.64526   0.85810   0.28317   0.00000  Uiso   1.00
C529   C     0.64486   0.80802   0.21761   0.00000  Uiso   1.00
C530   C     0.35514   0.85865   0.28239   0.00000  Uiso   1.00
C531   C     0.62404   0.83290   0.25058   0.00000  Uiso   1.00
C532   C     0.37596   0.83377   0.24942   0.00000  Uiso   1.00
C533   C     0.52449   0.69045   0.27936   0.00000  Uiso   1.00
C534   C     0.47551   0.97621   0.22064   0.00000  Uiso   1.00
C535   C     0.47552   0.69086   0.22064   0.00000  Uiso   1.00
C536   C     0.52448   0.97580   0.27936   0.00000  Uiso   1.00
H537   H     0.54406   0.70849   0.30282   0.00000  Uiso   1.00
H538   H     0.45594   0.95818   0.19718   0.00000  Uiso   1.00
H539   H     0.45597   0.70922   0.19716   0.00000  Uiso   1.00
H540   H     0.54403   0.95744   0.30284   0.00000  Uiso   1.00
N541   N     0.50000   0.95240   0.25000   0.00000  Uiso   1.00
N542   N     0.50000   0.71427   0.25000   0.00000  Uiso   1.00
N543   N     0.45441   0.95024   0.45461   0.00000  Uiso   1.00
O544   O     0.42406   0.94535   0.42597   0.00000  Uiso   1.00
O545   O     0.46308   0.99072   0.46896   0.00000  Uiso   1.00
N546   N     0.54558   0.71642   0.04539   0.00000  Uiso   1.00
O547   O     0.57592   0.72131   0.07403   0.00000  Uiso   1.00
O548   O     0.53691   0.67595   0.03104   0.00000  Uiso   1.00
N549   N     0.37689   0.78596   0.18166   0.00000  Uiso   1.00
O550   O     0.37045   0.74323   0.17373   0.00000  Uiso   1.00
O551   O     0.40283   0.80839   0.15673   0.00000  Uiso   1.00
N552   N     0.62311   0.88071   0.31833   0.00000  Uiso   1.00
O553   O     0.62960   0.92343   0.32631   0.00000  Uiso   1.00
O554   O     0.59715   0.85829   0.34326   0.00000  Uiso   1.00
N555   N     0.62206   0.78537   0.18297   0.00000  Uiso   1.00
O556   O     0.60340   0.80892   0.15193   0.00000  Uiso   1.00
O557   O     0.61612   0.74183   0.18525   0.00000  Uiso   1.00
N558   N     0.37794   0.88130   0.31702   0.00000  Uiso   1.00
O559   O     0.39652   0.85775   0.34812   0.00000  Uiso   1.00
O560   O     0.38398   0.92482   0.31468   0.00000  Uiso   1.00
O561   O     0.77226   0.87154   0.24999   0.00000  Uiso   1.00
O562   O     0.89441   0.79513   0.25000   0.00000  Uiso   1.00
O563   O     0.89441   0.87154   0.25000   0.00000  Uiso   1.00
O564   O     0.77226   0.79513   0.24999   0.00000  Uiso   1.00
C565   C     0.75343   0.83344   0.24977   0.00000  Uiso   1.00
C566   C     0.91323   0.83323   0.25023   0.00000  Uiso   1.00
O567   O     0.83333   0.87156   0.18392   0.00000  Uiso   1.00
O568   O     0.83334   0.79511   0.31607   0.00000  Uiso   1.00
O569   O     0.83334   0.87156   0.31607   0.00000  Uiso   1.00
O570   O     0.83333   0.79511   0.18392   0.00000  Uiso   1.00
C571   C     0.83356   0.83341   0.16332   0.00000  Uiso   1.00
C572   C     0.83310   0.83326   0.33668   0.00000  Uiso   1.00
Zn573  Zn    0.83333   0.88437   0.25000   0.00000  Uiso   1.00
Zn574  Zn    0.83333   0.78229   0.25000   0.00000  Uiso   1.00
C575   C     0.84453   0.79406   0.40759   0.00000  Uiso   1.00
C576   C     0.82213   0.87261   0.09241   0.00000  Uiso   1.00
C577   C     0.83243   0.83309   0.38457   0.00000  Uiso   1.00
C578   C     0.83423   0.83358   0.11543   0.00000  Uiso   1.00
C579   C     0.81983   0.87206   0.40710   0.00000  Uiso   1.00
C580   C     0.84682   0.79460   0.09290   0.00000  Uiso   1.00
C581   C     0.81863   0.87244   0.45342   0.00000  Uiso   1.00
C582   C     0.84803   0.79422   0.04658   0.00000  Uiso   1.00
C583   C     0.83259   0.83330   0.47679   0.00000  Uiso   1.00
C584   C     0.83407   0.83337   0.02321   0.00000  Uiso   1.00
C585   C     0.84522   0.79404   0.45366   0.00000  Uiso   1.00
C586   C     0.82144   0.87262   0.04634   0.00000  Uiso   1.00
C587   C     0.80508   0.91122   0.47694   0.00000  Uiso   1.00
C588   C     0.86157   0.75545   0.02305   0.00000  Uiso   1.00
C589   C     0.80741   0.91108   0.02335   0.00000  Uiso   1.00
C590   C     0.85924   0.75558   0.47665   0.00000  Uiso   1.00
H591   H     0.85450   0.76407   0.38963   0.00000  Uiso   1.00
H592   H     0.81216   0.90259   0.11037   0.00000  Uiso   1.00
H593   H     0.81136   0.90201   0.38817   0.00000  Uiso   1.00
H594   H     0.85530   0.76466   0.11183   0.00000  Uiso   1.00
H595   H     0.79707   0.94070   0.04161   0.00000  Uiso   1.00
H596   H     0.86958   0.72597   0.45839   0.00000  Uiso   1.00
C597   C     0.68808   0.80857   0.21683   0.00000  Uiso   1.00
C598   C     0.97859   0.85810   0.28317   0.00000  Uiso   1.00
C599   C     0.97819   0.80802   0.21761   0.00000  Uiso   1.00
C600   C     0.68847   0.85865   0.28239   0.00000  Uiso   1.00
C601   C     0.95737   0.83290   0.25058   0.00000  Uiso   1.00
C602   C     0.70930   0.83377   0.24942   0.00000  Uiso   1.00
C603   C     0.85782   0.69045   0.27936   0.00000  Uiso   1.00
C604   C     0.80885   0.97621   0.22064   0.00000  Uiso   1.00
C605   C     0.80885   0.69086   0.22064   0.00000  Uiso   1.00
C606   C     0.85781   0.97580   0.27936   0.00000  Uiso   1.00
H607   H     0.87739   0.70849   0.30282   0.00000  Uiso   1.00
H608   H     0.78927   0.95818   0.19718   0.00000  Uiso   1.00
H609   H     0.78930   0.70922   0.19716   0.00000  Uiso   1.00
H610   H     0.87736   0.95744   0.30284   0.00000  Uiso   1.00
N611   N     0.83333   0.95240   0.25000   0.00000  Uiso   1.00
N612   N     0.83333   0.71427   0.25000   0.00000  Uiso   1.00
N613   N     0.78774   0.95024   0.45461   0.00000  Uiso   1.00
O614   O     0.75740   0.94535   0.42597   0.00000  Uiso   1.00
O615   O     0.79641   0.99072   0.46896   0.00000  Uiso   1.00
N616   N     0.87891   0.71642   0.04539   0.00000  Uiso   1.00
O617   O     0.90926   0.72131   0.07403   0.00000  Uiso   1.00
O618   O     0.87024   0.67595   0.03104   0.00000  Uiso   1.00
N619   N     0.71023   0.78596   0.18166   0.00000  Uiso   1.00
O620   O     0.70378   0.74323   0.17373   0.00000  Uiso   1.00
O621   O     0.73617   0.80839   0.15673   0.00000  Uiso   1.00
N622   N     0.95644   0.88071   0.31833   0.00000  Uiso   1.00
O623   O     0.96294   0.92343   0.32631   0.00000  Uiso   1.00
O624   O     0.93049   0.85829   0.34326   0.00000  Uiso   1.00
N625   N     0.95540   0.78537   0.18297   0.00000  Uiso   1.00
O626   O     0.93673   0.80892   0.15193   0.00000  Uiso   1.00
O627   O     0.94945   0.74183   0.18525   0.00000  Uiso   1.00
N628   N     0.71127   0.88130   0.31702   0.00000  Uiso   1.00
O629   O     0.72985   0.85775   0.34812   0.00000  Uiso   1.00
O630   O     0.71731   0.92482   0.31468   0.00000  Uiso   1.00
O631   O     0.10559   0.20487   0.74999   0.00000  Uiso   1.00
O632   O     0.22774   0.12846   0.75000   0.00000  Uiso   1.00
O633   O     0.22774   0.20487   0.75000   0.00000  Uiso   1.00
O634   O     0.10559   0.12846   0.74999   0.00000  Uiso   1.00
C635   C     0.08677   0.16677   0.74977   0.00000  Uiso   1.00
C636   C     0.24657   0.16656   0.75023   0.00000  Uiso   1.00
O637   O     0.16666   0.20489   0.68392   0.00000  Uiso   1.00
O638   O     0.16667   0.12844   0.81607   0.00000  Uiso   1.00
O639   O     0.16667   0.20489   0.81607   0.00000  Uiso   1.00
O640   O     0.16666   0.12844   0.68392   0.00000  Uiso   1.00
C641   C     0.16689   0.16674   0.66332   0.00000  Uiso   1.00
C642   C     0.16644   0.16659   0.83668   0.00000  Uiso   1.00
Zn643  Zn    0.16667   0.21771   0.75000   0.00000  Uiso   1.00
Zn644  Zn    0.16667   0.11563   0.75000   0.00000  Uiso   1.00
C645   C     0.17786   0.12739   0.90759   0.00000  Uiso   1.00
C646   C     0.15546   0.20594   0.59241   0.00000  Uiso   1.00
C647   C     0.16576   0.16642   0.88457   0.00000  Uiso   1.00
C648   C     0.16756   0.16691   0.61543   0.00000  Uiso   1.00
C649   C     0.15316   0.20540   0.90710   0.00000  Uiso   1.00
C650   C     0.18016   0.12794   0.59290   0.00000  Uiso   1.00
C651   C     0.15196   0.20577   0.95342   0.00000  Uiso   1.00
C652   C     0.18136   0.12756   0.54658   0.00000  Uiso   1.00
C653   C     0.16592   0.16663   0.97679   0.00000  Uiso   1.00
C654   C     0.16740   0.16670   0.52321   0.00000  Uiso   1.00
C655   C     0.17855   0.12738   0.95366   0.00000  Uiso   1.00
C656   C     0.15477   0.20596   0.54634   0.00000  Uiso   1.00
C657   C     0.13841   0.24455   0.97694   0.00000  Uiso   1.00
C658   C     0.19491   0.08878   0.52305   0.00000  Uiso   1.00
C659   C     0.14075   0.24441   0.52335   0.00000  Uiso   1.00
C660   C     0.19257   0.08892   0.97665   0.00000  Uiso   1.00
H661   H     0.18783   0.09741   0.88963   0.00000  Uiso   1.00
H662   H     0.14549   0.23592   0.61037   0.00000  Uiso   1.00
H663   H     0.14469   0.23534   0.88817   0.00000  Uiso   1.00
H664   H     0.18863   0.09799   0.61183   0.00000  Uiso   1.00
H665   H     0.13040   0.27403   0.54161   0.00000  Uiso   1.00
H666   H     0.20292   0.05930   0.95839   0.00000  Uiso   1.00
C667   C     0.02141   0.14190   0.71683   0.00000  Uiso   1.00
C668   C     0.31192   0.19143   0.78317   0.00000  Uiso   1.00
C669   C     0.31153   0.14135   0.71761   0.00000  Uiso   1.00
C670   C     0.02181   0.19198   0.78239   0.00000  Uiso   1.00
C671   C     0.29070   0.16623   0.75058   0.00000  Uiso   1.00
C672   C     0.04263   0.16711   0.74942   0.00000  Uiso   1.00
C673   C     0.19115   0.02379   0.77936   0.00000  Uiso   1.00
C674   C     0.14218   0.30955   0.72064   0.00000  Uiso   1.00
C675   C     0.14219   0.02420   0.72064   0.00000  Uiso   1.00
C676   C     0.19115   0.30914   0.77936   0.00000  Uiso   1.00
H677   H     0.21073   0.04182   0.80282   0.00000  Uiso   1.00
H678   H     0.12261   0.29151   0.69718   0.00000  Uiso   1.00
H679   H     0.12264   0.04256   0.69716   0.00000  Uiso   1.00
H680   H     0.21070   0.29078   0.80284   0.00000  Uiso   1.00
N681   N     0.16667   0.28573   0.75000   0.00000  Uiso   1.00
N682   N     0.16667   0.04760   0.75000   0.00000  Uiso   1.00
N683   N     0.12108   0.28357   0.95461   0.00000  Uiso   1.00
O684   O     0.09073   0.27868   0.92597   0.00000  Uiso   1.00
O685   O     0.12974   0.32405   0.96896   0.00000  Uiso   1.00
N686   N     0.21224   0.04976   0.54539   0.00000  Uiso   1.00
O687   O     0.24259   0.05465   0.57403   0.00000  Uiso   1.00
O688   O     0.20357   0.00928   0.53104   0.00000  Uiso   1.00
N689   N     0.04356   0.11929   0.68166   0.00000  Uiso   1.00
O690   O     0.03712   0.07656   0.67373   0.00000  Uiso   1.00
O691   O     0.06950   0.14173   0.65673   0.00000  Uiso   1.00
N692   N     0.28978   0.21405   0.81833   0.00000  Uiso   1.00
O693   O     0.29627   0.25677   0.82631   0.00000  Uiso   1.00
O694   O     0.26382   0.19162   0.84326   0.00000  Uiso   1.00
N695   N     0.28873   0.11871   0.68297   0.00000  Uiso   1.00
O696   O     0.27006   0.14226   0.65193   0.00000  Uiso   1.00
O697   O     0.28279   0.07517   0.68525   0.00000  Uiso   1.00
N698   N     0.04460   0.21463   0.81702   0.00000  Uiso   1.00
O699   O     0.06318   0.19109   0.84812   0.00000  Uiso   1.00
O700   O     0.05065   0.25815   0.81468   0.00000  Uiso   1.00
O701   O     0.43892   0.20487   0.74999   0.00000  Uiso   1.00
O702   O     0.56108   0.12846   0.75000   0.00000  Uiso   1.00
O703   O     0.56108   0.20487   0.75000   0.00000  Uiso   1.00
O704   O     0.43892   0.12846   0.74999   0.00000  Uiso   1.00
C705   C     0.42010   0.16677   0.74977   0.00000  Uiso   1.00
C706   C     0.57990   0.16656   0.75023   0.00000  Uiso   1.00
O707   O     0.49999   0.20489   0.68392   0.00000  Uiso   1.00
O708   O     0.50001   0.12844   0.81607   0.00000  Uiso   1.00
O709   O     0.50001   0.20489   0.81607   0.00000  Uiso   1.00
O710   O     0.49999   0.12844   0.68392   0.00000  Uiso   1.00
C711   C     0.50023   0.16674   0.66332   0.00000  Uiso   1.00
C712   C     0.49977   0.16659   0.83668   0.00000  Uiso   1.00
Zn713  Zn    0.50000   0.21771   0.75000   0.00000  Uiso   1.00
Zn714  Zn    0.50000   0.11563   0.75000   0.00000  Uiso   1.00
C715   C     0.51119   0.12739   0.90759   0.00000  Uiso   1.00
C716   C     0.48880   0.20594   0.59241   0.00000  Uiso   1.00
C717   C     0.49910   0.16642   0.88457   0.00000  Uiso   1.00
C718   C     0.50090   0.16691   0.61543   0.00000  Uiso   1.00
C719   C     0.48650   0.20540   0.90710   0.00000  Uiso   1.00
C720   C     0.51349   0.12794   0.59290   0.00000  Uiso   1.00
C721   C     0.48529   0.20577   0.95342   0.00000  Uiso   1.00
C722   C     0.51469   0.12756   0.54658   0.00000  Uiso   1.00
C723   C     0.49925   0.16663   0.97679   0.00000  Uiso   1.00
C724   C     0.50073   0.16670   0.52321   0.00000  Uiso   1.00
C725   C     0.51188   0.12738   0.95366   0.00000  Uiso   1.00
C726   C     0.48810   0.20596   0.54634   0.00000  Uiso   1.00
C727   C     0.47174   0.24455   0.97694   0.00000  Uiso   1.00
C728   C     0.52824   0.08878   0.52305   0.00000  Uiso   1.00
C729   C     0.47408   0.24441   0.52335   0.00000  Uiso   1.00
C730   C     0.52591   0.08892   0.97665   0.00000  Uiso   1.00
H731   H     0.52117   0.09741   0.88963   0.00000  Uiso   1.00
H732   H     0.47883   0.23592   0.61037   0.00000  Uiso   1.00
H733   H     0.47802   0.23534   0.88817   0.00000  Uiso   1.00
H734   H     0.52197   0.09799   0.61183   0.00000  Uiso   1.00
H735   H     0.46374   0.27403   0.54161   0.00000  Uiso   1.00
H736   H     0.53625   0.05930   0.95839   0.00000  Uiso   1.00
C737   C     0.35474   0.14190   0.71683   0.00000  Uiso   1.00
C738   C     0.64526   0.19143   0.78317   0.00000  Uiso   1.00
C739   C     0.64486   0.14135   0.71761   0.00000  Uiso   1.00
C740   C     0.35514   0.19198   0.78239   0.00000  Uiso   1.00
C741   C     0.62404   0.16623   0.75058   0.00000  Uiso   1.00
C742   C     0.37596   0.16711   0.74942   0.00000  Uiso   1.00
C743   C     0.52449   0.02379   0.77936   0.00000  Uiso   1.00
C744   C     0.47551   0.30955   0.72064   0.00000  Uiso   1.00
C745   C     0.47552   0.02420   0.72064   0.00000  Uiso   1.00
C746   C     0.52448   0.30914   0.77936   0.00000  Uiso   1.00
H747   H     0.54406   0.04182   0.80282   0.00000  Uiso   1.00
H748   H     0.45594   0.29151   0.69718   0.00000  Uiso   1.00
H749   H     0.45597   0.04256   0.69716   0.00000  Uiso   1.00
H750   H     0.54403   0.29078   0.80284   0.00000  Uiso   1.00
N751   N     0.50000   0.28573   0.75000   0.00000  Uiso   1.00
N752   N     0.50000   0.04760   0.75000   0.00000  Uiso   1.00
N753   N     0.45441   0.28357   0.95461   0.00000  Uiso   1.00
O754   O     0.42406   0.27868   0.92597   0.00000  Uiso   1.00
O755   O     0.46308   0.32405   0.96896   0.00000  Uiso   1.00
N756   N     0.54558   0.04976   0.54539   0.00000  Uiso   1.00
O757   O     0.57592   0.05465   0.57403   0.00000  Uiso   1.00
O758   O     0.53691   0.00928   0.53104   0.00000  Uiso   1.00
N759   N     0.37689   0.11929   0.68166   0.00000  Uiso   1.00
O760   O     0.37045   0.07656   0.67373   0.00000  Uiso   1.00
O761   O     0.40283   0.14173   0.65673   0.00000  Uiso   1.00
N762   N     0.62311   0.21405   0.81833   0.00000  Uiso   1.00
O763   O     0.62960   0.25677   0.82631   0.00000  Uiso   1.00
O764   O     0.59715   0.19162   0.84326   0.00000  Uiso   1.00
N765   N     0.62206   0.11871   0.68297   0.00000  Uiso   1.00
O766   O     0.60340   0.14226   0.65193   0.00000  Uiso   1.00
O767   O     0.61612   0.07517   0.68525   0.00000  Uiso   1.00
N768   N     0.37794   0.21463   0.81702   0.00000  Uiso   1.00
O769   O     0.39652   0.19109   0.84812   0.00000  Uiso   1.00
O770   O     0.38398   0.25815   0.81468   0.00000  Uiso   1.00
O771   O     0.77226   0.20487   0.74999   0.00000  Uiso   1.00
O772   O     0.89441   0.12846   0.75000   0.00000  Uiso   1.00
O773   O     0.89441   0.20487   0.75000   0.00000  Uiso   1.00
O774   O     0.77226   0.12846   0.74999   0.00000  Uiso   1.00
C775   C     0.75343   0.16677   0.74977   0.00000  Uiso   1.00
C776   C     0.91323   0.16656   0.75023   0.00000  Uiso   1.00
O777   O     0.83333   0.20489   0.68392   0.00000  Uiso   1.00
O778   O     0.83334   0.12844   0.81607   0.00000  Uiso   1.00
O779   O     0.83334   0.20489   0.81607   0.00000  Uiso   1.00
O780   O     0.83333   0.12844   0.68392   0.00000  Uiso   1.00
C781   C     0.83356   0.16674   0.66332   0.00000  Uiso   1.00
C782   C     0.83310   0.16659   0.83668   0.00000  Uiso   1.00
Zn783  Zn    0.83333   0.21771   0.75000   0.00000  Uiso   1.00
Zn784  Zn    0.83333   0.11563   0.75000   0.00000  Uiso   1.00
C785   C     0.84453   0.12739   0.90759   0.00000  Uiso   1.00
C786   C     0.82213   0.20594   0.59241   0.00000  Uiso   1.00
C787   C     0.83243   0.16642   0.88457   0.00000  Uiso   1.00
C788   C     0.83423   0.16691   0.61543   0.00000  Uiso   1.00
C789   C     0.81983   0.20540   0.90710   0.00000  Uiso   1.00
C790   C     0.84682   0.12794   0.59290   0.00000  Uiso   1.00
C791   C     0.81863   0.20577   0.95342   0.00000  Uiso   1.00
C792   C     0.84803   0.12756   0.54658   0.00000  Uiso   1.00
C793   C     0.83259   0.16663   0.97679   0.00000  Uiso   1.00
C794   C     0.83407   0.16670   0.52321   0.00000  Uiso   1.00
C795   C     0.84522   0.12738   0.95366   0.00000  Uiso   1.00
C796   C     0.82144   0.20596   0.54634   0.00000  Uiso   1.00
C797   C     0.80508   0.24455   0.97694   0.00000  Uiso   1.00
C798   C     0.86157   0.08878   0.52305   0.00000  Uiso   1.00
C799   C     0.80741   0.24441   0.52335   0.00000  Uiso   1.00
C800   C     0.85924   0.08892   0.97665   0.00000  Uiso   1.00
H801   H     0.85450   0.09741   0.88963   0.00000  Uiso   1.00
H802   H     0.81216   0.23592   0.61037   0.00000  Uiso   1.00
H803   H     0.81136   0.23534   0.88817   0.00000  Uiso   1.00
H804   H     0.85530   0.09799   0.61183   0.00000  Uiso   1.00
H805   H     0.79707   0.27403   0.54161   0.00000  Uiso   1.00
H806   H     0.86958   0.05930   0.95839   0.00000  Uiso   1.00
C807   C     0.68808   0.14190   0.71683   0.00000  Uiso   1.00
C808   C     0.97859   0.19143   0.78317   0.00000  Uiso   1.00
C809   C     0.97819   0.14135   0.71761   0.00000  Uiso   1.00
C810   C     0.68847   0.19198   0.78239   0.00000  Uiso   1.00
C811   C     0.95737   0.16623   0.75058   0.00000  Uiso   1.00
C812   C     0.70930   0.16711   0.74942   0.00000  Uiso   1.00
C813   C     0.85782   0.02379   0.77936   0.00000  Uiso   1.00
C814   C     0.80885   0.30955   0.72064   0.00000  Uiso   1.00
C815   C     0.80885   0.02420   0.72064   0.00000  Uiso   1.00
C816   C     0.85781   0.30914   0.77936   0.00000  Uiso   1.00
H817   H     0.87739   0.04182   0.80282   0.00000  Uiso   1.00
H818   H     0.78927   0.29151   0.69718   0.00000  Uiso   1.00
H819   H     0.78930   0.04256   0.69716   0.00000  Uiso   1.00
H820   H     0.87736   0.29078   0.80284   0.00000  Uiso   1.00
N821   N     0.83333   0.28573   0.75000   0.00000  Uiso   1.00
N822   N     0.83333   0.04760   0.75000   0.00000  Uiso   1.00
N823   N     0.78774   0.28357   0.95461   0.00000  Uiso   1.00
O824   O     0.75740   0.27868   0.92597   0.00000  Uiso   1.00
O825   O     0.79641   0.32405   0.96896   0.00000  Uiso   1.00
N826   N     0.87891   0.04976   0.54539   0.00000  Uiso   1.00
O827   O     0.90926   0.05465   0.57403   0.00000  Uiso   1.00
O828   O     0.87024   0.00928   0.53104   0.00000  Uiso   1.00
N829   N     0.71023   0.11929   0.68166   0.00000  Uiso   1.00
O830   O     0.70378   0.07656   0.67373   0.00000  Uiso   1.00
O831   O     0.73617   0.14173   0.65673   0.00000  Uiso   1.00
N832   N     0.95644   0.21405   0.81833   0.00000  Uiso   1.00
O833   O     0.96294   0.25677   0.82631   0.00000  Uiso   1.00
O834   O     0.93049   0.19162   0.84326   0.00000  Uiso   1.00
N835   N     0.95540   0.11871   0.68297   0.00000  Uiso   1.00
O836   O     0.93673   0.14226   0.65193   0.00000  Uiso   1.00
O837   O     0.94945   0.07517   0.68525   0.00000  Uiso   1.00
N838   N     0.71127   0.21463   0.81702   0.00000  Uiso   1.00
O839   O     0.72985   0.19109   0.84812   0.00000  Uiso   1.00
O840   O     0.71731   0.25815   0.81468   0.00000  Uiso   1.00
O841   O     0.10559   0.53821   0.74999   0.00000  Uiso   1.00
O842   O     0.22774   0.46179   0.75000   0.00000  Uiso   1.00
O843   O     0.22774   0.53821   0.75000   0.00000  Uiso   1.00
O844   O     0.10559   0.46179   0.74999   0.00000  Uiso   1.00
C845   C     0.08677   0.50010   0.74977   0.00000  Uiso   1.00
C846   C     0.24657   0.49990   0.75023   0.00000  Uiso   1.00
O847   O     0.16666   0.53823   0.68392   0.00000  Uiso   1.00
O848   O     0.16667   0.46177   0.81607   0.00000  Uiso   1.00
O849   O     0.16667   0.53823   0.81607   0.00000  Uiso   1.00
O850   O     0.16666   0.46177   0.68392   0.00000  Uiso   1.00
C851   C     0.16689   0.50008   0.66332   0.00000  Uiso   1.00
C852   C     0.16644   0.49992   0.83668   0.00000  Uiso   1.00
Zn853  Zn    0.16667   0.55104   0.75000   0.00000  Uiso   1.00
Zn854  Zn    0.16667   0.44896   0.75000   0.00000  Uiso   1.00
C855   C     0.17786   0.46073   0.90759   0.00000  Uiso   1.00
C856   C     0.15546   0.53927   0.59241   0.00000  Uiso   1.00
C857   C     0.16576   0.49975   0.88457   0.00000  Uiso   1.00
C858   C     0.16756   0.50025   0.61543   0.00000  Uiso   1.00
C859   C     0.15316   0.53873   0.90710   0.00000  Uiso   1.00
C860   C     0.18016   0.46127   0.59290   0.00000  Uiso   1.00
C861   C     0.15196   0.53911   0.95342   0.00000  Uiso   1.00
C862   C     0.18136   0.46089   0.54658   0.00000  Uiso   1.00
C863   C     0.16592   0.49996   0.97679   0.00000  Uiso   1.00
C864   C     0.16740   0.50003   0.52321   0.00000  Uiso   1.00
C865   C     0.17855   0.46071   0.95366   0.00000  Uiso   1.00
C866   C     0.15477   0.53929   0.54634   0.00000  Uiso   1.00
C867   C     0.13841   0.57788   0.97694   0.00000  Uiso   1.00
C868   C     0.19491   0.42211   0.52305   0.00000  Uiso   1.00
C869   C     0.14075   0.57775   0.52335   0.00000  Uiso   1.00
C870   C     0.19257   0.42225   0.97665   0.00000  Uiso   1.00
H871   H     0.18783   0.43074   0.88963   0.00000  Uiso   1.00
H872   H     0.14549   0.56926   0.61037   0.00000  Uiso   1.00
H873   H     0.14469   0.56867   0.88817   0.00000  Uiso   1.00
H874   H     0.18863   0.43132   0.61183   0.00000  Uiso   1.00
H875   H     0.13040   0.60737   0.54161   0.00000  Uiso   1.00
H876   H     0.20292   0.39263   0.95839   0.00000  Uiso   1.00
C877   C     0.02141   0.47523   0.71683   0.00000  Uiso   1.00
C878   C     0.31192   0.52477   0.78317   0.00000  Uiso   1.00
C879   C     0.31153   0.47469   0.71761   0.00000  Uiso   1.00
C880   C     0.02181   0.52531   0.78239   0.00000  Uiso   1.00
C881   C     0.29070   0.49956   0.75058   0.00000  Uiso   1.00
C882   C     0.04263   0.50044   0.74942   0.00000  Uiso   1.00
C883   C     0.19115   0.35712   0.77936   0.00000  Uiso   1.00
C884   C     0.14218   0.64288   0.72064   0.00000  Uiso   1.00
C885   C     0.14219   0.35753   0.72064   0.00000  Uiso   1.00
C886   C     0.19115   0.64247   0.77936   0.00000  Uiso   1.00
H887   H     0.21073   0.37515   0.80282   0.00000  Uiso   1.00
H888   H     0.12261   0.62485   0.69718   0.00000  Uiso   1.00
H889   H     0.12264   0.37589   0.69716   0.00000  Uiso   1.00
H890   H     0.21070   0.62411   0.80284   0.00000  Uiso   1.00
N891   N     0.16667   0.61907   0.75000   0.00000  Uiso   1.00
N892   N     0.16667   0.38093   0.75000   0.00000  Uiso   1.00
N893   N     0.12108   0.61691   0.95461   0.00000  Uiso   1.00
O894   O     0.09073   0.61202   0.92597   0.00000  Uiso   1.00
O895   O     0.12974   0.65738   0.96896   0.00000  Uiso   1.00
N896   N     0.21224   0.38309   0.54539   0.00000  Uiso   1.00
O897   O     0.24259   0.38798   0.57403   0.00000  Uiso   1.00
O898   O     0.20357   0.34262   0.53104   0.00000  Uiso   1.00
N899   N     0.04356   0.45263   0.68166   0.00000  Uiso   1.00
O900   O     0.03712   0.40990   0.67373   0.00000  Uiso   1.00
O901   O     0.06950   0.47506   0.65673   0.00000  Uiso   1.00
N902   N     0.28978   0.54738   0.81833   0.00000  Uiso   1.00
O903   O     0.29627   0.59010   0.82631   0.00000  Uiso   1.00
O904   O     0.26382   0.52496   0.84326   0.00000  Uiso   1.00
N905   N     0.28873   0.45204   0.68297   0.00000  Uiso   1.00
O906   O     0.27006   0.47559   0.65193   0.00000  Uiso   1.00
O907   O     0.28279   0.40850   0.68525   0.00000  Uiso   1.00
N908   N     0.04460   0.54796   0.81702   0.00000  Uiso   1.00
O909   O     0.06318   0.52442   0.84812   0.00000  Uiso   1.00
O910   O     0.05065   0.59149   0.81468   0.00000  Uiso   1.00
O911   O     0.43892   0.53821   0.74999   0.00000  Uiso   1.00
O912   O     0.56108   0.46179   0.75000   0.00000  Uiso   1.00
O913   O     0.56108   0.53821   0.75000   0.00000  Uiso   1.00
O914   O     0.43892   0.46179   0.74999   0.00000  Uiso   1.00
C915   C     0.42010   0.50010   0.74977   0.00000  Uiso   1.00
C916   C     0.57990   0.49990   0.75023   0.00000  Uiso   1.00
O917   O     0.49999   0.53823   0.68392   0.00000  Uiso   1.00
O918   O     0.50001   0.46177   0.81607   0.00000  Uiso   1.00
O919   O     0.50001   0.53823   0.81607   0.00000  Uiso   1.00
O920   O     0.49999   0.46177   0.68392   0.00000  Uiso   1.00
C921   C     0.50023   0.50008   0.66332   0.00000  Uiso   1.00
C922   C     0.49977   0.49992   0.83668   0.00000  Uiso   1.00
Zn923  Zn    0.50000   0.55104   0.75000   0.00000  Uiso   1.00
Zn924  Zn    0.50000   0.44896   0.75000   0.00000  Uiso   1.00
C925   C     0.51119   0.46073   0.90759   0.00000  Uiso   1.00
C926   C     0.48880   0.53927   0.59241   0.00000  Uiso   1.00
C927   C     0.49910   0.49975   0.88457   0.00000  Uiso   1.00
C928   C     0.50090   0.50025   0.61543   0.00000  Uiso   1.00
C929   C     0.48650   0.53873   0.90710   0.00000  Uiso   1.00
C930   C     0.51349   0.46127   0.59290   0.00000  Uiso   1.00
C931   C     0.48529   0.53911   0.95342   0.00000  Uiso   1.00
C932   C     0.51469   0.46089   0.54658   0.00000  Uiso   1.00
C933   C     0.49925   0.49996   0.97679   0.00000  Uiso   1.00
C934   C     0.50073   0.50003   0.52321   0.00000  Uiso   1.00
C935   C     0.51188   0.46071   0.95366   0.00000  Uiso   1.00
C936   C     0.48810   0.53929   0.54634   0.00000  Uiso   1.00
C937   C     0.47174   0.57788   0.97694   0.00000  Uiso   1.00
C938   C     0.52824   0.42211   0.52305   0.00000  Uiso   1.00
C939   C     0.47408   0.57775   0.52335   0.00000  Uiso   1.00
C940   C     0.52591   0.42225   0.97665   0.00000  Uiso   1.00
H941   H     0.52117   0.43074   0.88963   0.00000  Uiso   1.00
H942   H     0.47883   0.56926   0.61037   0.00000  Uiso   1.00
H943   H     0.47802   0.56867   0.88817   0.00000  Uiso   1.00
H944   H     0.52197   0.43132   0.61183   0.00000  Uiso   1.00
H945   H     0.46374   0.60737   0.54161   0.00000  Uiso   1.00
H946   H     0.53625   0.39263   0.95839   0.00000  Uiso   1.00
C947   C     0.35474   0.47523   0.71683   0.00000  Uiso   1.00
C948   C     0.64526   0.52477   0.78317   0.00000  Uiso   1.00
C949   C     0.64486   0.47469   0.71761   0.00000  Uiso   1.00
C950   C     0.35514   0.52531   0.78239   0.00000  Uiso   1.00
C951   C     0.62404   0.49956   0.75058   0.00000  Uiso   1.00
C952   C     0.37596   0.50044   0.74942   0.00000  Uiso   1.00
C953   C     0.52449   0.35712   0.77936   0.00000  Uiso   1.00
C954   C     0.47551   0.64288   0.72064   0.00000  Uiso   1.00
C955   C     0.47552   0.35753   0.72064   0.00000  Uiso   1.00
C956   C     0.52448   0.64247   0.77936   0.00000  Uiso   1.00
H957   H     0.54406   0.37515   0.80282   0.00000  Uiso   1.00
H958   H     0.45594   0.62485   0.69718   0.00000  Uiso   1.00
H959   H     0.45597   0.37589   0.69716   0.00000  Uiso   1.00
H960   H     0.54403   0.62411   0.80284   0.00000  Uiso   1.00
N961   N     0.50000   0.61907   0.75000   0.00000  Uiso   1.00
N962   N     0.50000   0.38093   0.75000   0.00000  Uiso   1.00
N963   N     0.45441   0.61691   0.95461   0.00000  Uiso   1.00
O964   O     0.42406   0.61202   0.92597   0.00000  Uiso   1.00
O965   O     0.46308   0.65738   0.96896   0.00000  Uiso   1.00
N966   N     0.54558   0.38309   0.54539   0.00000  Uiso   1.00
O967   O     0.57592   0.38798   0.57403   0.00000  Uiso   1.00
O968   O     0.53691   0.34262   0.53104   0.00000  Uiso   1.00
N969   N     0.37689   0.45263   0.68166   0.00000  Uiso   1.00
O970   O     0.37045   0.40990   0.67373   0.00000  Uiso   1.00
O971   O     0.40283   0.47506   0.65673   0.00000  Uiso   1.00
N972   N     0.62311   0.54738   0.81833   0.00000  Uiso   1.00
O973   O     0.62960   0.59010   0.82631   0.00000  Uiso   1.00
O974   O     0.59715   0.52496   0.84326   0.00000  Uiso   1.00
N975   N     0.62206   0.45204   0.68297   0.00000  Uiso   1.00
O976   O     0.60340   0.47559   0.65193   0.00000  Uiso   1.00
O977   O     0.61612   0.40850   0.68525   0.00000  Uiso   1.00
N978   N     0.37794   0.54796   0.81702   0.00000  Uiso   1.00
O979   O     0.39652   0.52442   0.84812   0.00000  Uiso   1.00
O980   O     0.38398   0.59149   0.81468   0.00000  Uiso   1.00
O981   O     0.77226   0.53821   0.74999   0.00000  Uiso   1.00
O982   O     0.89441   0.46179   0.75000   0.00000  Uiso   1.00
O983   O     0.89441   0.53821   0.75000   0.00000  Uiso   1.00
O984   O     0.77226   0.46179   0.74999   0.00000  Uiso   1.00
C985   C     0.75343   0.50010   0.74977   0.00000  Uiso   1.00
C986   C     0.91323   0.49990   0.75023   0.00000  Uiso   1.00
O987   O     0.83333   0.53823   0.68392   0.00000  Uiso   1.00
O988   O     0.83334   0.46177   0.81607   0.00000  Uiso   1.00
O989   O     0.83334   0.53823   0.81607   0.00000  Uiso   1.00
O990   O     0.83333   0.46177   0.68392   0.00000  Uiso   1.00
C991   C     0.83356   0.50008   0.66332   0.00000  Uiso   1.00
C992   C     0.83310   0.49992   0.83668   0.00000  Uiso   1.00
Zn993  Zn    0.83333   0.55104   0.75000   0.00000  Uiso   1.00
Zn994  Zn    0.83333   0.44896   0.75000   0.00000  Uiso   1.00
C995   C     0.84453   0.46073   0.90759   0.00000  Uiso   1.00
C996   C     0.82213   0.53927   0.59241   0.00000  Uiso   1.00
C997   C     0.83243   0.49975   0.88457   0.00000  Uiso   1.00
C998   C     0.83423   0.50025   0.61543   0.00000  Uiso   1.00
C999   C     0.81983   0.53873   0.90710   0.00000  Uiso   1.00
C1000  C     0.84682   0.46127   0.59290   0.00000  Uiso   1.00
C1001  C     0.81863   0.53911   0.95342   0.00000  Uiso   1.00
C1002  C     0.84803   0.46089   0.54658   0.00000  Uiso   1.00
C1003  C     0.83259   0.49996   0.97679   0.00000  Uiso   1.00
C1004  C     0.83407   0.50003   0.52321   0.00000  Uiso   1.00
C1005  C     0.84522   0.46071   0.95366   0.00000  Uiso   1.00
C1006  C     0.82144   0.53929   0.54634   0.00000  Uiso   1.00
C1007  C     0.80508   0.57788   0.97694   0.00000  Uiso   1.00
C1008  C     0.86157   0.42211   0.52305   0.00000  Uiso   1.00
C1009  C     0.80741   0.57775   0.52335   0.00000  Uiso   1.00
C1010  C     0.85924   0.42225   0.97665   0.00000  Uiso   1.00
H1011  H     0.85450   0.43074   0.88963   0.00000  Uiso   1.00
H1012  H     0.81216   0.56926   0.61037   0.00000  Uiso   1.00
H1013  H     0.81136   0.56867   0.88817   0.00000  Uiso   1.00
H1014  H     0.85530   0.43132   0.61183   0.00000  Uiso   1.00
H1015  H     0.79707   0.60737   0.54161   0.00000  Uiso   1.00
H1016  H     0.86958   0.39263   0.95839   0.00000  Uiso   1.00
C1017  C     0.68808   0.47523   0.71683   0.00000  Uiso   1.00
C1018  C     0.97859   0.52477   0.78317   0.00000  Uiso   1.00
C1019  C     0.97819   0.47469   0.71761   0.00000  Uiso   1.00
C1020  C     0.68847   0.52531   0.78239   0.00000  Uiso   1.00
C1021  C     0.95737   0.49956   0.75058   0.00000  Uiso   1.00
C1022  C     0.70930   0.50044   0.74942   0.00000  Uiso   1.00
C1023  C     0.85782   0.35712   0.77936   0.00000  Uiso   1.00
C1024  C     0.80885   0.64288   0.72064   0.00000  Uiso   1.00
C1025  C     0.80885   0.35753   0.72064   0.00000  Uiso   1.00
C1026  C     0.85781   0.64247   0.77936   0.00000  Uiso   1.00
H1027  H     0.87739   0.37515   0.80282   0.00000  Uiso   1.00
H1028  H     0.78927   0.62485   0.69718   0.00000  Uiso   1.00
H1029  H     0.78930   0.37589   0.69716   0.00000  Uiso   1.00
H1030  H     0.87736   0.62411   0.80284   0.00000  Uiso   1.00
N1031  N     0.83333   0.61907   0.75000   0.00000  Uiso   1.00
N1032  N     0.83333   0.38093   0.75000   0.00000  Uiso   1.00
N1033  N     0.78774   0.61691   0.95461   0.00000  Uiso   1.00
O1034  O     0.75740   0.61202   0.92597   0.00000  Uiso   1.00
O1035  O     0.79641   0.65738   0.96896   0.00000  Uiso   1.00
N1036  N     0.87891   0.38309   0.54539   0.00000  Uiso   1.00
O1037  O     0.90926   0.38798   0.57403   0.00000  Uiso   1.00
O1038  O     0.87024   0.34262   0.53104   0.00000  Uiso   1.00
N1039  N     0.71023   0.45263   0.68166   0.00000  Uiso   1.00
O1040  O     0.70378   0.40990   0.67373   0.00000  Uiso   1.00
O1041  O     0.73617   0.47506   0.65673   0.00000  Uiso   1.00
N1042  N     0.95644   0.54738   0.81833   0.00000  Uiso   1.00
O1043  O     0.96294   0.59010   0.82631   0.00000  Uiso   1.00
O1044  O     0.93049   0.52496   0.84326   0.00000  Uiso   1.00
N1045  N     0.95540   0.45204   0.68297   0.00000  Uiso   1.00
O1046  O     0.93673   0.47559   0.65193   0.00000  Uiso   1.00
O1047  O     0.94945   0.40850   0.68525   0.00000  Uiso   1.00
N1048  N     0.71127   0.54796   0.81702   0.00000  Uiso   1.00
O1049  O     0.72985   0.52442   0.84812   0.00000  Uiso   1.00
O1050  O     0.71731   0.59149   0.81468   0.00000  Uiso   1.00
O1051  O     0.10559   0.87154   0.74999   0.00000  Uiso   1.00
O1052  O     0.22774   0.79513   0.75000   0.00000  Uiso   1.00
O1053  O     0.22774   0.87154   0.75000   0.00000  Uiso   1.00
O1054  O     0.10559   0.79513   0.74999   0.00000  Uiso   1.00
C1055  C     0.08677   0.83344   0.74977   0.00000  Uiso   1.00
C1056  C     0.24657   0.83323   0.75023   0.00000  Uiso   1.00
O1057  O     0.16666   0.87156   0.68392   0.00000  Uiso   1.00
O1058  O     0.16667   0.79511   0.81607   0.00000  Uiso   1.00
O1059  O     0.16667   0.87156   0.81607   0.00000  Uiso   1.00
O1060  O     0.16666   0.79511   0.68392   0.00000  Uiso   1.00
C1061  C     0.16689   0.83341   0.66332   0.00000  Uiso   1.00
C1062  C     0.16644   0.83326   0.83668   0.00000  Uiso   1.00
Zn1063 Zn    0.16667   0.88437   0.75000   0.00000  Uiso   1.00
Zn1064 Zn    0.16667   0.78229   0.75000   0.00000  Uiso   1.00
C1065  C     0.17786   0.79406   0.90759   0.00000  Uiso   1.00
C1066  C     0.15546   0.87261   0.59241   0.00000  Uiso   1.00
C1067  C     0.16576   0.83309   0.88457   0.00000  Uiso   1.00
C1068  C     0.16756   0.83358   0.61543   0.00000  Uiso   1.00
C1069  C     0.15316   0.87206   0.90710   0.00000  Uiso   1.00
C1070  C     0.18016   0.79460   0.59290   0.00000  Uiso   1.00
C1071  C     0.15196   0.87244   0.95342   0.00000  Uiso   1.00
C1072  C     0.18136   0.79422   0.54658   0.00000  Uiso   1.00
C1073  C     0.16592   0.83330   0.97679   0.00000  Uiso   1.00
C1074  C     0.16740   0.83337   0.52321   0.00000  Uiso   1.00
C1075  C     0.17855   0.79404   0.95366   0.00000  Uiso   1.00
C1076  C     0.15477   0.87262   0.54634   0.00000  Uiso   1.00
C1077  C     0.13841   0.91122   0.97694   0.00000  Uiso   1.00
C1078  C     0.19491   0.75545   0.52305   0.00000  Uiso   1.00
C1079  C     0.14075   0.91108   0.52335   0.00000  Uiso   1.00
C1080  C     0.19257   0.75558   0.97665   0.00000  Uiso   1.00
H1081  H     0.18783   0.76407   0.88963   0.00000  Uiso   1.00
H1082  H     0.14549   0.90259   0.61037   0.00000  Uiso   1.00
H1083  H     0.14469   0.90201   0.88817   0.00000  Uiso   1.00
H1084  H     0.18863   0.76466   0.61183   0.00000  Uiso   1.00
H1085  H     0.13040   0.94070   0.54161   0.00000  Uiso   1.00
H1086  H     0.20292   0.72597   0.95839   0.00000  Uiso   1.00
C1087  C     0.02141   0.80857   0.71683   0.00000  Uiso   1.00
C1088  C     0.31192   0.85810   0.78317   0.00000  Uiso   1.00
C1089  C     0.31153   0.80802   0.71761   0.00000  Uiso   1.00
C1090  C     0.02181   0.85865   0.78239   0.00000  Uiso   1.00
C1091  C     0.29070   0.83290   0.75058   0.00000  Uiso   1.00
C1092  C     0.04263   0.83377   0.74942   0.00000  Uiso   1.00
C1093  C     0.19115   0.69045   0.77936   0.00000  Uiso   1.00
C1094  C     0.14218   0.97621   0.72064   0.00000  Uiso   1.00
C1095  C     0.14219   0.69086   0.72064   0.00000  Uiso   1.00
C1096  C     0.19115   0.97580   0.77936   0.00000  Uiso   1.00
H1097  H     0.21073   0.70849   0.80282   0.00000  Uiso   1.00
H1098  H     0.12261   0.95818   0.69718   0.00000  Uiso   1.00
H1099  H     0.12264   0.70922   0.69716   0.00000  Uiso   1.00
H1100  H     0.21070   0.95744   0.80284   0.00000  Uiso   1.00
N1101  N     0.16667   0.95240   0.75000   0.00000  Uiso   1.00
N1102  N     0.16667   0.71427   0.75000   0.00000  Uiso   1.00
N1103  N     0.12108   0.95024   0.95461   0.00000  Uiso   1.00
O1104  O     0.09073   0.94535   0.92597   0.00000  Uiso   1.00
O1105  O     0.12974   0.99072   0.96896   0.00000  Uiso   1.00
N1106  N     0.21224   0.71642   0.54539   0.00000  Uiso   1.00
O1107  O     0.24259   0.72131   0.57403   0.00000  Uiso   1.00
O1108  O     0.20357   0.67595   0.53104   0.00000  Uiso   1.00
N1109  N     0.04356   0.78596   0.68166   0.00000  Uiso   1.00
O1110  O     0.03712   0.74323   0.67373   0.00000  Uiso   1.00
O1111  O     0.06950   0.80839   0.65673   0.00000  Uiso   1.00
N1112  N     0.28978   0.88071   0.81833   0.00000  Uiso   1.00
O1113  O     0.29627   0.92343   0.82631   0.00000  Uiso   1.00
O1114  O     0.26382   0.85829   0.84326   0.00000  Uiso   1.00
N1115  N     0.28873   0.78537   0.68297   0.00000  Uiso   1.00
O1116  O     0.27006   0.80892   0.65193   0.00000  Uiso   1.00
O1117  O     0.28279   0.74183   0.68525   0.00000  Uiso   1.00
N1118  N     0.04460   0.88130   0.81702   0.00000  Uiso   1.00
O1119  O     0.06318   0.85775   0.84812   0.00000  Uiso   1.00
O1120  O     0.05065   0.92482   0.81468   0.00000  Uiso   1.00
O1121  O     0.43892   0.87154   0.74999   0.00000  Uiso   1.00
O1122  O     0.56108   0.79513   0.75000   0.00000  Uiso   1.00
O1123  O     0.56108   0.87154   0.75000   0.00000  Uiso   1.00
O1124  O     0.43892   0.79513   0.74999   0.00000  Uiso   1.00
C1125  C     0.42010   0.83344   0.74977   0.00000  Uiso   1.00
C1126  C     0.57990   0.83323   0.75023   0.00000  Uiso   1.00
O1127  O     0.49999   0.87156   0.68392   0.00000  Uiso   1.00
O1128  O     0.50001   0.79511   0.81607   0.00000  Uiso   1.00
O1129  O     0.50001   0.87156   0.81607   0.00000  Uiso   1.00
O1130  O     0.49999   0.79511   0.68392   0.00000  Uiso   1.00
C1131  C     0.50023   0.83341   0.66332   0.00000  Uiso   1.00
C1132  C     0.49977   0.83326   0.83668   0.00000  Uiso   1.00
Zn1133 Zn    0.50000   0.88437   0.75000   0.00000  Uiso   1.00
Zn1134 Zn    0.50000   0.78229   0.75000   0.00000  Uiso   1.00
C1135  C     0.51119   0.79406   0.90759   0.00000  Uiso   1.00
C1136  C     0.48880   0.87261   0.59241   0.00000  Uiso   1.00
C1137  C     0.49910   0.83309   0.88457   0.00000  Uiso   1.00
C1138  C     0.50090   0.83358   0.61543   0.00000  Uiso   1.00
C1139  C     0.48650   0.87206   0.90710   0.00000  Uiso   1.00
C1140  C     0.51349   0.79460   0.59290   0.00000  Uiso   1.00
C1141  C     0.48529   0.87244   0.95342   0.00000  Uiso   1.00
C1142  C     0.51469   0.79422   0.54658   0.00000  Uiso   1.00
C1143  C     0.49925   0.83330   0.97679   0.00000  Uiso   1.00
C1144  C     0.50073   0.83337   0.52321   0.00000  Uiso   1.00
C1145  C     0.51188   0.79404   0.95366   0.00000  Uiso   1.00
C1146  C     0.48810   0.87262   0.54634   0.00000  Uiso   1.00
C1147  C     0.47174   0.91122   0.97694   0.00000  Uiso   1.00
C1148  C     0.52824   0.75545   0.52305   0.00000  Uiso   1.00
C1149  C     0.47408   0.91108   0.52335   0.00000  Uiso   1.00
C1150  C     0.52591   0.75558   0.97665   0.00000  Uiso   1.00
H1151  H     0.52117   0.76407   0.88963   0.00000  Uiso   1.00
H1152  H     0.47883   0.90259   0.61037   0.00000  Uiso   1.00
H1153  H     0.47802   0.90201   0.88817   0.00000  Uiso   1.00
H1154  H     0.52197   0.76466   0.61183   0.00000  Uiso   1.00
H1155  H     0.46374   0.94070   0.54161   0.00000  Uiso   1.00
H1156  H     0.53625   0.72597   0.95839   0.00000  Uiso   1.00
C1157  C     0.35474   0.80857   0.71683   0.00000  Uiso   1.00
C1158  C     0.64526   0.85810   0.78317   0.00000  Uiso   1.00
C1159  C     0.64486   0.80802   0.71761   0.00000  Uiso   1.00
C1160  C     0.35514   0.85865   0.78239   0.00000  Uiso   1.00
C1161  C     0.62404   0.83290   0.75058   0.00000  Uiso   1.00
C1162  C     0.37596   0.83377   0.74942   0.00000  Uiso   1.00
C1163  C     0.52449   0.69045   0.77936   0.00000  Uiso   1.00
C1164  C     0.47551   0.97621   0.72064   0.00000  Uiso   1.00
C1165  C     0.47552   0.69086   0.72064   0.00000  Uiso   1.00
C1166  C     0.52448   0.97580   0.77936   0.00000  Uiso   1.00
H1167  H     0.54406   0.70849   0.80282   0.00000  Uiso   1.00
H1168  H     0.45594   0.95818   0.69718   0.00000  Uiso   1.00
H1169  H     0.45597   0.70922   0.69716   0.00000  Uiso   1.00
H1170  H     0.54403   0.95744   0.80284   0.00000  Uiso   1.00
N1171  N     0.50000   0.95240   0.75000   0.00000  Uiso   1.00
N1172  N     0.50000   0.71427   0.75000   0.00000  Uiso   1.00
N1173  N     0.45441   0.95024   0.95461   0.00000  Uiso   1.00
O1174  O     0.42406   0.94535   0.92597   0.00000  Uiso   1.00
O1175  O     0.46308   0.99072   0.96896   0.00000  Uiso   1.00
N1176  N     0.54558   0.71642   0.54539   0.00000  Uiso   1.00
O1177  O     0.57592   0.72131   0.57403   0.00000  Uiso   1.00
O1178  O     0.53691   0.67595   0.53104   0.00000  Uiso   1.00
N1179  N     0.37689   0.78596   0.68166   0.00000  Uiso   1.00
O1180  O     0.37045   0.74323   0.67373   0.00000  Uiso   1.00
O1181  O     0.40283   0.80839   0.65673   0.00000  Uiso   1.00
N1182  N     0.62311   0.88071   0.81833   0.00000  Uiso   1.00
O1183  O     0.62960   0.92343   0.82631   0.00000  Uiso   1.00
O1184  O     0.59715   0.85829   0.84326   0.00000  Uiso   1.00
N1185  N     0.62206   0.78537   0.68297   0.00000  Uiso   1.00
O1186  O     0.60340   0.80892   0.65193   0.00000  Uiso   1.00
O1187  O     0.61612   0.74183   0.68525   0.00000  Uiso   1.00
N1188  N     0.37794   0.88130   0.81702   0.00000  Uiso   1.00
O1189  O     0.39652   0.85775   0.84812   0.00000  Uiso   1.00
O1190  O     0.38398   0.92482   0.81468   0.00000  Uiso   1.00
O1191  O     0.77226   0.87154   0.74999   0.00000  Uiso   1.00
O1192  O     0.89441   0.79513   0.75000   0.00000  Uiso   1.00
O1193  O     0.89441   0.87154   0.75000   0.00000  Uiso   1.00
O1194  O     0.77226   0.79513   0.74999   0.00000  Uiso   1.00
C1195  C     0.75343   0.83344   0.74977   0.00000  Uiso   1.00
C1196  C     0.91323   0.83323   0.75023   0.00000  Uiso   1.00
O1197  O     0.83333   0.87156   0.68392   0.00000  Uiso   1.00
O1198  O     0.83334   0.79511   0.81607   0.00000  Uiso   1.00
O1199  O     0.83334   0.87156   0.81607   0.00000  Uiso   1.00
O1200  O     0.83333   0.79511   0.68392   0.00000  Uiso   1.00
C1201  C     0.83356   0.83341   0.66332   0.00000  Uiso   1.00
C1202  C     0.83310   0.83326   0.83668   0.00000  Uiso   1.00
Zn1203 Zn    0.83333   0.88437   0.75000   0.00000  Uiso   1.00
Zn1204 Zn    0.83333   0.78229   0.75000   0.00000  Uiso   1.00
C1205  C     0.84453   0.79406   0.90759   0.00000  Uiso   1.00
C1206  C     0.82213   0.87261   0.59241   0.00000  Uiso   1.00
C1207  C     0.83243   0.83309   0.88457   0.00000  Uiso   1.00
C1208  C     0.83423   0.83358   0.61543   0.00000  Uiso   1.00
C1209  C     0.81983   0.87206   0.90710   0.00000  Uiso   1.00
C1210  C     0.84682   0.79460   0.59290   0.00000  Uiso   1.00
C1211  C     0.81863   0.87244   0.95342   0.00000  Uiso   1.00
C1212  C     0.84803   0.79422   0.54658   0.00000  Uiso   1.00
C1213  C     0.83259   0.83330   0.97679   0.00000  Uiso   1.00
C1214  C     0.83407   0.83337   0.52321   0.00000  Uiso   1.00
C1215  C     0.84522   0.79404   0.95366   0.00000  Uiso   1.00
C1216  C     0.82144   0.87262   0.54634   0.00000  Uiso   1.00
C1217  C     0.80508   0.91122   0.97694   0.00000  Uiso   1.00
C1218  C     0.86157   0.75545   0.52305   0.00000  Uiso   1.00
C1219  C     0.80741   0.91108   0.52335   0.00000  Uiso   1.00
C1220  C     0.85924   0.75558   0.97665   0.00000  Uiso   1.00
H1221  H     0.85450   0.76407   0.88963   0.00000  Uiso   1.00
H1222  H     0.81216   0.90259   0.61037   0.00000  Uiso   1.00
H1223  H     0.81136   0.90201   0.88817   0.00000  Uiso   1.00
H1224  H     0.85530   0.76466   0.61183   0.00000  Uiso   1.00
H1225  H     0.79707   0.94070   0.54161   0.00000  Uiso   1.00
H1226  H     0.86958   0.72597   0.95839   0.00000  Uiso   1.00
C1227  C     0.68808   0.80857   0.71683   0.00000  Uiso   1.00
C1228  C     0.97859   0.85810   0.78317   0.00000  Uiso   1.00
C1229  C     0.97819   0.80802   0.71761   0.00000  Uiso   1.00
C1230  C     0.68847   0.85865   0.78239   0.00000  Uiso   1.00
C1231  C     0.95737   0.83290   0.75058   0.00000  Uiso   1.00
C1232  C     0.70930   0.83377   0.74942   0.00000  Uiso   1.00
C1233  C     0.85782   0.69045   0.77936   0.00000  Uiso   1.00
C1234  C     0.80885   0.97621   0.72064   0.00000  Uiso   1.00
C1235  C     0.80885   0.69086   0.72064   0.00000  Uiso   1.00
C1236  C     0.85781   0.97580   0.77936   0.00000  Uiso   1.00
H1237  H     0.87739   0.70849   0.80282   0.00000  Uiso   1.00
H1238  H     0.78927   0.95818   0.69718   0.00000  Uiso   1.00
H1239  H     0.78930   0.70922   0.69716   0.00000  Uiso   1.00
H1240  H     0.87736   0.95744   0.80284   0.00000  Uiso   1.00
N1241  N     0.83333   0.95240   0.75000   0.00000  Uiso   1.00
N1242  N     0.83333   0.71427   0.75000   0.00000  Uiso   1.00
N1243  N     0.78774   0.95024   0.95461   0.00000  Uiso   1.00
O1244  O     0.75740   0.94535   0.92597   0.00000  Uiso   1.00
O1245  O     0.79641   0.99072   0.96896   0.00000  Uiso   1.00
N1246  N     0.87891   0.71642   0.54539   0.00000  Uiso   1.00
O1247  O     0.90926   0.72131   0.57403   0.00000  Uiso   1.00
O1248  O     0.87024   0.67595   0.53104   0.00000  Uiso   1.00
N1249  N     0.71023   0.78596   0.68166   0.00000  Uiso   1.00
O1250  O     0.70378   0.74323   0.67373   0.00000  Uiso   1.00
O1251  O     0.73617   0.80839   0.65673   0.00000  Uiso   1.00
N1252  N     0.95644   0.88071   0.81833   0.00000  Uiso   1.00
O1253  O     0.96294   0.92343   0.82631   0.00000  Uiso   1.00
O1254  O     0.93049   0.85829   0.84326   0.00000  Uiso   1.00
N1255  N     0.95540   0.78537   0.68297   0.00000  Uiso   1.00
O1256  O     0.93673   0.80892   0.65193   0.00000  Uiso   1.00
O1257  O     0.94945   0.74183   0.68525   0.00000  Uiso   1.00
N1258  N     0.71127   0.88130   0.81702   0.00000  Uiso   1.00
O1259  O     0.72985   0.85775   0.84812   0.00000  Uiso   1.00
O1260  O     0.71731   0.92482   0.81468   0.00000  Uiso   1.00
loop_
_geom_bond_atom_site_label_1
_geom_bond_atom_site_label_2
_geom_bond_distance
_geom_bond_site_symmetry_2
_ccdc_geom_bond_type
O1     Zn13    1.991   .     S
O1     C5      1.277   .     A
O2     Zn14    1.991   .     S
O2     C6      1.277   .     A
O3     Zn13    1.989   .     S
O3     C6      1.279   .     A
O4     Zn14    1.989   .     S
O4     C5      1.279   .     A
C5     C42     1.412   .     S
C6     C41     1.412   .     S
O7     C11     1.286   .     A
O7     Zn13    2.019   .     S
O8     C12     1.286   .     A
O8     Zn14    2.019   .     S
O9     C12     1.286   .     A
O9     Zn13    2.016   .     S
O10    Zn14    2.016   .     S
O10    C11     1.286   .     A
C11    C18     1.436   .     S
C12    C17     1.436   .     S
Zn13   N51     2.007   .     S
Zn14   N52     2.007   .     S
C15    H31     1.085   .     S
C15    C25     1.382   .     A
C15    C17     1.393   .     A
C16    C26     1.382   .     A
C16    C18     1.393   .     A
C16    H32     1.085   .     S
C17    C19     1.395   .     A
C18    C20     1.395   .     A
C19    C21     1.390   .     A
C19    H33     1.081   .     S
C20    H34     1.081   .     S
C20    C22     1.390   .     A
C21    C23     1.418   .     A
C21    C27     1.414   .     A
C22    C28     1.414   .     A
C22    C24     1.418   .     A
C23    C25     1.411   .     A
C23    C654    1.392   .     S
C24    C26     1.411   .     A
C24    C653    1.392   1_554 S
C25    C30     1.397   .     A
C26    C29     1.397   .     A
C27    N53     1.438   .     S
C27    C659    1.393   .     S
C28    N56     1.438   .     S
C28    C660    1.393   1_554 S
C29    H35     1.085   .     S
C29    C657    1.393   1_554 S
C30    H36     1.085   .     S
C30    C658    1.393   .     S
C37    N59     1.438   .     S
C37    C42     1.404   .     A
C37    C179    1.383   1_455 S
C38    C41     1.404   .     A
C38    N62     1.438   .     S
C38    C110    1.383   .     S
C39    N65     1.434   .     S
C39    C41     1.403   .     A
C39    C107    1.383   .     S
C40    C42     1.403   .     A
C40    N68     1.434   .     S
C40    C178    1.383   1_455 S
C43    N52     1.366   .     A
C43    H47     1.082   .     S
C43    C466    1.416   1_545 S
C44    N51     1.366   .     A
C44    H48     1.082   .     S
C44    C255    1.416   .     S
C45    H49     1.082   .     S
C45    N52     1.366   .     A
C45    C464    1.416   1_545 S
C46    N51     1.366   .     A
C46    H50     1.082   .     S
C46    C253    1.416   .     S
N53    O54     1.301   .     A
N53    O55     1.301   .     A
N56    O57     1.301   .     A
N56    O58     1.301   .     A
N59    O60     1.301   .     A
N59    O61     1.301   .     A
N62    O63     1.301   .     A
N62    O64     1.301   .     A
N65    O66     1.301   .     A
N65    O67     1.301   .     A
N68    O70     1.301   .     A
N68    O69     1.301   .     A
O71    Zn83    1.991   .     S
O71    C75     1.277   .     A
O72    Zn84    1.991   .     S
O72    C76     1.277   .     A
O73    Zn83    1.989   .     S
O73    C76     1.279   .     A
O74    Zn84    1.989   .     S
O74    C75     1.279   .     A
C75    C112    1.412   .     S
C76    C111    1.412   .     S
O77    C81     1.286   .     A
O77    Zn83    2.019   .     S
O78    C82     1.286   .     A
O78    Zn84    2.019   .     S
O79    C82     1.286   .     A
O79    Zn83    2.016   .     S
O80    Zn84    2.016   .     S
O80    C81     1.286   .     A
C81    C88     1.436   .     S
C82    C87     1.436   .     S
Zn83   N121    2.007   .     S
Zn84   N122    2.007   .     S
C85    H101    1.085   .     S
C85    C95     1.382   .     A
C85    C87     1.393   .     A
C86    C96     1.382   .     A
C86    C88     1.393   .     A
C86    H102    1.085   .     S
C87    C89     1.395   .     A
C88    C90     1.395   .     A
C89    C91     1.390   .     A
C89    H103    1.081   .     S
C90    H104    1.081   .     S
C90    C92     1.390   .     A
C91    C93     1.418   .     A
C91    C97     1.414   .     A
C92    C98     1.414   .     A
C92    C94     1.418   .     A
C93    C95     1.411   .     A
C93    C724    1.392   .     S
C94    C96     1.411   .     A
C94    C723    1.392   1_554 S
C95    C100    1.397   .     A
C96    C99     1.397   .     A
C97    N123    1.438   .     S
C97    C729    1.393   .     S
C98    N126    1.438   .     S
C98    C730    1.393   1_554 S
C99    H105    1.085   .     S
C99    C727    1.393   1_554 S
C100   H106    1.085   .     S
C100   C728    1.393   .     S
C107   N129    1.438   .     S
C107   C112    1.404   .     A
C108   C111    1.404   .     A
C108   N132    1.438   .     S
C108   C180    1.383   .     S
C109   N135    1.434   .     S
C109   C111    1.403   .     A
C109   C177    1.383   .     S
C110   C112    1.403   .     A
C110   N138    1.434   .     S
C113   N122    1.366   .     A
C113   H117    1.082   .     S
C113   C536    1.416   1_545 S
C114   N121    1.366   .     A
C114   H118    1.082   .     S
C114   C325    1.416   .     S
C115   H119    1.082   .     S
C115   N122    1.366   .     A
C115   C534    1.416   1_545 S
C116   N121    1.366   .     A
C116   H120    1.082   .     S
C116   C323    1.416   .     S
N123   O124    1.301   .     A
N123   O125    1.301   .     A
N126   O127    1.301   .     A
N126   O128    1.301   .     A
N129   O130    1.301   .     A
N129   O131    1.301   .     A
N132   O133    1.301   .     A
N132   O134    1.301   .     A
N135   O136    1.301   .     A
N135   O137    1.301   .     A
N138   O140    1.301   .     A
N138   O139    1.301   .     A
O141   Zn153   1.991   .     S
O141   C145    1.277   .     A
O142   Zn154   1.991   .     S
O142   C146    1.277   .     A
O143   Zn153   1.989   .     S
O143   C146    1.279   .     A
O144   Zn154   1.989   .     S
O144   C145    1.279   .     A
C145   C182    1.412   .     S
C146   C181    1.412   .     S
O147   C151    1.286   .     A
O147   Zn153   2.019   .     S
O148   C152    1.286   .     A
O148   Zn154   2.019   .     S
O149   C152    1.286   .     A
O149   Zn153   2.016   .     S
O150   Zn154   2.016   .     S
O150   C151    1.286   .     A
C151   C158    1.436   .     S
C152   C157    1.436   .     S
Zn153  N191    2.007   .     S
Zn154  N192    2.007   .     S
C155   H171    1.085   .     S
C155   C165    1.382   .     A
C155   C157    1.393   .     A
C156   C166    1.382   .     A
C156   C158    1.393   .     A
C156   H172    1.085   .     S
C157   C159    1.395   .     A
C158   C160    1.395   .     A
C159   C161    1.390   .     A
C159   H173    1.081   .     S
C160   H174    1.081   .     S
C160   C162    1.390   .     A
C161   C163    1.418   .     A
C161   C167    1.414   .     A
C162   C168    1.414   .     A
C162   C164    1.418   .     A
C163   C165    1.411   .     A
C163   C794    1.392   .     S
C164   C166    1.411   .     A
C164   C793    1.392   1_554 S
C165   C170    1.397   .     A
C166   C169    1.397   .     A
C167   N193    1.438   .     S
C167   C799    1.393   .     S
C168   N196    1.438   .     S
C168   C800    1.393   1_554 S
C169   H175    1.085   .     S
C169   C797    1.393   1_554 S
C170   H176    1.085   .     S
C170   C798    1.393   .     S
C177   N199    1.438   .     S
C177   C182    1.404   .     A
C178   C181    1.404   .     A
C178   N202    1.438   .     S
C178   C40     1.383   1_655 S
C179   N205    1.434   .     S
C179   C181    1.403   .     A
C179   C37     1.383   1_655 S
C180   C182    1.403   .     A
C180   N208    1.434   .     S
C183   N192    1.366   .     A
C183   H187    1.082   .     S
C183   C606    1.416   1_545 S
C184   N191    1.366   .     A
C184   H188    1.082   .     S
C184   C395    1.416   .     S
C185   H189    1.082   .     S
C185   N192    1.366   .     A
C185   C604    1.416   1_545 S
C186   N191    1.366   .     A
C186   H190    1.082   .     S
C186   C393    1.416   .     S
N193   O194    1.301   .     A
N193   O195    1.301   .     A
N196   O197    1.301   .     A
N196   O198    1.301   .     A
N199   O200    1.301   .     A
N199   O201    1.301   .     A
N202   O203    1.301   .     A
N202   O204    1.301   .     A
N205   O206    1.301   .     A
N205   O207    1.301   .     A
N208   O210    1.301   .     A
N208   O209    1.301   .     A
O211   Zn223   1.991   .     S
O211   C215    1.277   .     A
O212   Zn224   1.991   .     S
O212   C216    1.277   .     A
O213   Zn223   1.989   .     S
O213   C216    1.279   .     A
O214   Zn224   1.989   .     S
O214   C215    1.279   .     A
C215   C252    1.412   .     S
C216   C251    1.412   .     S
O217   C221    1.286   .     A
O217   Zn223   2.019   .     S
O218   C222    1.286   .     A
O218   Zn224   2.019   .     S
O219   C222    1.286   .     A
O219   Zn223   2.016   .     S
O220   Zn224   2.016   .     S
O220   C221    1.286   .     A
C221   C228    1.436   .     S
C222   C227    1.436   .     S
Zn223  N261    2.007   .     S
Zn224  N262    2.007   .     S
C225   H241    1.085   .     S
C225   C235    1.382   .     A
C225   C227    1.393   .     A
C226   C236    1.382   .     A
C226   C228    1.393   .     A
C226   H242    1.085   .     S
C227   C229    1.395   .     A
C228   C230    1.395   .     A
C229   C231    1.390   .     A
C229   H243    1.081   .     S
C230   H244    1.081   .     S
C230   C232    1.390   .     A
C231   C233    1.418   .     A
C231   C237    1.414   .     A
C232   C238    1.414   .     A
C232   C234    1.418   .     A
C233   C235    1.411   .     A
C233   C864    1.392   .     S
C234   C236    1.411   .     A
C234   C863    1.392   1_554 S
C235   C240    1.397   .     A
C236   C239    1.397   .     A
C237   N263    1.438   .     S
C237   C869    1.393   .     S
C238   N266    1.438   .     S
C238   C870    1.393   1_554 S
C239   H245    1.085   .     S
C239   C867    1.393   1_554 S
C240   H246    1.085   .     S
C240   C868    1.393   .     S
C247   N269    1.438   .     S
C247   C252    1.404   .     A
C247   C389    1.383   1_455 S
C248   C251    1.404   .     A
C248   N272    1.438   .     S
C248   C320    1.383   .     S
C249   N275    1.434   .     S
C249   C251    1.403   .     A
C249   C317    1.383   .     S
C250   C252    1.403   .     A
C250   N278    1.434   .     S
C250   C388    1.383   1_455 S
C253   N262    1.366   .     A
C253   H257    1.082   .     S
C254   N261    1.366   .     A
C254   H258    1.082   .     S
C254   C465    1.416   .     S
C255   H259    1.082   .     S
C255   N262    1.366   .     A
C256   N261    1.366   .     A
C256   H260    1.082   .     S
C256   C463    1.416   .     S
N263   O264    1.301   .     A
N263   O265    1.301   .     A
N266   O267    1.301   .     A
N266   O268    1.301   .     A
N269   O270    1.301   .     A
N269   O271    1.301   .     A
N272   O273    1.301   .     A
N272   O274    1.301   .     A
N275   O276    1.301   .     A
N275   O277    1.301   .     A
N278   O280    1.301   .     A
N278   O279    1.301   .     A
O281   Zn293   1.991   .     S
O281   C285    1.277   .     A
O282   Zn294   1.991   .     S
O282   C286    1.277   .     A
O283   Zn293   1.989   .     S
O283   C286    1.279   .     A
O284   Zn294   1.989   .     S
O284   C285    1.279   .     A
C285   C322    1.412   .     S
C286   C321    1.412   .     S
O287   C291    1.286   .     A
O287   Zn293   2.019   .     S
O288   C292    1.286   .     A
O288   Zn294   2.019   .     S
O289   C292    1.286   .     A
O289   Zn293   2.016   .     S
O290   Zn294   2.016   .     S
O290   C291    1.286   .     A
C291   C298    1.436   .     S
C292   C297    1.436   .     S
Zn293  N331    2.007   .     S
Zn294  N332    2.007   .     S
C295   H311    1.085   .     S
C295   C305    1.382   .     A
C295   C297    1.393   .     A
C296   C306    1.382   .     A
C296   C298    1.393   .     A
C296   H312    1.085   .     S
C297   C299    1.395   .     A
C298   C300    1.395   .     A
C299   C301    1.390   .     A
C299   H313    1.081   .     S
C300   H314    1.081   .     S
C300   C302    1.390   .     A
C301   C303    1.418   .     A
C301   C307    1.414   .     A
C302   C308    1.414   .     A
C302   C304    1.418   .     A
C303   C305    1.411   .     A
C303   C934    1.392   .     S
C304   C306    1.411   .     A
C304   C933    1.392   1_554 S
C305   C310    1.397   .     A
C306   C309    1.397   .     A
C307   N333    1.438   .     S
C307   C939    1.393   .     S
C308   N336    1.438   .     S
C308   C940    1.393   1_554 S
C309   H315    1.085   .     S
C309   C937    1.393   1_554 S
C310   H316    1.085   .     S
C310   C938    1.393   .     S
C317   N339    1.438   .     S
C317   C322    1.404   .     A
C318   C321    1.404   .     A
C318   N342    1.438   .     S
C318   C390    1.383   .     S
C319   N345    1.434   .     S
C319   C321    1.403   .     A
C319   C387    1.383   .     S
C320   C322    1.403   .     A
C320   N348    1.434   .     S
C323   N332    1.366   .     A
C323   H327    1.082   .     S
C324   N331    1.366   .     A
C324   H328    1.082   .     S
C324   C535    1.416   .     S
C325   H329    1.082   .     S
C325   N332    1.366   .     A
C326   N331    1.366   .     A
C326   H330    1.082   .     S
C326   C533    1.416   .     S
N333   O334    1.301   .     A
N333   O335    1.301   .     A
N336   O337    1.301   .     A
N336   O338    1.301   .     A
N339   O340    1.301   .     A
N339   O341    1.301   .     A
N342   O343    1.301   .     A
N342   O344    1.301   .     A
N345   O346    1.301   .     A
N345   O347    1.301   .     A
N348   O350    1.301   .     A
N348   O349    1.301   .     A
O351   Zn363   1.991   .     S
O351   C355    1.277   .     A
O352   Zn364   1.991   .     S
O352   C356    1.277   .     A
O353   Zn363   1.989   .     S
O353   C356    1.279   .     A
O354   Zn364   1.989   .     S
O354   C355    1.279   .     A
C355   C392    1.412   .     S
C356   C391    1.412   .     S
O357   C361    1.286   .     A
O357   Zn363   2.019   .     S
O358   C362    1.286   .     A
O358   Zn364   2.019   .     S
O359   C362    1.286   .     A
O359   Zn363   2.016   .     S
O360   Zn364   2.016   .     S
O360   C361    1.286   .     A
C361   C368    1.436   .     S
C362   C367    1.436   .     S
Zn363  N401    2.007   .     S
Zn364  N402    2.007   .     S
C365   H381    1.085   .     S
C365   C375    1.382   .     A
C365   C367    1.393   .     A
C366   C376    1.382   .     A
C366   C368    1.393   .     A
C366   H382    1.085   .     S
C367   C369    1.395   .     A
C368   C370    1.395   .     A
C369   C371    1.390   .     A
C369   H383    1.081   .     S
C370   H384    1.081   .     S
C370   C372    1.390   .     A
C371   C373    1.418   .     A
C371   C377    1.414   .     A
C372   C378    1.414   .     A
C372   C374    1.418   .     A
C373   C375    1.411   .     A
C373   C1004   1.392   .     S
C374   C376    1.411   .     A
C374   C1003   1.392   1_554 S
C375   C380    1.397   .     A
C376   C379    1.397   .     A
C377   N403    1.438   .     S
C377   C1009   1.393   .     S
C378   N406    1.438   .     S
C378   C1010   1.393   1_554 S
C379   H385    1.085   .     S
C379   C1007   1.393   1_554 S
C380   H386    1.085   .     S
C380   C1008   1.393   .     S
C387   N409    1.438   .     S
C387   C392    1.404   .     A
C388   C391    1.404   .     A
C388   N412    1.438   .     S
C388   C250    1.383   1_655 S
C389   N415    1.434   .     S
C389   C391    1.403   .     A
C389   C247    1.383   1_655 S
C390   C392    1.403   .     A
C390   N418    1.434   .     S
C393   N402    1.366   .     A
C393   H397    1.082   .     S
C394   N401    1.366   .     A
C394   H398    1.082   .     S
C394   C605    1.416   .     S
C395   H399    1.082   .     S
C395   N402    1.366   .     A
C396   N401    1.366   .     A
C396   H400    1.082   .     S
C396   C603    1.416   .     S
N403   O404    1.301   .     A
N403   O405    1.301   .     A
N406   O407    1.301   .     A
N406   O408    1.301   .     A
N409   O410    1.301   .     A
N409   O411    1.301   .     A
N412   O413    1.301   .     A
N412   O414    1.301   .     A
N415   O416    1.301   .     A
N415   O417    1.301   .     A
N418   O420    1.301   .     A
N418   O419    1.301   .     A
O421   Zn433   1.991   .     S
O421   C425    1.277   .     A
O422   Zn434   1.991   .     S
O422   C426    1.277   .     A
O423   Zn433   1.989   .     S
O423   C426    1.279   .     A
O424   Zn434   1.989   .     S
O424   C425    1.279   .     A
C425   C462    1.412   .     S
C426   C461    1.412   .     S
O427   C431    1.286   .     A
O427   Zn433   2.019   .     S
O428   C432    1.286   .     A
O428   Zn434   2.019   .     S
O429   C432    1.286   .     A
O429   Zn433   2.016   .     S
O430   Zn434   2.016   .     S
O430   C431    1.286   .     A
C431   C438    1.436   .     S
C432   C437    1.436   .     S
Zn433  N471    2.007   .     S
Zn434  N472    2.007   .     S
C435   H451    1.085   .     S
C435   C445    1.382   .     A
C435   C437    1.393   .     A
C436   C446    1.382   .     A
C436   C438    1.393   .     A
C436   H452    1.085   .     S
C437   C439    1.395   .     A
C438   C440    1.395   .     A
C439   C441    1.390   .     A
C439   H453    1.081   .     S
C440   H454    1.081   .     S
C440   C442    1.390   .     A
C441   C443    1.418   .     A
C441   C447    1.414   .     A
C442   C448    1.414   .     A
C442   C444    1.418   .     A
C443   C445    1.411   .     A
C443   C1074   1.392   .     S
C444   C446    1.411   .     A
C444   C1073   1.392   1_554 S
C445   C450    1.397   .     A
C446   C449    1.397   .     A
C447   N473    1.438   .     S
C447   C1079   1.393   .     S
C448   N476    1.438   .     S
C448   C1080   1.393   1_554 S
C449   H455    1.085   .     S
C449   C1077   1.393   1_554 S
C450   H456    1.085   .     S
C450   C1078   1.393   .     S
C457   N479    1.438   .     S
C457   C462    1.404   .     A
C457   C599    1.383   1_455 S
C458   C461    1.404   .     A
C458   N482    1.438   .     S
C458   C530    1.383   .     S
C459   N485    1.434   .     S
C459   C461    1.403   .     A
C459   C527    1.383   .     S
C460   C462    1.403   .     A
C460   N488    1.434   .     S
C460   C598    1.383   1_455 S
C463   N472    1.366   .     A
C463   H467    1.082   .     S
C464   N471    1.366   .     A
C464   H468    1.082   .     S
C464   C45     1.416   1_565 S
C465   H469    1.082   .     S
C465   N472    1.366   .     A
C466   N471    1.366   .     A
C466   H470    1.082   .     S
C466   C43     1.416   1_565 S
N473   O474    1.301   .     A
N473   O475    1.301   .     A
N476   O477    1.301   .     A
N476   O478    1.301   .     A
N479   O480    1.301   .     A
N479   O481    1.301   .     A
N482   O483    1.301   .     A
N482   O484    1.301   .     A
N485   O486    1.301   .     A
N485   O487    1.301   .     A
N488   O490    1.301   .     A
N488   O489    1.301   .     A
O491   Zn503   1.991   .     S
O491   C495    1.277   .     A
O492   Zn504   1.991   .     S
O492   C496    1.277   .     A
O493   Zn503   1.989   .     S
O493   C496    1.279   .     A
O494   Zn504   1.989   .     S
O494   C495    1.279   .     A
C495   C532    1.412   .     S
C496   C531    1.412   .     S
O497   C501    1.286   .     A
O497   Zn503   2.019   .     S
O498   C502    1.286   .     A
O498   Zn504   2.019   .     S
O499   C502    1.286   .     A
O499   Zn503   2.016   .     S
O500   Zn504   2.016   .     S
O500   C501    1.286   .     A
C501   C508    1.436   .     S
C502   C507    1.436   .     S
Zn503  N541    2.007   .     S
Zn504  N542    2.007   .     S
C505   H521    1.085   .     S
C505   C515    1.382   .     A
C505   C507    1.393   .     A
C506   C516    1.382   .     A
C506   C508    1.393   .     A
C506   H522    1.085   .     S
C507   C509    1.395   .     A
C508   C510    1.395   .     A
C509   C511    1.390   .     A
C509   H523    1.081   .     S
C510   H524    1.081   .     S
C510   C512    1.390   .     A
C511   C513    1.418   .     A
C511   C517    1.414   .     A
C512   C518    1.414   .     A
C512   C514    1.418   .     A
C513   C515    1.411   .     A
C513   C1144   1.392   .     S
C514   C516    1.411   .     A
C514   C1143   1.392   1_554 S
C515   C520    1.397   .     A
C516   C519    1.397   .     A
C517   N543    1.438   .     S
C517   C1149   1.393   .     S
C518   N546    1.438   .     S
C518   C1150   1.393   1_554 S
C519   H525    1.085   .     S
C519   C1147   1.393   1_554 S
C520   H526    1.085   .     S
C520   C1148   1.393   .     S
C527   N549    1.438   .     S
C527   C532    1.404   .     A
C528   C531    1.404   .     A
C528   N552    1.438   .     S
C528   C600    1.383   .     S
C529   N555    1.434   .     S
C529   C531    1.403   .     A
C529   C597    1.383   .     S
C530   C532    1.403   .     A
C530   N558    1.434   .     S
C533   N542    1.366   .     A
C533   H537    1.082   .     S
C534   N541    1.366   .     A
C534   H538    1.082   .     S
C534   C115    1.416   1_565 S
C535   H539    1.082   .     S
C535   N542    1.366   .     A
C536   N541    1.366   .     A
C536   H540    1.082   .     S
C536   C113    1.416   1_565 S
N543   O544    1.301   .     A
N543   O545    1.301   .     A
N546   O547    1.301   .     A
N546   O548    1.301   .     A
N549   O550    1.301   .     A
N549   O551    1.301   .     A
N552   O553    1.301   .     A
N552   O554    1.301   .     A
N555   O556    1.301   .     A
N555   O557    1.301   .     A
N558   O560    1.301   .     A
N558   O559    1.301   .     A
O561   Zn573   1.991   .     S
O561   C565    1.277   .     A
O562   Zn574   1.991   .     S
O562   C566    1.277   .     A
O563   Zn573   1.989   .     S
O563   C566    1.279   .     A
O564   Zn574   1.989   .     S
O564   C565    1.279   .     A
C565   C602    1.412   .     S
C566   C601    1.412   .     S
O567   C571    1.286   .     A
O567   Zn573   2.019   .     S
O568   C572    1.286   .     A
O568   Zn574   2.019   .     S
O569   C572    1.286   .     A
O569   Zn573   2.016   .     S
O570   Zn574   2.016   .     S
O570   C571    1.286   .     A
C571   C578    1.436   .     S
C572   C577    1.436   .     S
Zn573  N611    2.007   .     S
Zn574  N612    2.007   .     S
C575   H591    1.085   .     S
C575   C585    1.382   .     A
C575   C577    1.393   .     A
C576   C586    1.382   .     A
C576   C578    1.393   .     A
C576   H592    1.085   .     S
C577   C579    1.395   .     A
C578   C580    1.395   .     A
C579   C581    1.390   .     A
C579   H593    1.081   .     S
C580   H594    1.081   .     S
C580   C582    1.390   .     A
C581   C583    1.418   .     A
C581   C587    1.414   .     A
C582   C588    1.414   .     A
C582   C584    1.418   .     A
C583   C585    1.411   .     A
C583   C1214   1.392   .     S
C584   C586    1.411   .     A
C584   C1213   1.392   1_554 S
C585   C590    1.397   .     A
C586   C589    1.397   .     A
C587   N613    1.438   .     S
C587   C1219   1.393   .     S
C588   N616    1.438   .     S
C588   C1220   1.393   1_554 S
C589   H595    1.085   .     S
C589   C1217   1.393   1_554 S
C590   H596    1.085   .     S
C590   C1218   1.393   .     S
C597   N619    1.438   .     S
C597   C602    1.404   .     A
C598   C601    1.404   .     A
C598   N622    1.438   .     S
C598   C460    1.383   1_655 S
C599   N625    1.434   .     S
C599   C601    1.403   .     A
C599   C457    1.383   1_655 S
C600   C602    1.403   .     A
C600   N628    1.434   .     S
C603   N612    1.366   .     A
C603   H607    1.082   .     S
C604   N611    1.366   .     A
C604   H608    1.082   .     S
C604   C185    1.416   1_565 S
C605   H609    1.082   .     S
C605   N612    1.366   .     A
C606   N611    1.366   .     A
C606   H610    1.082   .     S
C606   C183    1.416   1_565 S
N613   O614    1.301   .     A
N613   O615    1.301   .     A
N616   O617    1.301   .     A
N616   O618    1.301   .     A
N619   O620    1.301   .     A
N619   O621    1.301   .     A
N622   O623    1.301   .     A
N622   O624    1.301   .     A
N625   O626    1.301   .     A
N625   O627    1.301   .     A
N628   O630    1.301   .     A
N628   O629    1.301   .     A
O631   Zn643   1.991   .     S
O631   C635    1.277   .     A
O632   Zn644   1.991   .     S
O632   C636    1.277   .     A
O633   Zn643   1.989   .     S
O633   C636    1.279   .     A
O634   Zn644   1.989   .     S
O634   C635    1.279   .     A
C635   C672    1.412   .     S
C636   C671    1.412   .     S
O637   C641    1.286   .     A
O637   Zn643   2.019   .     S
O638   C642    1.286   .     A
O638   Zn644   2.019   .     S
O639   C642    1.286   .     A
O639   Zn643   2.016   .     S
O640   Zn644   2.016   .     S
O640   C641    1.286   .     A
C641   C648    1.436   .     S
C642   C647    1.436   .     S
Zn643  N681    2.007   .     S
Zn644  N682    2.007   .     S
C645   H661    1.085   .     S
C645   C655    1.382   .     A
C645   C647    1.393   .     A
C646   C656    1.382   .     A
C646   C648    1.393   .     A
C646   H662    1.085   .     S
C647   C649    1.395   .     A
C648   C650    1.395   .     A
C649   C651    1.390   .     A
C649   H663    1.081   .     S
C650   H664    1.081   .     S
C650   C652    1.390   .     A
C651   C653    1.418   .     A
C651   C657    1.414   .     A
C652   C658    1.414   .     A
C652   C654    1.418   .     A
C653   C655    1.411   .     A
C653   C24     1.392   1_556 S
C654   C656    1.411   .     A
C655   C660    1.397   .     A
C656   C659    1.397   .     A
C657   N683    1.438   .     S
C657   C29     1.393   1_556 S
C658   N686    1.438   .     S
C659   H665    1.085   .     S
C660   H666    1.085   .     S
C660   C28     1.393   1_556 S
C667   N689    1.438   .     S
C667   C672    1.404   .     A
C667   C809    1.383   1_455 S
C668   C671    1.404   .     A
C668   N692    1.438   .     S
C668   C740    1.383   .     S
C669   N695    1.434   .     S
C669   C671    1.403   .     A
C669   C737    1.383   .     S
C670   C672    1.403   .     A
C670   N698    1.434   .     S
C670   C808    1.383   1_455 S
C673   N682    1.366   .     A
C673   H677    1.082   .     S
C673   C1096   1.416   1_545 S
C674   N681    1.366   .     A
C674   H678    1.082   .     S
C674   C885    1.416   .     S
C675   H679    1.082   .     S
C675   N682    1.366   .     A
C675   C1094   1.416   1_545 S
C676   N681    1.366   .     A
C676   H680    1.082   .     S
C676   C883    1.416   .     S
N683   O684    1.301   .     A
N683   O685    1.301   .     A
N686   O687    1.301   .     A
N686   O688    1.301   .     A
N689   O690    1.301   .     A
N689   O691    1.301   .     A
N692   O693    1.301   .     A
N692   O694    1.301   .     A
N695   O696    1.301   .     A
N695   O697    1.301   .     A
N698   O700    1.301   .     A
N698   O699    1.301   .     A
O701   Zn713   1.991   .     S
O701   C705    1.277   .     A
O702   Zn714   1.991   .     S
O702   C706    1.277   .     A
O703   Zn713   1.989   .     S
O703   C706    1.279   .     A
O704   Zn714   1.989   .     S
O704   C705    1.279   .     A
C705   C742    1.412   .     S
C706   C741    1.412   .     S
O707   C711    1.286   .     A
O707   Zn713   2.019   .     S
O708   C712    1.286   .     A
O708   Zn714   2.019   .     S
O709   C712    1.286   .     A
O709   Zn713   2.016   .     S
O710   Zn714   2.016   .     S
O710   C711    1.286   .     A
C711   C718    1.436   .     S
C712   C717    1.436   .     S
Zn713  N751    2.007   .     S
Zn714  N752    2.007   .     S
C715   H731    1.085   .     S
C715   C725    1.382   .     A
C715   C717    1.393   .     A
C716   C726    1.382   .     A
C716   C718    1.393   .     A
C716   H732    1.085   .     S
C717   C719    1.395   .     A
C718   C720    1.395   .     A
C719   C721    1.390   .     A
C719   H733    1.081   .     S
C720   H734    1.081   .     S
C720   C722    1.390   .     A
C721   C723    1.418   .     A
C721   C727    1.414   .     A
C722   C728    1.414   .     A
C722   C724    1.418   .     A
C723   C725    1.411   .     A
C723   C94     1.392   1_556 S
C724   C726    1.411   .     A
C725   C730    1.397   .     A
C726   C729    1.397   .     A
C727   N753    1.438   .     S
C727   C99     1.393   1_556 S
C728   N756    1.438   .     S
C729   H735    1.085   .     S
C730   H736    1.085   .     S
C730   C98     1.393   1_556 S
C737   N759    1.438   .     S
C737   C742    1.404   .     A
C738   C741    1.404   .     A
C738   N762    1.438   .     S
C738   C810    1.383   .     S
C739   N765    1.434   .     S
C739   C741    1.403   .     A
C739   C807    1.383   .     S
C740   C742    1.403   .     A
C740   N768    1.434   .     S
C743   N752    1.366   .     A
C743   H747    1.082   .     S
C743   C1166   1.416   1_545 S
C744   N751    1.366   .     A
C744   H748    1.082   .     S
C744   C955    1.416   .     S
C745   H749    1.082   .     S
C745   N752    1.366   .     A
C745   C1164   1.416   1_545 S
C746   N751    1.366   .     A
C746   H750    1.082   .     S
C746   C953    1.416   .     S
N753   O754    1.301   .     A
N753   O755    1.301   .     A
N756   O757    1.301   .     A
N756   O758    1.301   .     A
N759   O760    1.301   .     A
N759   O761    1.301   .     A
N762   O763    1.301   .     A
N762   O764    1.301   .     A
N765   O766    1.301   .     A
N765   O767    1.301   .     A
N768   O770    1.301   .     A
N768   O769    1.301   .     A
O771   Zn783   1.991   .     S
O771   C775    1.277   .     A
O772   Zn784   1.991   .     S
O772   C776    1.277   .     A
O773   Zn783   1.989   .     S
O773   C776    1.279   .     A
O774   Zn784   1.989   .     S
O774   C775    1.279   .     A
C775   C812    1.412   .     S
C776   C811    1.412   .     S
O777   C781    1.286   .     A
O777   Zn783   2.019   .     S
O778   C782    1.286   .     A
O778   Zn784   2.019   .     S
O779   C782    1.286   .     A
O779   Zn783   2.016   .     S
O780   Zn784   2.016   .     S
O780   C781    1.286   .     A
C781   C788    1.436   .     S
C782   C787    1.436   .     S
Zn783  N821    2.007   .     S
Zn784  N822    2.007   .     S
C785   H801    1.085   .     S
C785   C795    1.382   .     A
C785   C787    1.393   .     A
C786   C796    1.382   .     A
C786   C788    1.393   .     A
C786   H802    1.085   .     S
C787   C789    1.395   .     A
C788   C790    1.395   .     A
C789   C791    1.390   .     A
C789   H803    1.081   .     S
C790   H804    1.081   .     S
C790   C792    1.390   .     A
C791   C793    1.418   .     A
C791   C797    1.414   .     A
C792   C798    1.414   .     A
C792   C794    1.418   .     A
C793   C795    1.411   .     A
C793   C164    1.392   1_556 S
C794   C796    1.411   .     A
C795   C800    1.397   .     A
C796   C799    1.397   .     A
C797   N823    1.438   .     S
C797   C169    1.393   1_556 S
C798   N826    1.438   .     S
C799   H805    1.085   .     S
C800   H806    1.085   .     S
C800   C168    1.393   1_556 S
C807   N829    1.438   .     S
C807   C812    1.404   .     A
C808   C811    1.404   .     A
C808   N832    1.438   .     S
C808   C670    1.383   1_655 S
C809   N835    1.434   .     S
C809   C811    1.403   .     A
C809   C667    1.383   1_655 S
C810   C812    1.403   .     A
C810   N838    1.434   .     S
C813   N822    1.366   .     A
C813   H817    1.082   .     S
C813   C1236   1.416   1_545 S
C814   N821    1.366   .     A
C814   H818    1.082   .     S
C814   C1025   1.416   .     S
C815   H819    1.082   .     S
C815   N822    1.366   .     A
C815   C1234   1.416   1_545 S
C816   N821    1.366   .     A
C816   H820    1.082   .     S
C816   C1023   1.416   .     S
N823   O824    1.301   .     A
N823   O825    1.301   .     A
N826   O827    1.301   .     A
N826   O828    1.301   .     A
N829   O830    1.301   .     A
N829   O831    1.301   .     A
N832   O833    1.301   .     A
N832   O834    1.301   .     A
N835   O836    1.301   .     A
N835   O837    1.301   .     A
N838   O840    1.301   .     A
N838   O839    1.301   .     A
O841   Zn853   1.991   .     S
O841   C845    1.277   .     A
O842   Zn854   1.991   .     S
O842   C846    1.277   .     A
O843   Zn853   1.989   .     S
O843   C846    1.279   .     A
O844   Zn854   1.989   .     S
O844   C845    1.279   .     A
C845   C882    1.412   .     S
C846   C881    1.412   .     S
O847   C851    1.286   .     A
O847   Zn853   2.019   .     S
O848   C852    1.286   .     A
O848   Zn854   2.019   .     S
O849   C852    1.286   .     A
O849   Zn853   2.016   .     S
O850   Zn854   2.016   .     S
O850   C851    1.286   .     A
C851   C858    1.436   .     S
C852   C857    1.436   .     S
Zn853  N891    2.007   .     S
Zn854  N892    2.007   .     S
C855   H871    1.085   .     S
C855   C865    1.382   .     A
C855   C857    1.393   .     A
C856   C866    1.382   .     A
C856   C858    1.393   .     A
C856   H872    1.085   .     S
C857   C859    1.395   .     A
C858   C860    1.395   .     A
C859   C861    1.390   .     A
C859   H873    1.081   .     S
C860   H874    1.081   .     S
C860   C862    1.390   .     A
C861   C863    1.418   .     A
C861   C867    1.414   .     A
C862   C868    1.414   .     A
C862   C864    1.418   .     A
C863   C865    1.411   .     A
C863   C234    1.392   1_556 S
C864   C866    1.411   .     A
C865   C870    1.397   .     A
C866   C869    1.397   .     A
C867   N893    1.438   .     S
C867   C239    1.393   1_556 S
C868   N896    1.438   .     S
C869   H875    1.085   .     S
C870   H876    1.085   .     S
C870   C238    1.393   1_556 S
C877   N899    1.438   .     S
C877   C882    1.404   .     A
C877   C1019   1.383   1_455 S
C878   C881    1.404   .     A
C878   N902    1.438   .     S
C878   C950    1.383   .     S
C879   N905    1.434   .     S
C879   C881    1.403   .     A
C879   C947    1.383   .     S
C880   C882    1.403   .     A
C880   N908    1.434   .     S
C880   C1018   1.383   1_455 S
C883   N892    1.366   .     A
C883   H887    1.082   .     S
C884   N891    1.366   .     A
C884   H888    1.082   .     S
C884   C1095   1.416   .     S
C885   H889    1.082   .     S
C885   N892    1.366   .     A
C886   N891    1.366   .     A
C886   H890    1.082   .     S
C886   C1093   1.416   .     S
N893   O894    1.301   .     A
N893   O895    1.301   .     A
N896   O897    1.301   .     A
N896   O898    1.301   .     A
N899   O900    1.301   .     A
N899   O901    1.301   .     A
N902   O903    1.301   .     A
N902   O904    1.301   .     A
N905   O906    1.301   .     A
N905   O907    1.301   .     A
N908   O910    1.301   .     A
N908   O909    1.301   .     A
O911   Zn923   1.991   .     S
O911   C915    1.277   .     A
O912   Zn924   1.991   .     S
O912   C916    1.277   .     A
O913   Zn923   1.989   .     S
O913   C916    1.279   .     A
O914   Zn924   1.989   .     S
O914   C915    1.279   .     A
C915   C952    1.412   .     S
C916   C951    1.412   .     S
O917   C921    1.286   .     A
O917   Zn923   2.019   .     S
O918   C922    1.286   .     A
O918   Zn924   2.019   .     S
O919   C922    1.286   .     A
O919   Zn923   2.016   .     S
O920   Zn924   2.016   .     S
O920   C921    1.286   .     A
C921   C928    1.436   .     S
C922   C927    1.436   .     S
Zn923  N961    2.007   .     S
Zn924  N962    2.007   .     S
C925   H941    1.085   .     S
C925   C935    1.382   .     A
C925   C927    1.393   .     A
C926   C936    1.382   .     A
C926   C928    1.393   .     A
C926   H942    1.085   .     S
C927   C929    1.395   .     A
C928   C930    1.395   .     A
C929   C931    1.390   .     A
C929   H943    1.081   .     S
C930   H944    1.081   .     S
C930   C932    1.390   .     A
C931   C933    1.418   .     A
C931   C937    1.414   .     A
C932   C938    1.414   .     A
C932   C934    1.418   .     A
C933   C935    1.411   .     A
C933   C304    1.392   1_556 S
C934   C936    1.411   .     A
C935   C940    1.397   .     A
C936   C939    1.397   .     A
C937   N963    1.438   .     S
C937   C309    1.393   1_556 S
C938   N966    1.438   .     S
C939   H945    1.085   .     S
C940   H946    1.085   .     S
C940   C308    1.393   1_556 S
C947   N969    1.438   .     S
C947   C952    1.404   .     A
C948   C951    1.404   .     A
C948   N972    1.438   .     S
C948   C1020   1.383   .     S
C949   N975    1.434   .     S
C949   C951    1.403   .     A
C949   C1017   1.383   .     S
C950   C952    1.403   .     A
C950   N978    1.434   .     S
C953   N962    1.366   .     A
C953   H957    1.082   .     S
C954   N961    1.366   .     A
C954   H958    1.082   .     S
C954   C1165   1.416   .     S
C955   H959    1.082   .     S
C955   N962    1.366   .     A
C956   N961    1.366   .     A
C956   H960    1.082   .     S
C956   C1163   1.416   .     S
N963   O964    1.301   .     A
N963   O965    1.301   .     A
N966   O967    1.301   .     A
N966   O968    1.301   .     A
N969   O970    1.301   .     A
N969   O971    1.301   .     A
N972   O973    1.301   .     A
N972   O974    1.301   .     A
N975   O976    1.301   .     A
N975   O977    1.301   .     A
N978   O980    1.301   .     A
N978   O979    1.301   .     A
O981   Zn993   1.991   .     S
O981   C985    1.277   .     A
O982   Zn994   1.991   .     S
O982   C986    1.277   .     A
O983   Zn993   1.989   .     S
O983   C986    1.279   .     A
O984   Zn994   1.989   .     S
O984   C985    1.279   .     A
C985   C1022   1.412   .     S
C986   C1021   1.412   .     S
O987   C991    1.286   .     A
O987   Zn993   2.019   .     S
O988   C992    1.286   .     A
O988   Zn994   2.019   .     S
O989   C992    1.286   .     A
O989   Zn993   2.016   .     S
O990   Zn994   2.016   .     S
O990   C991    1.286   .     A
C991   C998    1.436   .     S
C992   C997    1.436   .     S
Zn993  N1031   2.007   .     S
Zn994  N1032   2.007   .     S
C995   H1011   1.085   .     S
C995   C1005   1.382   .     A
C995   C997    1.393   .     A
C996   C1006   1.382   .     A
C996   C998    1.393   .     A
C996   H1012   1.085   .     S
C997   C999    1.395   .     A
C998   C1000   1.395   .     A
C999   C1001   1.390   .     A
C999   H1013   1.081   .     S
C1000  H1014   1.081   .     S
C1000  C1002   1.390   .     A
C1001  C1003   1.418   .     A
C1001  C1007   1.414   .     A
C1002  C1008   1.414   .     A
C1002  C1004   1.418   .     A
C1003  C1005   1.411   .     A
C1003  C374    1.392   1_556 S
C1004  C1006   1.411   .     A
C1005  C1010   1.397   .     A
C1006  C1009   1.397   .     A
C1007  N1033   1.438   .     S
C1007  C379    1.393   1_556 S
C1008  N1036   1.438   .     S
C1009  H1015   1.085   .     S
C1010  H1016   1.085   .     S
C1010  C378    1.393   1_556 S
C1017  N1039   1.438   .     S
C1017  C1022   1.404   .     A
C1018  C1021   1.404   .     A
C1018  N1042   1.438   .     S
C1018  C880    1.383   1_655 S
C1019  N1045   1.434   .     S
C1019  C1021   1.403   .     A
C1019  C877    1.383   1_655 S
C1020  C1022   1.403   .     A
C1020  N1048   1.434   .     S
C1023  N1032   1.366   .     A
C1023  H1027   1.082   .     S
C1024  N1031   1.366   .     A
C1024  H1028   1.082   .     S
C1024  C1235   1.416   .     S
C1025  H1029   1.082   .     S
C1025  N1032   1.366   .     A
C1026  N1031   1.366   .     A
C1026  H1030   1.082   .     S
C1026  C1233   1.416   .     S
N1033  O1034   1.301   .     A
N1033  O1035   1.301   .     A
N1036  O1037   1.301   .     A
N1036  O1038   1.301   .     A
N1039  O1040   1.301   .     A
N1039  O1041   1.301   .     A
N1042  O1043   1.301   .     A
N1042  O1044   1.301   .     A
N1045  O1046   1.301   .     A
N1045  O1047   1.301   .     A
N1048  O1050   1.301   .     A
N1048  O1049   1.301   .     A
O1051  Zn1063  1.991   .     S
O1051  C1055   1.277   .     A
O1052  Zn1064  1.991   .     S
O1052  C1056   1.277   .     A
O1053  Zn1063  1.989   .     S
O1053  C1056   1.279   .     A
O1054  Zn1064  1.989   .     S
O1054  C1055   1.279   .     A
C1055  C1092   1.412   .     S
C1056  C1091   1.412   .     S
O1057  C1061   1.286   .     A
O1057  Zn1063  2.019   .     S
O1058  C1062   1.286   .     A
O1058  Zn1064  2.019   .     S
O1059  C1062   1.286   .     A
O1059  Zn1063  2.016   .     S
O1060  Zn1064  2.016   .     S
O1060  C1061   1.286   .     A
C1061  C1068   1.436   .     S
C1062  C1067   1.436   .     S
Zn1063 N1101   2.007   .     S
Zn1064 N1102   2.007   .     S
C1065  H1081   1.085   .     S
C1065  C1075   1.382   .     A
C1065  C1067   1.393   .     A
C1066  C1076   1.382   .     A
C1066  C1068   1.393   .     A
C1066  H1082   1.085   .     S
C1067  C1069   1.395   .     A
C1068  C1070   1.395   .     A
C1069  C1071   1.390   .     A
C1069  H1083   1.081   .     S
C1070  H1084   1.081   .     S
C1070  C1072   1.390   .     A
C1071  C1073   1.418   .     A
C1071  C1077   1.414   .     A
C1072  C1078   1.414   .     A
C1072  C1074   1.418   .     A
C1073  C1075   1.411   .     A
C1073  C444    1.392   1_556 S
C1074  C1076   1.411   .     A
C1075  C1080   1.397   .     A
C1076  C1079   1.397   .     A
C1077  N1103   1.438   .     S
C1077  C449    1.393   1_556 S
C1078  N1106   1.438   .     S
C1079  H1085   1.085   .     S
C1080  H1086   1.085   .     S
C1080  C448    1.393   1_556 S
C1087  N1109   1.438   .     S
C1087  C1092   1.404   .     A
C1087  C1229   1.383   1_455 S
C1088  C1091   1.404   .     A
C1088  N1112   1.438   .     S
C1088  C1160   1.383   .     S
C1089  N1115   1.434   .     S
C1089  C1091   1.403   .     A
C1089  C1157   1.383   .     S
C1090  C1092   1.403   .     A
C1090  N1118   1.434   .     S
C1090  C1228   1.383   1_455 S
C1093  N1102   1.366   .     A
C1093  H1097   1.082   .     S
C1094  N1101   1.366   .     A
C1094  H1098   1.082   .     S
C1094  C675    1.416   1_565 S
C1095  H1099   1.082   .     S
C1095  N1102   1.366   .     A
C1096  N1101   1.366   .     A
C1096  H1100   1.082   .     S
C1096  C673    1.416   1_565 S
N1103  O1104   1.301   .     A
N1103  O1105   1.301   .     A
N1106  O1107   1.301   .     A
N1106  O1108   1.301   .     A
N1109  O1110   1.301   .     A
N1109  O1111   1.301   .     A
N1112  O1113   1.301   .     A
N1112  O1114   1.301   .     A
N1115  O1116   1.301   .     A
N1115  O1117   1.301   .     A
N1118  O1120   1.301   .     A
N1118  O1119   1.301   .     A
O1121  Zn1133  1.991   .     S
O1121  C1125   1.277   .     A
O1122  Zn1134  1.991   .     S
O1122  C1126   1.277   .     A
O1123  Zn1133  1.989   .     S
O1123  C1126   1.279   .     A
O1124  Zn1134  1.989   .     S
O1124  C1125   1.279   .     A
C1125  C1162   1.412   .     S
C1126  C1161   1.412   .     S
O1127  C1131   1.286   .     A
O1127  Zn1133  2.019   .     S
O1128  C1132   1.286   .     A
O1128  Zn1134  2.019   .     S
O1129  C1132   1.286   .     A
O1129  Zn1133  2.016   .     S
O1130  Zn1134  2.016   .     S
O1130  C1131   1.286   .     A
C1131  C1138   1.436   .     S
C1132  C1137   1.436   .     S
Zn1133 N1171   2.007   .     S
Zn1134 N1172   2.007   .     S
C1135  H1151   1.085   .     S
C1135  C1145   1.382   .     A
C1135  C1137   1.393   .     A
C1136  C1146   1.382   .     A
C1136  C1138   1.393   .     A
C1136  H1152   1.085   .     S
C1137  C1139   1.395   .     A
C1138  C1140   1.395   .     A
C1139  C1141   1.390   .     A
C1139  H1153   1.081   .     S
C1140  H1154   1.081   .     S
C1140  C1142   1.390   .     A
C1141  C1143   1.418   .     A
C1141  C1147   1.414   .     A
C1142  C1148   1.414   .     A
C1142  C1144   1.418   .     A
C1143  C1145   1.411   .     A
C1143  C514    1.392   1_556 S
C1144  C1146   1.411   .     A
C1145  C1150   1.397   .     A
C1146  C1149   1.397   .     A
C1147  N1173   1.438   .     S
C1147  C519    1.393   1_556 S
C1148  N1176   1.438   .     S
C1149  H1155   1.085   .     S
C1150  H1156   1.085   .     S
C1150  C518    1.393   1_556 S
C1157  N1179   1.438   .     S
C1157  C1162   1.404   .     A
C1158  C1161   1.404   .     A
C1158  N1182   1.438   .     S
C1158  C1230   1.383   .     S
C1159  N1185   1.434   .     S
C1159  C1161   1.403   .     A
C1159  C1227   1.383   .     S
C1160  C1162   1.403   .     A
C1160  N1188   1.434   .     S
C1163  N1172   1.366   .     A
C1163  H1167   1.082   .     S
C1164  N1171   1.366   .     A
C1164  H1168   1.082   .     S
C1164  C745    1.416   1_565 S
C1165  H1169   1.082   .     S
C1165  N1172   1.366   .     A
C1166  N1171   1.366   .     A
C1166  H1170   1.082   .     S
C1166  C743    1.416   1_565 S
N1173  O1174   1.301   .     A
N1173  O1175   1.301   .     A
N1176  O1177   1.301   .     A
N1176  O1178   1.301   .     A
N1179  O1180   1.301   .     A
N1179  O1181   1.301   .     A
N1182  O1183   1.301   .     A
N1182  O1184   1.301   .     A
N1185  O1186   1.301   .     A
N1185  O1187   1.301   .     A
N1188  O1190   1.301   .     A
N1188  O1189   1.301   .     A
O1191  Zn1203  1.991   .     S
O1191  C1195   1.277   .     A
O1192  Zn1204  1.991   .     S
O1192  C1196   1.277   .     A
O1193  Zn1203  1.989   .     S
O1193  C1196   1.279   .     A
O1194  Zn1204  1.989   .     S
O1194  C1195   1.279   .     A
C1195  C1232   1.412   .     S
C1196  C1231   1.412   .     S
O1197  C1201   1.286   .     A
O1197  Zn1203  2.019   .     S
O1198  C1202   1.286   .     A
O1198  Zn1204  2.019   .     S
O1199  C1202   1.286   .     A
O1199  Zn1203  2.016   .     S
O1200  Zn1204  2.016   .     S
O1200  C1201   1.286   .     A
C1201  C1208   1.436   .     S
C1202  C1207   1.436   .     S
Zn1203 N1241   2.007   .     S
Zn1204 N1242   2.007   .     S
C1205  H1221   1.085   .     S
C1205  C1215   1.382   .     A
C1205  C1207   1.393   .     A
C1206  C1216   1.382   .     A
C1206  C1208   1.393   .     A
C1206  H1222   1.085   .     S
C1207  C1209   1.395   .     A
C1208  C1210   1.395   .     A
C1209  C1211   1.390   .     A
C1209  H1223   1.081   .     S
C1210  H1224   1.081   .     S
C1210  C1212   1.390   .     A
C1211  C1213   1.418   .     A
C1211  C1217   1.414   .     A
C1212  C1218   1.414   .     A
C1212  C1214   1.418   .     A
C1213  C1215   1.411   .     A
C1213  C584    1.392   1_556 S
C1214  C1216   1.411   .     A
C1215  C1220   1.397   .     A
C1216  C1219   1.397   .     A
C1217  N1243   1.438   .     S
C1217  C589    1.393   1_556 S
C1218  N1246   1.438   .     S
C1219  H1225   1.085   .     S
C1220  H1226   1.085   .     S
C1220  C588    1.393   1_556 S
C1227  N1249   1.438   .     S
C1227  C1232   1.404   .     A
C1228  C1231   1.404   .     A
C1228  N1252   1.438   .     S
C1228  C1090   1.383   1_655 S
C1229  N1255   1.434   .     S
C1229  C1231   1.403   .     A
C1229  C1087   1.383   1_655 S
C1230  C1232   1.403   .     A
C1230  N1258   1.434   .     S
C1233  N1242   1.366   .     A
C1233  H1237   1.082   .     S
C1234  N1241   1.366   .     A
C1234  H1238   1.082   .     S
C1234  C815    1.416   1_565 S
C1235  H1239   1.082   .     S
C1235  N1242   1.366   .     A
C1236  N1241   1.366   .     A
C1236  H1240   1.082   .     S
C1236  C813    1.416   1_565 S
N1243  O1244   1.301   .     A
N1243  O1245   1.301   .     A
N1246  O1247   1.301   .     A
N1246  O1248   1.301   .     A
N1249  O1250   1.301   .     A
N1249  O1251   1.301   .     A
N1252  O1253   1.301   .     A
N1252  O1254   1.301   .     A
N1255  O1256   1.301   .     A
N1255  O1257   1.301   .     A
N1258  O1260   1.301   .     A
N1258  O1259   1.301   .     A
