data_str_m3_o2_o10_pcu_sym.144
_audit_creation_date              2020-01-03
_audit_creation_method            'Materials Studio'
_symmetry_space_group_name_H-M    'P1'
_symmetry_Int_Tables_number       1
_symmetry_cell_setting            triclinic
loop_
_symmetry_equiv_pos_as_xyz
  x,y,z
_cell_length_a                    25.6048
_cell_length_b                    29.9008
_cell_length_c                    28.7172
_cell_angle_alpha                 89.8647
_cell_angle_beta                  97.4687
_cell_angle_gamma                 92.6974
loop_
_atom_site_label
_atom_site_type_symbol
_atom_site_fract_x
_atom_site_fract_y
_atom_site_fract_z
_atom_site_U_iso_or_equiv
_atom_site_adp_type
_atom_site_occupancy
C1     C     0.16810   0.16398   0.25013   0.00000  Uiso   1.00
C2     C     0.16685   0.33573   0.25005   0.00000  Uiso   1.00
C3     C     0.14828   0.21380   0.05016   0.00000  Uiso   1.00
C4     C     0.20860   0.26824   0.45246   0.00000  Uiso   1.00
C5     C     0.14382   0.21502   0.09864   0.00000  Uiso   1.00
C6     C     0.20713   0.27095   0.40317   0.00000  Uiso   1.00
C7     C     0.18917   0.28617   0.10463   0.00000  Uiso   1.00
C8     C     0.12633   0.22763   0.39347   0.00000  Uiso   1.00
C9     C     0.18512   0.28926   0.05458   0.00000  Uiso   1.00
C10    C     0.12260   0.23112   0.44264   0.00000  Uiso   1.00
C11    C     0.16625   0.25155   0.02654   0.00000  Uiso   1.00
C12    C     0.16538   0.25058   0.47319   0.00000  Uiso   1.00
C13    C     0.06726   0.24951   0.23792   0.00000  Uiso   1.00
C14    C     0.26606   0.25247   0.26189   0.00000  Uiso   1.00
C15    C     0.01225   0.24622   0.23184   0.00000  Uiso   1.00
C16    C     0.32096   0.25912   0.26686   0.00000  Uiso   1.00
C17    C     0.19175   0.04774   0.29198   0.00000  Uiso   1.00
C18    C     0.13303   0.45233   0.22334   0.00000  Uiso   1.00
C19    C     0.18983   0.09387   0.29195   0.00000  Uiso   1.00
C20    C     0.13025   0.40613   0.22312   0.00000  Uiso   1.00
C21    C     0.17296   0.11608   0.25015   0.00000  Uiso   1.00
C22    C     0.16916   0.38333   0.25062   0.00000  Uiso   1.00
C23    C     0.16210   0.09235   0.20779   0.00000  Uiso   1.00
C24    C     0.21101   0.40597   0.27817   0.00000  Uiso   1.00
C25    C     0.16519   0.04646   0.20758   0.00000  Uiso   1.00
C26    C     0.21461   0.45220   0.27751   0.00000  Uiso   1.00
C27    C     0.17836   0.02392   0.24987   0.00000  Uiso   1.00
C28    C     0.17555   0.47548   0.25014   0.00000  Uiso   1.00
H29    H     0.32557   0.23106   0.19959   0.00000  Uiso   1.00
H30    H     0.00776   0.27515   0.29850   0.00000  Uiso   1.00
H31    H     0.20231   0.03070   0.32495   0.00000  Uiso   1.00
H32    H     0.10197   0.46994   0.20282   0.00000  Uiso   1.00
H33    H     0.20125   0.11197   0.32449   0.00000  Uiso   1.00
H34    H     0.09785   0.38821   0.20195   0.00000  Uiso   1.00
H35    H     0.15059   0.10901   0.17491   0.00000  Uiso   1.00
H36    H     0.24136   0.38785   0.29908   0.00000  Uiso   1.00
H37    H     0.15636   0.02851   0.17455   0.00000  Uiso   1.00
H38    H     0.24794   0.46969   0.29787   0.00000  Uiso   1.00
H39    H     0.13498   0.18377   0.03031   0.00000  Uiso   1.00
H40    H     0.24286   0.28203   0.47482   0.00000  Uiso   1.00
N41    N     0.16667   0.24999   0.12623   0.00000  Uiso   1.00
N42    N     0.16667   0.25001   0.37376   0.00000  Uiso   1.00
O43    O     0.16667   0.18454   0.28974   0.00000  Uiso   1.00
O44    O     0.16666   0.31547   0.21026   0.00000  Uiso   1.00
O45    O     0.16667   0.18453   0.21026   0.00000  Uiso   1.00
O46    O     0.16666   0.31547   0.28974   0.00000  Uiso   1.00
O47    O     0.09058   0.25000   0.28044   0.00000  Uiso   1.00
O48    O     0.24275   0.25000   0.21955   0.00000  Uiso   1.00
O49    O     0.09058   0.25000   0.20096   0.00000  Uiso   1.00
O50    O     0.24275   0.25001   0.29903   0.00000  Uiso   1.00
Zn51   Zn    0.16667   0.25001   0.30307   0.00000  Uiso   1.00
Zn52   Zn    0.16667   0.25000   0.19693   0.00000  Uiso   1.00
C53    C     0.11097   0.17946   0.11798   0.00000  Uiso   1.00
H54    H     0.09385   0.18501   0.14974   0.00000  Uiso   1.00
O55    O     0.10058   0.14379   0.09743   0.00000  Uiso   1.00
C56    C     0.24952   0.29769   0.38425   0.00000  Uiso   1.00
H57    H     0.24252   0.31317   0.35020   0.00000  Uiso   1.00
O58    O     0.29287   0.30381   0.40722   0.00000  Uiso   1.00
C59    C     0.21978   0.32215   0.13279   0.00000  Uiso   1.00
C60    C     0.19988   0.36505   0.13515   0.00000  Uiso   1.00
C61    C     0.23151   0.40011   0.15759   0.00000  Uiso   1.00
C62    C     0.28299   0.39264   0.17782   0.00000  Uiso   1.00
C63    C     0.30343   0.35042   0.17447   0.00000  Uiso   1.00
C64    C     0.27228   0.31561   0.15118   0.00000  Uiso   1.00
H65    H     0.16010   0.37124   0.11945   0.00000  Uiso   1.00
H66    H     0.21604   0.43303   0.15945   0.00000  Uiso   1.00
H67    H     0.30726   0.41969   0.19554   0.00000  Uiso   1.00
H68    H     0.01032   0.34483   0.18923   0.00000  Uiso   1.00
H69    H     0.28926   0.28375   0.14657   0.00000  Uiso   1.00
C70    C     0.08959   0.19537   0.36532   0.00000  Uiso   1.00
C71    C     0.03578   0.20355   0.35487   0.00000  Uiso   1.00
C72    C     0.00022   0.17020   0.33386   0.00000  Uiso   1.00
C73    C     0.01800   0.12836   0.32364   0.00000  Uiso   1.00
C74    C     0.07097   0.11923   0.33605   0.00000  Uiso   1.00
C75    C     0.10624   0.15225   0.35788   0.00000  Uiso   1.00
H76    H     0.02119   0.23498   0.36501   0.00000  Uiso   1.00
H77    H     0.29206   0.17642   0.32627   0.00000  Uiso   1.00
H78    H     0.32380   0.10263   0.30736   0.00000  Uiso   1.00
H79    H     0.08444   0.08628   0.32973   0.00000  Uiso   1.00
H80    H     0.14645   0.14413   0.36994   0.00000  Uiso   1.00
C81    C     0.19935   0.33248   0.03251   0.00000  Uiso   1.00
H82    H     0.23346   0.35289   0.04766   0.00000  Uiso   1.00
O83    O     0.17191   0.34641   0.49805   0.00000  Uiso   1.00
C84    C     0.07355   0.21628   0.46211   0.00000  Uiso   1.00
H85    H     0.05796   0.23760   0.48704   0.00000  Uiso   1.00
O86    O     0.05204   0.17948   0.45287   0.00000  Uiso   1.00
C87    C     0.50144   0.16398   0.25013   0.00000  Uiso   1.00
C88    C     0.50018   0.33573   0.25005   0.00000  Uiso   1.00
C89    C     0.48162   0.21380   0.05016   0.00000  Uiso   1.00
C90    C     0.54194   0.26824   0.45246   0.00000  Uiso   1.00
C91    C     0.47716   0.21502   0.09864   0.00000  Uiso   1.00
C92    C     0.54047   0.27095   0.40317   0.00000  Uiso   1.00
C93    C     0.52251   0.28617   0.10463   0.00000  Uiso   1.00
C94    C     0.45966   0.22763   0.39347   0.00000  Uiso   1.00
C95    C     0.51845   0.28926   0.05458   0.00000  Uiso   1.00
C96    C     0.45593   0.23112   0.44264   0.00000  Uiso   1.00
C97    C     0.49959   0.25155   0.02654   0.00000  Uiso   1.00
C98    C     0.49872   0.25058   0.47319   0.00000  Uiso   1.00
C99    C     0.40059   0.24951   0.23792   0.00000  Uiso   1.00
C100   C     0.59939   0.25247   0.26189   0.00000  Uiso   1.00
C101   C     0.34559   0.24622   0.23184   0.00000  Uiso   1.00
C102   C     0.65429   0.25912   0.26686   0.00000  Uiso   1.00
C103   C     0.52508   0.04774   0.29198   0.00000  Uiso   1.00
C104   C     0.46637   0.45233   0.22334   0.00000  Uiso   1.00
C105   C     0.52316   0.09387   0.29195   0.00000  Uiso   1.00
C106   C     0.46359   0.40613   0.22312   0.00000  Uiso   1.00
C107   C     0.50629   0.11608   0.25015   0.00000  Uiso   1.00
C108   C     0.50249   0.38333   0.25062   0.00000  Uiso   1.00
C109   C     0.49543   0.09235   0.20779   0.00000  Uiso   1.00
C110   C     0.54435   0.40597   0.27817   0.00000  Uiso   1.00
C111   C     0.49852   0.04646   0.20758   0.00000  Uiso   1.00
C112   C     0.54794   0.45220   0.27751   0.00000  Uiso   1.00
C113   C     0.51169   0.02392   0.24987   0.00000  Uiso   1.00
C114   C     0.50888   0.47548   0.25014   0.00000  Uiso   1.00
H115   H     0.65890   0.23106   0.19959   0.00000  Uiso   1.00
H116   H     0.34109   0.27515   0.29850   0.00000  Uiso   1.00
H117   H     0.53564   0.03070   0.32495   0.00000  Uiso   1.00
H118   H     0.43530   0.46994   0.20282   0.00000  Uiso   1.00
H119   H     0.53458   0.11197   0.32449   0.00000  Uiso   1.00
H120   H     0.43119   0.38821   0.20195   0.00000  Uiso   1.00
H121   H     0.48393   0.10901   0.17491   0.00000  Uiso   1.00
H122   H     0.57469   0.38785   0.29908   0.00000  Uiso   1.00
H123   H     0.48969   0.02851   0.17455   0.00000  Uiso   1.00
H124   H     0.58127   0.46969   0.29787   0.00000  Uiso   1.00
H125   H     0.46831   0.18377   0.03031   0.00000  Uiso   1.00
H126   H     0.57619   0.28203   0.47482   0.00000  Uiso   1.00
N127   N     0.50000   0.24999   0.12623   0.00000  Uiso   1.00
N128   N     0.50000   0.25001   0.37376   0.00000  Uiso   1.00
O129   O     0.50000   0.18454   0.28974   0.00000  Uiso   1.00
O130   O     0.50000   0.31547   0.21026   0.00000  Uiso   1.00
O131   O     0.50000   0.18453   0.21026   0.00000  Uiso   1.00
O132   O     0.50000   0.31547   0.28974   0.00000  Uiso   1.00
O133   O     0.42392   0.25000   0.28044   0.00000  Uiso   1.00
O134   O     0.57608   0.25000   0.21955   0.00000  Uiso   1.00
O135   O     0.42392   0.25000   0.20096   0.00000  Uiso   1.00
O136   O     0.57608   0.25001   0.29903   0.00000  Uiso   1.00
Zn137  Zn    0.50000   0.25001   0.30307   0.00000  Uiso   1.00
Zn138  Zn    0.50000   0.25000   0.19693   0.00000  Uiso   1.00
C139   C     0.44431   0.17946   0.11798   0.00000  Uiso   1.00
H140   H     0.42719   0.18501   0.14974   0.00000  Uiso   1.00
O141   O     0.43391   0.14379   0.09743   0.00000  Uiso   1.00
C142   C     0.58285   0.29769   0.38425   0.00000  Uiso   1.00
H143   H     0.57585   0.31317   0.35020   0.00000  Uiso   1.00
O144   O     0.62620   0.30381   0.40722   0.00000  Uiso   1.00
C145   C     0.55312   0.32215   0.13279   0.00000  Uiso   1.00
C146   C     0.53321   0.36505   0.13515   0.00000  Uiso   1.00
C147   C     0.56484   0.40011   0.15759   0.00000  Uiso   1.00
C148   C     0.61633   0.39264   0.17782   0.00000  Uiso   1.00
C149   C     0.63676   0.35042   0.17447   0.00000  Uiso   1.00
C150   C     0.60561   0.31561   0.15118   0.00000  Uiso   1.00
H151   H     0.49343   0.37124   0.11945   0.00000  Uiso   1.00
H152   H     0.54938   0.43303   0.15945   0.00000  Uiso   1.00
H153   H     0.64059   0.41969   0.19554   0.00000  Uiso   1.00
H154   H     0.34365   0.34483   0.18923   0.00000  Uiso   1.00
H155   H     0.62259   0.28375   0.14657   0.00000  Uiso   1.00
C156   C     0.42292   0.19537   0.36532   0.00000  Uiso   1.00
C157   C     0.36911   0.20355   0.35487   0.00000  Uiso   1.00
C158   C     0.33356   0.17020   0.33386   0.00000  Uiso   1.00
C159   C     0.35133   0.12836   0.32364   0.00000  Uiso   1.00
C160   C     0.40430   0.11923   0.33605   0.00000  Uiso   1.00
C161   C     0.43957   0.15225   0.35788   0.00000  Uiso   1.00
H162   H     0.35452   0.23498   0.36501   0.00000  Uiso   1.00
H163   H     0.62539   0.17642   0.32627   0.00000  Uiso   1.00
H164   H     0.65713   0.10263   0.30736   0.00000  Uiso   1.00
H165   H     0.41777   0.08628   0.32973   0.00000  Uiso   1.00
H166   H     0.47978   0.14413   0.36994   0.00000  Uiso   1.00
C167   C     0.53268   0.33248   0.03251   0.00000  Uiso   1.00
H168   H     0.56679   0.35289   0.04766   0.00000  Uiso   1.00
O169   O     0.50524   0.34641   0.49805   0.00000  Uiso   1.00
C170   C     0.40688   0.21628   0.46211   0.00000  Uiso   1.00
H171   H     0.39129   0.23760   0.48704   0.00000  Uiso   1.00
O172   O     0.38538   0.17948   0.45287   0.00000  Uiso   1.00
C173   C     0.83477   0.16398   0.25013   0.00000  Uiso   1.00
C174   C     0.83352   0.33573   0.25005   0.00000  Uiso   1.00
C175   C     0.81495   0.21380   0.05016   0.00000  Uiso   1.00
C176   C     0.87527   0.26824   0.45246   0.00000  Uiso   1.00
C177   C     0.81049   0.21502   0.09864   0.00000  Uiso   1.00
C178   C     0.87380   0.27095   0.40317   0.00000  Uiso   1.00
C179   C     0.85584   0.28617   0.10463   0.00000  Uiso   1.00
C180   C     0.79299   0.22763   0.39347   0.00000  Uiso   1.00
C181   C     0.85179   0.28926   0.05458   0.00000  Uiso   1.00
C182   C     0.78926   0.23112   0.44264   0.00000  Uiso   1.00
C183   C     0.83292   0.25155   0.02654   0.00000  Uiso   1.00
C184   C     0.83205   0.25058   0.47319   0.00000  Uiso   1.00
C185   C     0.73393   0.24951   0.23792   0.00000  Uiso   1.00
C186   C     0.93272   0.25247   0.26189   0.00000  Uiso   1.00
C187   C     0.67892   0.24622   0.23184   0.00000  Uiso   1.00
C188   C     0.98763   0.25912   0.26686   0.00000  Uiso   1.00
C189   C     0.85841   0.04774   0.29198   0.00000  Uiso   1.00
C190   C     0.79970   0.45233   0.22334   0.00000  Uiso   1.00
C191   C     0.85649   0.09387   0.29195   0.00000  Uiso   1.00
C192   C     0.79692   0.40613   0.22312   0.00000  Uiso   1.00
C193   C     0.83962   0.11608   0.25015   0.00000  Uiso   1.00
C194   C     0.83583   0.38333   0.25062   0.00000  Uiso   1.00
C195   C     0.82876   0.09235   0.20779   0.00000  Uiso   1.00
C196   C     0.87768   0.40597   0.27817   0.00000  Uiso   1.00
C197   C     0.83185   0.04646   0.20758   0.00000  Uiso   1.00
C198   C     0.88127   0.45220   0.27751   0.00000  Uiso   1.00
C199   C     0.84502   0.02392   0.24987   0.00000  Uiso   1.00
C200   C     0.84222   0.47548   0.25014   0.00000  Uiso   1.00
H201   H     0.99223   0.23106   0.19959   0.00000  Uiso   1.00
H202   H     0.67443   0.27515   0.29850   0.00000  Uiso   1.00
H203   H     0.86897   0.03070   0.32495   0.00000  Uiso   1.00
H204   H     0.76864   0.46994   0.20282   0.00000  Uiso   1.00
H205   H     0.86792   0.11197   0.32449   0.00000  Uiso   1.00
H206   H     0.76452   0.38821   0.20195   0.00000  Uiso   1.00
H207   H     0.81726   0.10901   0.17491   0.00000  Uiso   1.00
H208   H     0.90803   0.38785   0.29908   0.00000  Uiso   1.00
H209   H     0.82302   0.02851   0.17455   0.00000  Uiso   1.00
H210   H     0.91460   0.46969   0.29787   0.00000  Uiso   1.00
H211   H     0.80165   0.18377   0.03031   0.00000  Uiso   1.00
H212   H     0.90953   0.28203   0.47482   0.00000  Uiso   1.00
N213   N     0.83333   0.24999   0.12623   0.00000  Uiso   1.00
N214   N     0.83333   0.25001   0.37376   0.00000  Uiso   1.00
O215   O     0.83334   0.18454   0.28974   0.00000  Uiso   1.00
O216   O     0.83333   0.31547   0.21026   0.00000  Uiso   1.00
O217   O     0.83334   0.18453   0.21026   0.00000  Uiso   1.00
O218   O     0.83333   0.31547   0.28974   0.00000  Uiso   1.00
O219   O     0.75725   0.25000   0.28044   0.00000  Uiso   1.00
O220   O     0.90942   0.25000   0.21955   0.00000  Uiso   1.00
O221   O     0.75725   0.25000   0.20096   0.00000  Uiso   1.00
O222   O     0.90942   0.25001   0.29903   0.00000  Uiso   1.00
Zn223  Zn    0.83333   0.25001   0.30307   0.00000  Uiso   1.00
Zn224  Zn    0.83333   0.25000   0.19693   0.00000  Uiso   1.00
C225   C     0.77764   0.17946   0.11798   0.00000  Uiso   1.00
H226   H     0.76052   0.18501   0.14974   0.00000  Uiso   1.00
O227   O     0.76725   0.14379   0.09743   0.00000  Uiso   1.00
C228   C     0.91618   0.29769   0.38425   0.00000  Uiso   1.00
H229   H     0.90919   0.31317   0.35020   0.00000  Uiso   1.00
O230   O     0.95954   0.30381   0.40722   0.00000  Uiso   1.00
C231   C     0.88645   0.32215   0.13279   0.00000  Uiso   1.00
C232   C     0.86654   0.36505   0.13515   0.00000  Uiso   1.00
C233   C     0.89818   0.40011   0.15759   0.00000  Uiso   1.00
C234   C     0.94966   0.39264   0.17782   0.00000  Uiso   1.00
C235   C     0.97009   0.35042   0.17447   0.00000  Uiso   1.00
C236   C     0.93894   0.31561   0.15118   0.00000  Uiso   1.00
H237   H     0.82676   0.37124   0.11945   0.00000  Uiso   1.00
H238   H     0.88271   0.43303   0.15945   0.00000  Uiso   1.00
H239   H     0.97392   0.41969   0.19554   0.00000  Uiso   1.00
H240   H     0.67699   0.34483   0.18923   0.00000  Uiso   1.00
H241   H     0.95592   0.28375   0.14657   0.00000  Uiso   1.00
C242   C     0.75625   0.19537   0.36532   0.00000  Uiso   1.00
C243   C     0.70244   0.20355   0.35487   0.00000  Uiso   1.00
C244   C     0.66689   0.17020   0.33386   0.00000  Uiso   1.00
C245   C     0.68467   0.12836   0.32364   0.00000  Uiso   1.00
C246   C     0.73763   0.11923   0.33605   0.00000  Uiso   1.00
C247   C     0.77291   0.15225   0.35788   0.00000  Uiso   1.00
H248   H     0.68785   0.23498   0.36501   0.00000  Uiso   1.00
H249   H     0.95873   0.17642   0.32627   0.00000  Uiso   1.00
H250   H     0.99046   0.10263   0.30736   0.00000  Uiso   1.00
H251   H     0.75111   0.08628   0.32973   0.00000  Uiso   1.00
H252   H     0.81311   0.14413   0.36994   0.00000  Uiso   1.00
C253   C     0.86602   0.33248   0.03251   0.00000  Uiso   1.00
H254   H     0.90013   0.35289   0.04766   0.00000  Uiso   1.00
O255   O     0.83858   0.34641   0.49805   0.00000  Uiso   1.00
C256   C     0.74021   0.21628   0.46211   0.00000  Uiso   1.00
H257   H     0.72462   0.23760   0.48704   0.00000  Uiso   1.00
O258   O     0.71871   0.17948   0.45287   0.00000  Uiso   1.00
C259   C     0.16810   0.66398   0.25013   0.00000  Uiso   1.00
C260   C     0.16685   0.83573   0.25005   0.00000  Uiso   1.00
C261   C     0.14828   0.71380   0.05016   0.00000  Uiso   1.00
C262   C     0.20860   0.76824   0.45246   0.00000  Uiso   1.00
C263   C     0.14382   0.71502   0.09864   0.00000  Uiso   1.00
C264   C     0.20713   0.77095   0.40317   0.00000  Uiso   1.00
C265   C     0.18917   0.78617   0.10463   0.00000  Uiso   1.00
C266   C     0.12633   0.72763   0.39347   0.00000  Uiso   1.00
C267   C     0.18512   0.78926   0.05458   0.00000  Uiso   1.00
C268   C     0.12260   0.73112   0.44264   0.00000  Uiso   1.00
C269   C     0.16625   0.75155   0.02654   0.00000  Uiso   1.00
C270   C     0.16538   0.75058   0.47319   0.00000  Uiso   1.00
C271   C     0.06726   0.74951   0.23792   0.00000  Uiso   1.00
C272   C     0.26606   0.75247   0.26189   0.00000  Uiso   1.00
C273   C     0.01225   0.74622   0.23184   0.00000  Uiso   1.00
C274   C     0.32096   0.75912   0.26686   0.00000  Uiso   1.00
C275   C     0.19175   0.54774   0.29198   0.00000  Uiso   1.00
C276   C     0.13303   0.95233   0.22334   0.00000  Uiso   1.00
C277   C     0.18983   0.59387   0.29195   0.00000  Uiso   1.00
C278   C     0.13025   0.90613   0.22312   0.00000  Uiso   1.00
C279   C     0.17296   0.61608   0.25015   0.00000  Uiso   1.00
C280   C     0.16916   0.88333   0.25062   0.00000  Uiso   1.00
C281   C     0.16210   0.59235   0.20779   0.00000  Uiso   1.00
C282   C     0.21101   0.90597   0.27817   0.00000  Uiso   1.00
C283   C     0.16519   0.54646   0.20758   0.00000  Uiso   1.00
C284   C     0.21461   0.95220   0.27751   0.00000  Uiso   1.00
C285   C     0.17836   0.52392   0.24987   0.00000  Uiso   1.00
C286   C     0.17555   0.97548   0.25014   0.00000  Uiso   1.00
H287   H     0.32557   0.73106   0.19959   0.00000  Uiso   1.00
H288   H     0.00776   0.77515   0.29850   0.00000  Uiso   1.00
H289   H     0.20231   0.53070   0.32495   0.00000  Uiso   1.00
H290   H     0.10197   0.96994   0.20282   0.00000  Uiso   1.00
H291   H     0.20125   0.61197   0.32449   0.00000  Uiso   1.00
H292   H     0.09785   0.88821   0.20195   0.00000  Uiso   1.00
H293   H     0.15059   0.60901   0.17491   0.00000  Uiso   1.00
H294   H     0.24136   0.88785   0.29908   0.00000  Uiso   1.00
H295   H     0.15636   0.52851   0.17455   0.00000  Uiso   1.00
H296   H     0.24794   0.96969   0.29787   0.00000  Uiso   1.00
H297   H     0.13498   0.68377   0.03031   0.00000  Uiso   1.00
H298   H     0.24286   0.78203   0.47482   0.00000  Uiso   1.00
N299   N     0.16667   0.74999   0.12623   0.00000  Uiso   1.00
N300   N     0.16667   0.75001   0.37376   0.00000  Uiso   1.00
O301   O     0.16667   0.68454   0.28974   0.00000  Uiso   1.00
O302   O     0.16666   0.81547   0.21026   0.00000  Uiso   1.00
O303   O     0.16667   0.68453   0.21026   0.00000  Uiso   1.00
O304   O     0.16666   0.81547   0.28974   0.00000  Uiso   1.00
O305   O     0.09058   0.75000   0.28044   0.00000  Uiso   1.00
O306   O     0.24275   0.75000   0.21955   0.00000  Uiso   1.00
O307   O     0.09058   0.75000   0.20096   0.00000  Uiso   1.00
O308   O     0.24275   0.75001   0.29903   0.00000  Uiso   1.00
Zn309  Zn    0.16667   0.75001   0.30307   0.00000  Uiso   1.00
Zn310  Zn    0.16667   0.75000   0.19693   0.00000  Uiso   1.00
C311   C     0.11097   0.67946   0.11798   0.00000  Uiso   1.00
H312   H     0.09385   0.68501   0.14974   0.00000  Uiso   1.00
O313   O     0.10058   0.64379   0.09743   0.00000  Uiso   1.00
C314   C     0.24952   0.79769   0.38425   0.00000  Uiso   1.00
H315   H     0.24252   0.81317   0.35020   0.00000  Uiso   1.00
O316   O     0.29287   0.80381   0.40722   0.00000  Uiso   1.00
C317   C     0.21978   0.82215   0.13279   0.00000  Uiso   1.00
C318   C     0.19988   0.86505   0.13515   0.00000  Uiso   1.00
C319   C     0.23151   0.90011   0.15759   0.00000  Uiso   1.00
C320   C     0.28299   0.89264   0.17782   0.00000  Uiso   1.00
C321   C     0.30343   0.85042   0.17447   0.00000  Uiso   1.00
C322   C     0.27228   0.81561   0.15118   0.00000  Uiso   1.00
H323   H     0.16010   0.87124   0.11945   0.00000  Uiso   1.00
H324   H     0.21604   0.93303   0.15945   0.00000  Uiso   1.00
H325   H     0.30726   0.91969   0.19554   0.00000  Uiso   1.00
H326   H     0.01032   0.84483   0.18923   0.00000  Uiso   1.00
H327   H     0.28926   0.78375   0.14657   0.00000  Uiso   1.00
C328   C     0.08959   0.69537   0.36532   0.00000  Uiso   1.00
C329   C     0.03578   0.70355   0.35487   0.00000  Uiso   1.00
C330   C     0.00022   0.67020   0.33386   0.00000  Uiso   1.00
C331   C     0.01800   0.62836   0.32364   0.00000  Uiso   1.00
C332   C     0.07097   0.61923   0.33605   0.00000  Uiso   1.00
C333   C     0.10624   0.65225   0.35788   0.00000  Uiso   1.00
H334   H     0.02119   0.73498   0.36501   0.00000  Uiso   1.00
H335   H     0.29206   0.67642   0.32627   0.00000  Uiso   1.00
H336   H     0.32380   0.60263   0.30736   0.00000  Uiso   1.00
H337   H     0.08444   0.58628   0.32973   0.00000  Uiso   1.00
H338   H     0.14645   0.64413   0.36994   0.00000  Uiso   1.00
C339   C     0.19935   0.83248   0.03251   0.00000  Uiso   1.00
H340   H     0.23346   0.85289   0.04766   0.00000  Uiso   1.00
O341   O     0.17191   0.84641   0.49805   0.00000  Uiso   1.00
C342   C     0.07355   0.71628   0.46211   0.00000  Uiso   1.00
H343   H     0.05796   0.73760   0.48704   0.00000  Uiso   1.00
O344   O     0.05204   0.67948   0.45287   0.00000  Uiso   1.00
C345   C     0.50144   0.66398   0.25013   0.00000  Uiso   1.00
C346   C     0.50018   0.83573   0.25005   0.00000  Uiso   1.00
C347   C     0.48162   0.71380   0.05016   0.00000  Uiso   1.00
C348   C     0.54194   0.76824   0.45246   0.00000  Uiso   1.00
C349   C     0.47716   0.71502   0.09864   0.00000  Uiso   1.00
C350   C     0.54047   0.77095   0.40317   0.00000  Uiso   1.00
C351   C     0.52251   0.78617   0.10463   0.00000  Uiso   1.00
C352   C     0.45966   0.72763   0.39347   0.00000  Uiso   1.00
C353   C     0.51845   0.78926   0.05458   0.00000  Uiso   1.00
C354   C     0.45593   0.73112   0.44264   0.00000  Uiso   1.00
C355   C     0.49959   0.75155   0.02654   0.00000  Uiso   1.00
C356   C     0.49872   0.75058   0.47319   0.00000  Uiso   1.00
C357   C     0.40059   0.74951   0.23792   0.00000  Uiso   1.00
C358   C     0.59939   0.75247   0.26189   0.00000  Uiso   1.00
C359   C     0.34559   0.74622   0.23184   0.00000  Uiso   1.00
C360   C     0.65429   0.75912   0.26686   0.00000  Uiso   1.00
C361   C     0.52508   0.54774   0.29198   0.00000  Uiso   1.00
C362   C     0.46637   0.95233   0.22334   0.00000  Uiso   1.00
C363   C     0.52316   0.59387   0.29195   0.00000  Uiso   1.00
C364   C     0.46359   0.90613   0.22312   0.00000  Uiso   1.00
C365   C     0.50629   0.61608   0.25015   0.00000  Uiso   1.00
C366   C     0.50249   0.88333   0.25062   0.00000  Uiso   1.00
C367   C     0.49543   0.59235   0.20779   0.00000  Uiso   1.00
C368   C     0.54435   0.90597   0.27817   0.00000  Uiso   1.00
C369   C     0.49852   0.54646   0.20758   0.00000  Uiso   1.00
C370   C     0.54794   0.95220   0.27751   0.00000  Uiso   1.00
C371   C     0.51169   0.52392   0.24987   0.00000  Uiso   1.00
C372   C     0.50888   0.97548   0.25014   0.00000  Uiso   1.00
H373   H     0.65890   0.73106   0.19959   0.00000  Uiso   1.00
H374   H     0.34109   0.77515   0.29850   0.00000  Uiso   1.00
H375   H     0.53564   0.53070   0.32495   0.00000  Uiso   1.00
H376   H     0.43530   0.96994   0.20282   0.00000  Uiso   1.00
H377   H     0.53458   0.61197   0.32449   0.00000  Uiso   1.00
H378   H     0.43119   0.88821   0.20195   0.00000  Uiso   1.00
H379   H     0.48393   0.60901   0.17491   0.00000  Uiso   1.00
H380   H     0.57469   0.88785   0.29908   0.00000  Uiso   1.00
H381   H     0.48969   0.52851   0.17455   0.00000  Uiso   1.00
H382   H     0.58127   0.96969   0.29787   0.00000  Uiso   1.00
H383   H     0.46831   0.68377   0.03031   0.00000  Uiso   1.00
H384   H     0.57619   0.78203   0.47482   0.00000  Uiso   1.00
N385   N     0.50000   0.74999   0.12623   0.00000  Uiso   1.00
N386   N     0.50000   0.75001   0.37376   0.00000  Uiso   1.00
O387   O     0.50000   0.68454   0.28974   0.00000  Uiso   1.00
O388   O     0.50000   0.81547   0.21026   0.00000  Uiso   1.00
O389   O     0.50000   0.68453   0.21026   0.00000  Uiso   1.00
O390   O     0.50000   0.81547   0.28974   0.00000  Uiso   1.00
O391   O     0.42392   0.75000   0.28044   0.00000  Uiso   1.00
O392   O     0.57608   0.75000   0.21955   0.00000  Uiso   1.00
O393   O     0.42392   0.75000   0.20096   0.00000  Uiso   1.00
O394   O     0.57608   0.75001   0.29903   0.00000  Uiso   1.00
Zn395  Zn    0.50000   0.75001   0.30307   0.00000  Uiso   1.00
Zn396  Zn    0.50000   0.75000   0.19693   0.00000  Uiso   1.00
C397   C     0.44431   0.67946   0.11798   0.00000  Uiso   1.00
H398   H     0.42719   0.68501   0.14974   0.00000  Uiso   1.00
O399   O     0.43391   0.64379   0.09743   0.00000  Uiso   1.00
C400   C     0.58285   0.79769   0.38425   0.00000  Uiso   1.00
H401   H     0.57585   0.81317   0.35020   0.00000  Uiso   1.00
O402   O     0.62620   0.80381   0.40722   0.00000  Uiso   1.00
C403   C     0.55312   0.82215   0.13279   0.00000  Uiso   1.00
C404   C     0.53321   0.86505   0.13515   0.00000  Uiso   1.00
C405   C     0.56484   0.90011   0.15759   0.00000  Uiso   1.00
C406   C     0.61633   0.89264   0.17782   0.00000  Uiso   1.00
C407   C     0.63676   0.85042   0.17447   0.00000  Uiso   1.00
C408   C     0.60561   0.81561   0.15118   0.00000  Uiso   1.00
H409   H     0.49343   0.87124   0.11945   0.00000  Uiso   1.00
H410   H     0.54938   0.93303   0.15945   0.00000  Uiso   1.00
H411   H     0.64059   0.91969   0.19554   0.00000  Uiso   1.00
H412   H     0.34365   0.84483   0.18923   0.00000  Uiso   1.00
H413   H     0.62259   0.78375   0.14657   0.00000  Uiso   1.00
C414   C     0.42292   0.69537   0.36532   0.00000  Uiso   1.00
C415   C     0.36911   0.70355   0.35487   0.00000  Uiso   1.00
C416   C     0.33356   0.67020   0.33386   0.00000  Uiso   1.00
C417   C     0.35133   0.62836   0.32364   0.00000  Uiso   1.00
C418   C     0.40430   0.61923   0.33605   0.00000  Uiso   1.00
C419   C     0.43957   0.65225   0.35788   0.00000  Uiso   1.00
H420   H     0.35452   0.73498   0.36501   0.00000  Uiso   1.00
H421   H     0.62539   0.67642   0.32627   0.00000  Uiso   1.00
H422   H     0.65713   0.60263   0.30736   0.00000  Uiso   1.00
H423   H     0.41777   0.58628   0.32973   0.00000  Uiso   1.00
H424   H     0.47978   0.64413   0.36994   0.00000  Uiso   1.00
C425   C     0.53268   0.83248   0.03251   0.00000  Uiso   1.00
H426   H     0.56679   0.85289   0.04766   0.00000  Uiso   1.00
O427   O     0.50524   0.84641   0.49805   0.00000  Uiso   1.00
C428   C     0.40688   0.71628   0.46211   0.00000  Uiso   1.00
H429   H     0.39129   0.73760   0.48704   0.00000  Uiso   1.00
O430   O     0.38538   0.67948   0.45287   0.00000  Uiso   1.00
C431   C     0.83477   0.66398   0.25013   0.00000  Uiso   1.00
C432   C     0.83352   0.83573   0.25005   0.00000  Uiso   1.00
C433   C     0.81495   0.71380   0.05016   0.00000  Uiso   1.00
C434   C     0.87527   0.76824   0.45246   0.00000  Uiso   1.00
C435   C     0.81049   0.71502   0.09864   0.00000  Uiso   1.00
C436   C     0.87380   0.77095   0.40317   0.00000  Uiso   1.00
C437   C     0.85584   0.78617   0.10463   0.00000  Uiso   1.00
C438   C     0.79299   0.72763   0.39347   0.00000  Uiso   1.00
C439   C     0.85179   0.78926   0.05458   0.00000  Uiso   1.00
C440   C     0.78926   0.73112   0.44264   0.00000  Uiso   1.00
C441   C     0.83292   0.75155   0.02654   0.00000  Uiso   1.00
C442   C     0.83205   0.75058   0.47319   0.00000  Uiso   1.00
C443   C     0.73393   0.74951   0.23792   0.00000  Uiso   1.00
C444   C     0.93272   0.75247   0.26189   0.00000  Uiso   1.00
C445   C     0.67892   0.74622   0.23184   0.00000  Uiso   1.00
C446   C     0.98763   0.75912   0.26686   0.00000  Uiso   1.00
C447   C     0.85841   0.54774   0.29198   0.00000  Uiso   1.00
C448   C     0.79970   0.95233   0.22334   0.00000  Uiso   1.00
C449   C     0.85649   0.59387   0.29195   0.00000  Uiso   1.00
C450   C     0.79692   0.90613   0.22312   0.00000  Uiso   1.00
C451   C     0.83962   0.61608   0.25015   0.00000  Uiso   1.00
C452   C     0.83583   0.88333   0.25062   0.00000  Uiso   1.00
C453   C     0.82876   0.59235   0.20779   0.00000  Uiso   1.00
C454   C     0.87768   0.90597   0.27817   0.00000  Uiso   1.00
C455   C     0.83185   0.54646   0.20758   0.00000  Uiso   1.00
C456   C     0.88127   0.95220   0.27751   0.00000  Uiso   1.00
C457   C     0.84502   0.52392   0.24987   0.00000  Uiso   1.00
C458   C     0.84222   0.97548   0.25014   0.00000  Uiso   1.00
H459   H     0.99223   0.73106   0.19959   0.00000  Uiso   1.00
H460   H     0.67443   0.77515   0.29850   0.00000  Uiso   1.00
H461   H     0.86897   0.53070   0.32495   0.00000  Uiso   1.00
H462   H     0.76864   0.96994   0.20282   0.00000  Uiso   1.00
H463   H     0.86792   0.61197   0.32449   0.00000  Uiso   1.00
H464   H     0.76452   0.88821   0.20195   0.00000  Uiso   1.00
H465   H     0.81726   0.60901   0.17491   0.00000  Uiso   1.00
H466   H     0.90803   0.88785   0.29908   0.00000  Uiso   1.00
H467   H     0.82302   0.52851   0.17455   0.00000  Uiso   1.00
H468   H     0.91460   0.96969   0.29787   0.00000  Uiso   1.00
H469   H     0.80165   0.68377   0.03031   0.00000  Uiso   1.00
H470   H     0.90953   0.78203   0.47482   0.00000  Uiso   1.00
N471   N     0.83333   0.74999   0.12623   0.00000  Uiso   1.00
N472   N     0.83333   0.75001   0.37376   0.00000  Uiso   1.00
O473   O     0.83334   0.68454   0.28974   0.00000  Uiso   1.00
O474   O     0.83333   0.81547   0.21026   0.00000  Uiso   1.00
O475   O     0.83334   0.68453   0.21026   0.00000  Uiso   1.00
O476   O     0.83333   0.81547   0.28974   0.00000  Uiso   1.00
O477   O     0.75725   0.75000   0.28044   0.00000  Uiso   1.00
O478   O     0.90942   0.75000   0.21955   0.00000  Uiso   1.00
O479   O     0.75725   0.75000   0.20096   0.00000  Uiso   1.00
O480   O     0.90942   0.75001   0.29903   0.00000  Uiso   1.00
Zn481  Zn    0.83333   0.75001   0.30307   0.00000  Uiso   1.00
Zn482  Zn    0.83333   0.75000   0.19693   0.00000  Uiso   1.00
C483   C     0.77764   0.67946   0.11798   0.00000  Uiso   1.00
H484   H     0.76052   0.68501   0.14974   0.00000  Uiso   1.00
O485   O     0.76725   0.64379   0.09743   0.00000  Uiso   1.00
C486   C     0.91618   0.79769   0.38425   0.00000  Uiso   1.00
H487   H     0.90919   0.81317   0.35020   0.00000  Uiso   1.00
O488   O     0.95954   0.80381   0.40722   0.00000  Uiso   1.00
C489   C     0.88645   0.82215   0.13279   0.00000  Uiso   1.00
C490   C     0.86654   0.86505   0.13515   0.00000  Uiso   1.00
C491   C     0.89818   0.90011   0.15759   0.00000  Uiso   1.00
C492   C     0.94966   0.89264   0.17782   0.00000  Uiso   1.00
C493   C     0.97009   0.85042   0.17447   0.00000  Uiso   1.00
C494   C     0.93894   0.81561   0.15118   0.00000  Uiso   1.00
H495   H     0.82676   0.87124   0.11945   0.00000  Uiso   1.00
H496   H     0.88271   0.93303   0.15945   0.00000  Uiso   1.00
H497   H     0.97392   0.91969   0.19554   0.00000  Uiso   1.00
H498   H     0.67699   0.84483   0.18923   0.00000  Uiso   1.00
H499   H     0.95592   0.78375   0.14657   0.00000  Uiso   1.00
C500   C     0.75625   0.69537   0.36532   0.00000  Uiso   1.00
C501   C     0.70244   0.70355   0.35487   0.00000  Uiso   1.00
C502   C     0.66689   0.67020   0.33386   0.00000  Uiso   1.00
C503   C     0.68467   0.62836   0.32364   0.00000  Uiso   1.00
C504   C     0.73763   0.61923   0.33605   0.00000  Uiso   1.00
C505   C     0.77291   0.65225   0.35788   0.00000  Uiso   1.00
H506   H     0.68785   0.73498   0.36501   0.00000  Uiso   1.00
H507   H     0.95873   0.67642   0.32627   0.00000  Uiso   1.00
H508   H     0.99046   0.60263   0.30736   0.00000  Uiso   1.00
H509   H     0.75111   0.58628   0.32973   0.00000  Uiso   1.00
H510   H     0.81311   0.64413   0.36994   0.00000  Uiso   1.00
C511   C     0.86602   0.83248   0.03251   0.00000  Uiso   1.00
H512   H     0.90013   0.85289   0.04766   0.00000  Uiso   1.00
O513   O     0.83858   0.84641   0.49805   0.00000  Uiso   1.00
C514   C     0.74021   0.71628   0.46211   0.00000  Uiso   1.00
H515   H     0.72462   0.73760   0.48704   0.00000  Uiso   1.00
O516   O     0.71871   0.67948   0.45287   0.00000  Uiso   1.00
C517   C     0.16810   0.16398   0.75013   0.00000  Uiso   1.00
C518   C     0.16685   0.33573   0.75005   0.00000  Uiso   1.00
C519   C     0.14828   0.21380   0.55016   0.00000  Uiso   1.00
C520   C     0.20860   0.26824   0.95246   0.00000  Uiso   1.00
C521   C     0.14382   0.21502   0.59864   0.00000  Uiso   1.00
C522   C     0.20713   0.27095   0.90317   0.00000  Uiso   1.00
C523   C     0.18917   0.28617   0.60463   0.00000  Uiso   1.00
C524   C     0.12633   0.22763   0.89347   0.00000  Uiso   1.00
C525   C     0.18512   0.28926   0.55458   0.00000  Uiso   1.00
C526   C     0.12260   0.23112   0.94264   0.00000  Uiso   1.00
C527   C     0.16625   0.25155   0.52654   0.00000  Uiso   1.00
C528   C     0.16538   0.25058   0.97319   0.00000  Uiso   1.00
C529   C     0.06726   0.24951   0.73792   0.00000  Uiso   1.00
C530   C     0.26606   0.25247   0.76189   0.00000  Uiso   1.00
C531   C     0.01225   0.24622   0.73184   0.00000  Uiso   1.00
C532   C     0.32096   0.25912   0.76686   0.00000  Uiso   1.00
C533   C     0.19175   0.04774   0.79198   0.00000  Uiso   1.00
C534   C     0.13303   0.45233   0.72334   0.00000  Uiso   1.00
C535   C     0.18983   0.09387   0.79195   0.00000  Uiso   1.00
C536   C     0.13025   0.40613   0.72312   0.00000  Uiso   1.00
C537   C     0.17296   0.11608   0.75015   0.00000  Uiso   1.00
C538   C     0.16916   0.38333   0.75062   0.00000  Uiso   1.00
C539   C     0.16210   0.09235   0.70779   0.00000  Uiso   1.00
C540   C     0.21101   0.40597   0.77817   0.00000  Uiso   1.00
C541   C     0.16519   0.04646   0.70758   0.00000  Uiso   1.00
C542   C     0.21461   0.45220   0.77751   0.00000  Uiso   1.00
C543   C     0.17836   0.02392   0.74987   0.00000  Uiso   1.00
C544   C     0.17555   0.47548   0.75014   0.00000  Uiso   1.00
H545   H     0.32557   0.23106   0.69959   0.00000  Uiso   1.00
H546   H     0.00776   0.27515   0.79850   0.00000  Uiso   1.00
H547   H     0.20231   0.03070   0.82495   0.00000  Uiso   1.00
H548   H     0.10197   0.46994   0.70282   0.00000  Uiso   1.00
H549   H     0.20125   0.11197   0.82449   0.00000  Uiso   1.00
H550   H     0.09785   0.38821   0.70195   0.00000  Uiso   1.00
H551   H     0.15059   0.10901   0.67491   0.00000  Uiso   1.00
H552   H     0.24136   0.38785   0.79908   0.00000  Uiso   1.00
H553   H     0.15636   0.02851   0.67455   0.00000  Uiso   1.00
H554   H     0.24794   0.46969   0.79787   0.00000  Uiso   1.00
H555   H     0.13498   0.18377   0.53031   0.00000  Uiso   1.00
H556   H     0.24286   0.28203   0.97482   0.00000  Uiso   1.00
N557   N     0.16667   0.24999   0.62623   0.00000  Uiso   1.00
N558   N     0.16667   0.25001   0.87376   0.00000  Uiso   1.00
O559   O     0.16667   0.18454   0.78974   0.00000  Uiso   1.00
O560   O     0.16666   0.31547   0.71026   0.00000  Uiso   1.00
O561   O     0.16667   0.18453   0.71026   0.00000  Uiso   1.00
O562   O     0.16666   0.31547   0.78974   0.00000  Uiso   1.00
O563   O     0.09058   0.25000   0.78044   0.00000  Uiso   1.00
O564   O     0.24275   0.25000   0.71955   0.00000  Uiso   1.00
O565   O     0.09058   0.25000   0.70096   0.00000  Uiso   1.00
O566   O     0.24275   0.25001   0.79903   0.00000  Uiso   1.00
Zn567  Zn    0.16667   0.25001   0.80307   0.00000  Uiso   1.00
Zn568  Zn    0.16667   0.25000   0.69693   0.00000  Uiso   1.00
C569   C     0.11097   0.17946   0.61798   0.00000  Uiso   1.00
H570   H     0.09385   0.18501   0.64974   0.00000  Uiso   1.00
O571   O     0.10058   0.14379   0.59743   0.00000  Uiso   1.00
C572   C     0.24952   0.29769   0.88425   0.00000  Uiso   1.00
H573   H     0.24252   0.31317   0.85020   0.00000  Uiso   1.00
O574   O     0.29287   0.30381   0.90722   0.00000  Uiso   1.00
C575   C     0.21978   0.32215   0.63279   0.00000  Uiso   1.00
C576   C     0.19988   0.36505   0.63515   0.00000  Uiso   1.00
C577   C     0.23151   0.40011   0.65759   0.00000  Uiso   1.00
C578   C     0.28299   0.39264   0.67782   0.00000  Uiso   1.00
C579   C     0.30343   0.35042   0.67447   0.00000  Uiso   1.00
C580   C     0.27228   0.31561   0.65118   0.00000  Uiso   1.00
H581   H     0.16010   0.37124   0.61945   0.00000  Uiso   1.00
H582   H     0.21604   0.43303   0.65945   0.00000  Uiso   1.00
H583   H     0.30726   0.41969   0.69554   0.00000  Uiso   1.00
H584   H     0.01032   0.34483   0.68923   0.00000  Uiso   1.00
H585   H     0.28926   0.28375   0.64657   0.00000  Uiso   1.00
C586   C     0.08959   0.19537   0.86532   0.00000  Uiso   1.00
C587   C     0.03578   0.20355   0.85487   0.00000  Uiso   1.00
C588   C     0.00022   0.17020   0.83386   0.00000  Uiso   1.00
C589   C     0.01800   0.12836   0.82364   0.00000  Uiso   1.00
C590   C     0.07097   0.11923   0.83605   0.00000  Uiso   1.00
C591   C     0.10624   0.15225   0.85788   0.00000  Uiso   1.00
H592   H     0.02119   0.23498   0.86501   0.00000  Uiso   1.00
H593   H     0.29206   0.17642   0.82627   0.00000  Uiso   1.00
H594   H     0.32380   0.10263   0.80736   0.00000  Uiso   1.00
H595   H     0.08444   0.08628   0.82973   0.00000  Uiso   1.00
H596   H     0.14645   0.14413   0.86994   0.00000  Uiso   1.00
C597   C     0.19935   0.33248   0.53251   0.00000  Uiso   1.00
H598   H     0.23346   0.35289   0.54766   0.00000  Uiso   1.00
O599   O     0.17191   0.34641   0.99805   0.00000  Uiso   1.00
C600   C     0.07355   0.21628   0.96211   0.00000  Uiso   1.00
H601   H     0.05796   0.23760   0.98704   0.00000  Uiso   1.00
O602   O     0.05204   0.17948   0.95287   0.00000  Uiso   1.00
C603   C     0.50144   0.16398   0.75013   0.00000  Uiso   1.00
C604   C     0.50018   0.33573   0.75005   0.00000  Uiso   1.00
C605   C     0.48162   0.21380   0.55016   0.00000  Uiso   1.00
C606   C     0.54194   0.26824   0.95246   0.00000  Uiso   1.00
C607   C     0.47716   0.21502   0.59864   0.00000  Uiso   1.00
C608   C     0.54047   0.27095   0.90317   0.00000  Uiso   1.00
C609   C     0.52251   0.28617   0.60463   0.00000  Uiso   1.00
C610   C     0.45966   0.22763   0.89347   0.00000  Uiso   1.00
C611   C     0.51845   0.28926   0.55458   0.00000  Uiso   1.00
C612   C     0.45593   0.23112   0.94264   0.00000  Uiso   1.00
C613   C     0.49959   0.25155   0.52654   0.00000  Uiso   1.00
C614   C     0.49872   0.25058   0.97319   0.00000  Uiso   1.00
C615   C     0.40059   0.24951   0.73792   0.00000  Uiso   1.00
C616   C     0.59939   0.25247   0.76189   0.00000  Uiso   1.00
C617   C     0.34559   0.24622   0.73184   0.00000  Uiso   1.00
C618   C     0.65429   0.25912   0.76686   0.00000  Uiso   1.00
C619   C     0.52508   0.04774   0.79198   0.00000  Uiso   1.00
C620   C     0.46637   0.45233   0.72334   0.00000  Uiso   1.00
C621   C     0.52316   0.09387   0.79195   0.00000  Uiso   1.00
C622   C     0.46359   0.40613   0.72312   0.00000  Uiso   1.00
C623   C     0.50629   0.11608   0.75015   0.00000  Uiso   1.00
C624   C     0.50249   0.38333   0.75062   0.00000  Uiso   1.00
C625   C     0.49543   0.09235   0.70779   0.00000  Uiso   1.00
C626   C     0.54435   0.40597   0.77817   0.00000  Uiso   1.00
C627   C     0.49852   0.04646   0.70758   0.00000  Uiso   1.00
C628   C     0.54794   0.45220   0.77751   0.00000  Uiso   1.00
C629   C     0.51169   0.02392   0.74987   0.00000  Uiso   1.00
C630   C     0.50888   0.47548   0.75014   0.00000  Uiso   1.00
H631   H     0.65890   0.23106   0.69959   0.00000  Uiso   1.00
H632   H     0.34109   0.27515   0.79850   0.00000  Uiso   1.00
H633   H     0.53564   0.03070   0.82495   0.00000  Uiso   1.00
H634   H     0.43530   0.46994   0.70282   0.00000  Uiso   1.00
H635   H     0.53458   0.11197   0.82449   0.00000  Uiso   1.00
H636   H     0.43119   0.38821   0.70195   0.00000  Uiso   1.00
H637   H     0.48393   0.10901   0.67491   0.00000  Uiso   1.00
H638   H     0.57469   0.38785   0.79908   0.00000  Uiso   1.00
H639   H     0.48969   0.02851   0.67455   0.00000  Uiso   1.00
H640   H     0.58127   0.46969   0.79787   0.00000  Uiso   1.00
H641   H     0.46831   0.18377   0.53031   0.00000  Uiso   1.00
H642   H     0.57619   0.28203   0.97482   0.00000  Uiso   1.00
N643   N     0.50000   0.24999   0.62623   0.00000  Uiso   1.00
N644   N     0.50000   0.25001   0.87376   0.00000  Uiso   1.00
O645   O     0.50000   0.18454   0.78974   0.00000  Uiso   1.00
O646   O     0.50000   0.31547   0.71026   0.00000  Uiso   1.00
O647   O     0.50000   0.18453   0.71026   0.00000  Uiso   1.00
O648   O     0.50000   0.31547   0.78974   0.00000  Uiso   1.00
O649   O     0.42392   0.25000   0.78044   0.00000  Uiso   1.00
O650   O     0.57608   0.25000   0.71955   0.00000  Uiso   1.00
O651   O     0.42392   0.25000   0.70096   0.00000  Uiso   1.00
O652   O     0.57608   0.25001   0.79903   0.00000  Uiso   1.00
Zn653  Zn    0.50000   0.25001   0.80307   0.00000  Uiso   1.00
Zn654  Zn    0.50000   0.25000   0.69693   0.00000  Uiso   1.00
C655   C     0.44431   0.17946   0.61798   0.00000  Uiso   1.00
H656   H     0.42719   0.18501   0.64974   0.00000  Uiso   1.00
O657   O     0.43391   0.14379   0.59743   0.00000  Uiso   1.00
C658   C     0.58285   0.29769   0.88425   0.00000  Uiso   1.00
H659   H     0.57585   0.31317   0.85020   0.00000  Uiso   1.00
O660   O     0.62620   0.30381   0.90722   0.00000  Uiso   1.00
C661   C     0.55312   0.32215   0.63279   0.00000  Uiso   1.00
C662   C     0.53321   0.36505   0.63515   0.00000  Uiso   1.00
C663   C     0.56484   0.40011   0.65759   0.00000  Uiso   1.00
C664   C     0.61633   0.39264   0.67782   0.00000  Uiso   1.00
C665   C     0.63676   0.35042   0.67447   0.00000  Uiso   1.00
C666   C     0.60561   0.31561   0.65118   0.00000  Uiso   1.00
H667   H     0.49343   0.37124   0.61945   0.00000  Uiso   1.00
H668   H     0.54938   0.43303   0.65945   0.00000  Uiso   1.00
H669   H     0.64059   0.41969   0.69554   0.00000  Uiso   1.00
H670   H     0.34365   0.34483   0.68923   0.00000  Uiso   1.00
H671   H     0.62259   0.28375   0.64657   0.00000  Uiso   1.00
C672   C     0.42292   0.19537   0.86532   0.00000  Uiso   1.00
C673   C     0.36911   0.20355   0.85487   0.00000  Uiso   1.00
C674   C     0.33356   0.17020   0.83386   0.00000  Uiso   1.00
C675   C     0.35133   0.12836   0.82364   0.00000  Uiso   1.00
C676   C     0.40430   0.11923   0.83605   0.00000  Uiso   1.00
C677   C     0.43957   0.15225   0.85788   0.00000  Uiso   1.00
H678   H     0.35452   0.23498   0.86501   0.00000  Uiso   1.00
H679   H     0.62539   0.17642   0.82627   0.00000  Uiso   1.00
H680   H     0.65713   0.10263   0.80736   0.00000  Uiso   1.00
H681   H     0.41777   0.08628   0.82973   0.00000  Uiso   1.00
H682   H     0.47978   0.14413   0.86994   0.00000  Uiso   1.00
C683   C     0.53268   0.33248   0.53251   0.00000  Uiso   1.00
H684   H     0.56679   0.35289   0.54766   0.00000  Uiso   1.00
O685   O     0.50524   0.34641   0.99805   0.00000  Uiso   1.00
C686   C     0.40688   0.21628   0.96211   0.00000  Uiso   1.00
H687   H     0.39129   0.23760   0.98704   0.00000  Uiso   1.00
O688   O     0.38538   0.17948   0.95287   0.00000  Uiso   1.00
C689   C     0.83477   0.16398   0.75013   0.00000  Uiso   1.00
C690   C     0.83352   0.33573   0.75005   0.00000  Uiso   1.00
C691   C     0.81495   0.21380   0.55016   0.00000  Uiso   1.00
C692   C     0.87527   0.26824   0.95246   0.00000  Uiso   1.00
C693   C     0.81049   0.21502   0.59864   0.00000  Uiso   1.00
C694   C     0.87380   0.27095   0.90317   0.00000  Uiso   1.00
C695   C     0.85584   0.28617   0.60463   0.00000  Uiso   1.00
C696   C     0.79299   0.22763   0.89347   0.00000  Uiso   1.00
C697   C     0.85179   0.28926   0.55458   0.00000  Uiso   1.00
C698   C     0.78926   0.23112   0.94264   0.00000  Uiso   1.00
C699   C     0.83292   0.25155   0.52654   0.00000  Uiso   1.00
C700   C     0.83205   0.25058   0.97319   0.00000  Uiso   1.00
C701   C     0.73393   0.24951   0.73792   0.00000  Uiso   1.00
C702   C     0.93272   0.25247   0.76189   0.00000  Uiso   1.00
C703   C     0.67892   0.24622   0.73184   0.00000  Uiso   1.00
C704   C     0.98763   0.25912   0.76686   0.00000  Uiso   1.00
C705   C     0.85841   0.04774   0.79198   0.00000  Uiso   1.00
C706   C     0.79970   0.45233   0.72334   0.00000  Uiso   1.00
C707   C     0.85649   0.09387   0.79195   0.00000  Uiso   1.00
C708   C     0.79692   0.40613   0.72312   0.00000  Uiso   1.00
C709   C     0.83962   0.11608   0.75015   0.00000  Uiso   1.00
C710   C     0.83583   0.38333   0.75062   0.00000  Uiso   1.00
C711   C     0.82876   0.09235   0.70779   0.00000  Uiso   1.00
C712   C     0.87768   0.40597   0.77817   0.00000  Uiso   1.00
C713   C     0.83185   0.04646   0.70758   0.00000  Uiso   1.00
C714   C     0.88127   0.45220   0.77751   0.00000  Uiso   1.00
C715   C     0.84502   0.02392   0.74987   0.00000  Uiso   1.00
C716   C     0.84222   0.47548   0.75014   0.00000  Uiso   1.00
H717   H     0.99223   0.23106   0.69959   0.00000  Uiso   1.00
H718   H     0.67443   0.27515   0.79850   0.00000  Uiso   1.00
H719   H     0.86897   0.03070   0.82495   0.00000  Uiso   1.00
H720   H     0.76864   0.46994   0.70282   0.00000  Uiso   1.00
H721   H     0.86792   0.11197   0.82449   0.00000  Uiso   1.00
H722   H     0.76452   0.38821   0.70195   0.00000  Uiso   1.00
H723   H     0.81726   0.10901   0.67491   0.00000  Uiso   1.00
H724   H     0.90803   0.38785   0.79908   0.00000  Uiso   1.00
H725   H     0.82302   0.02851   0.67455   0.00000  Uiso   1.00
H726   H     0.91460   0.46969   0.79787   0.00000  Uiso   1.00
H727   H     0.80165   0.18377   0.53031   0.00000  Uiso   1.00
H728   H     0.90953   0.28203   0.97482   0.00000  Uiso   1.00
N729   N     0.83333   0.24999   0.62623   0.00000  Uiso   1.00
N730   N     0.83333   0.25001   0.87376   0.00000  Uiso   1.00
O731   O     0.83334   0.18454   0.78974   0.00000  Uiso   1.00
O732   O     0.83333   0.31547   0.71026   0.00000  Uiso   1.00
O733   O     0.83334   0.18453   0.71026   0.00000  Uiso   1.00
O734   O     0.83333   0.31547   0.78974   0.00000  Uiso   1.00
O735   O     0.75725   0.25000   0.78044   0.00000  Uiso   1.00
O736   O     0.90942   0.25000   0.71955   0.00000  Uiso   1.00
O737   O     0.75725   0.25000   0.70096   0.00000  Uiso   1.00
O738   O     0.90942   0.25001   0.79903   0.00000  Uiso   1.00
Zn739  Zn    0.83333   0.25001   0.80307   0.00000  Uiso   1.00
Zn740  Zn    0.83333   0.25000   0.69693   0.00000  Uiso   1.00
C741   C     0.77764   0.17946   0.61798   0.00000  Uiso   1.00
H742   H     0.76052   0.18501   0.64974   0.00000  Uiso   1.00
O743   O     0.76725   0.14379   0.59743   0.00000  Uiso   1.00
C744   C     0.91618   0.29769   0.88425   0.00000  Uiso   1.00
H745   H     0.90919   0.31317   0.85020   0.00000  Uiso   1.00
O746   O     0.95954   0.30381   0.90722   0.00000  Uiso   1.00
C747   C     0.88645   0.32215   0.63279   0.00000  Uiso   1.00
C748   C     0.86654   0.36505   0.63515   0.00000  Uiso   1.00
C749   C     0.89818   0.40011   0.65759   0.00000  Uiso   1.00
C750   C     0.94966   0.39264   0.67782   0.00000  Uiso   1.00
C751   C     0.97009   0.35042   0.67447   0.00000  Uiso   1.00
C752   C     0.93894   0.31561   0.65118   0.00000  Uiso   1.00
H753   H     0.82676   0.37124   0.61945   0.00000  Uiso   1.00
H754   H     0.88271   0.43303   0.65945   0.00000  Uiso   1.00
H755   H     0.97392   0.41969   0.69554   0.00000  Uiso   1.00
H756   H     0.67699   0.34483   0.68923   0.00000  Uiso   1.00
H757   H     0.95592   0.28375   0.64657   0.00000  Uiso   1.00
C758   C     0.75625   0.19537   0.86532   0.00000  Uiso   1.00
C759   C     0.70244   0.20355   0.85487   0.00000  Uiso   1.00
C760   C     0.66689   0.17020   0.83386   0.00000  Uiso   1.00
C761   C     0.68467   0.12836   0.82364   0.00000  Uiso   1.00
C762   C     0.73763   0.11923   0.83605   0.00000  Uiso   1.00
C763   C     0.77291   0.15225   0.85788   0.00000  Uiso   1.00
H764   H     0.68785   0.23498   0.86501   0.00000  Uiso   1.00
H765   H     0.95873   0.17642   0.82627   0.00000  Uiso   1.00
H766   H     0.99046   0.10263   0.80736   0.00000  Uiso   1.00
H767   H     0.75111   0.08628   0.82973   0.00000  Uiso   1.00
H768   H     0.81311   0.14413   0.86994   0.00000  Uiso   1.00
C769   C     0.86602   0.33248   0.53251   0.00000  Uiso   1.00
H770   H     0.90013   0.35289   0.54766   0.00000  Uiso   1.00
O771   O     0.83858   0.34641   0.99805   0.00000  Uiso   1.00
C772   C     0.74021   0.21628   0.96211   0.00000  Uiso   1.00
H773   H     0.72462   0.23760   0.98704   0.00000  Uiso   1.00
O774   O     0.71871   0.17948   0.95287   0.00000  Uiso   1.00
C775   C     0.16810   0.66398   0.75013   0.00000  Uiso   1.00
C776   C     0.16685   0.83573   0.75005   0.00000  Uiso   1.00
C777   C     0.14828   0.71380   0.55016   0.00000  Uiso   1.00
C778   C     0.20860   0.76824   0.95246   0.00000  Uiso   1.00
C779   C     0.14382   0.71502   0.59864   0.00000  Uiso   1.00
C780   C     0.20713   0.77095   0.90317   0.00000  Uiso   1.00
C781   C     0.18917   0.78617   0.60463   0.00000  Uiso   1.00
C782   C     0.12633   0.72763   0.89347   0.00000  Uiso   1.00
C783   C     0.18512   0.78926   0.55458   0.00000  Uiso   1.00
C784   C     0.12260   0.73112   0.94264   0.00000  Uiso   1.00
C785   C     0.16625   0.75155   0.52654   0.00000  Uiso   1.00
C786   C     0.16538   0.75058   0.97319   0.00000  Uiso   1.00
C787   C     0.06726   0.74951   0.73792   0.00000  Uiso   1.00
C788   C     0.26606   0.75247   0.76189   0.00000  Uiso   1.00
C789   C     0.01225   0.74622   0.73184   0.00000  Uiso   1.00
C790   C     0.32096   0.75912   0.76686   0.00000  Uiso   1.00
C791   C     0.19175   0.54774   0.79198   0.00000  Uiso   1.00
C792   C     0.13303   0.95233   0.72334   0.00000  Uiso   1.00
C793   C     0.18983   0.59387   0.79195   0.00000  Uiso   1.00
C794   C     0.13025   0.90613   0.72312   0.00000  Uiso   1.00
C795   C     0.17296   0.61608   0.75015   0.00000  Uiso   1.00
C796   C     0.16916   0.88333   0.75062   0.00000  Uiso   1.00
C797   C     0.16210   0.59235   0.70779   0.00000  Uiso   1.00
C798   C     0.21101   0.90597   0.77817   0.00000  Uiso   1.00
C799   C     0.16519   0.54646   0.70758   0.00000  Uiso   1.00
C800   C     0.21461   0.95220   0.77751   0.00000  Uiso   1.00
C801   C     0.17836   0.52392   0.74987   0.00000  Uiso   1.00
C802   C     0.17555   0.97548   0.75014   0.00000  Uiso   1.00
H803   H     0.32557   0.73106   0.69959   0.00000  Uiso   1.00
H804   H     0.00776   0.77515   0.79850   0.00000  Uiso   1.00
H805   H     0.20231   0.53070   0.82495   0.00000  Uiso   1.00
H806   H     0.10197   0.96994   0.70282   0.00000  Uiso   1.00
H807   H     0.20125   0.61197   0.82449   0.00000  Uiso   1.00
H808   H     0.09785   0.88821   0.70195   0.00000  Uiso   1.00
H809   H     0.15059   0.60901   0.67491   0.00000  Uiso   1.00
H810   H     0.24136   0.88785   0.79908   0.00000  Uiso   1.00
H811   H     0.15636   0.52851   0.67455   0.00000  Uiso   1.00
H812   H     0.24794   0.96969   0.79787   0.00000  Uiso   1.00
H813   H     0.13498   0.68377   0.53031   0.00000  Uiso   1.00
H814   H     0.24286   0.78203   0.97482   0.00000  Uiso   1.00
N815   N     0.16667   0.74999   0.62623   0.00000  Uiso   1.00
N816   N     0.16667   0.75001   0.87376   0.00000  Uiso   1.00
O817   O     0.16667   0.68454   0.78974   0.00000  Uiso   1.00
O818   O     0.16666   0.81547   0.71026   0.00000  Uiso   1.00
O819   O     0.16667   0.68453   0.71026   0.00000  Uiso   1.00
O820   O     0.16666   0.81547   0.78974   0.00000  Uiso   1.00
O821   O     0.09058   0.75000   0.78044   0.00000  Uiso   1.00
O822   O     0.24275   0.75000   0.71955   0.00000  Uiso   1.00
O823   O     0.09058   0.75000   0.70096   0.00000  Uiso   1.00
O824   O     0.24275   0.75001   0.79903   0.00000  Uiso   1.00
Zn825  Zn    0.16667   0.75001   0.80307   0.00000  Uiso   1.00
Zn826  Zn    0.16667   0.75000   0.69693   0.00000  Uiso   1.00
C827   C     0.11097   0.67946   0.61798   0.00000  Uiso   1.00
H828   H     0.09385   0.68501   0.64974   0.00000  Uiso   1.00
O829   O     0.10058   0.64379   0.59743   0.00000  Uiso   1.00
C830   C     0.24952   0.79769   0.88425   0.00000  Uiso   1.00
H831   H     0.24252   0.81317   0.85020   0.00000  Uiso   1.00
O832   O     0.29287   0.80381   0.90722   0.00000  Uiso   1.00
C833   C     0.21978   0.82215   0.63279   0.00000  Uiso   1.00
C834   C     0.19988   0.86505   0.63515   0.00000  Uiso   1.00
C835   C     0.23151   0.90011   0.65759   0.00000  Uiso   1.00
C836   C     0.28299   0.89264   0.67782   0.00000  Uiso   1.00
C837   C     0.30343   0.85042   0.67447   0.00000  Uiso   1.00
C838   C     0.27228   0.81561   0.65118   0.00000  Uiso   1.00
H839   H     0.16010   0.87124   0.61945   0.00000  Uiso   1.00
H840   H     0.21604   0.93303   0.65945   0.00000  Uiso   1.00
H841   H     0.30726   0.91969   0.69554   0.00000  Uiso   1.00
H842   H     0.01032   0.84483   0.68923   0.00000  Uiso   1.00
H843   H     0.28926   0.78375   0.64657   0.00000  Uiso   1.00
C844   C     0.08959   0.69537   0.86532   0.00000  Uiso   1.00
C845   C     0.03578   0.70355   0.85487   0.00000  Uiso   1.00
C846   C     0.00022   0.67020   0.83386   0.00000  Uiso   1.00
C847   C     0.01800   0.62836   0.82364   0.00000  Uiso   1.00
C848   C     0.07097   0.61923   0.83605   0.00000  Uiso   1.00
C849   C     0.10624   0.65225   0.85788   0.00000  Uiso   1.00
H850   H     0.02119   0.73498   0.86501   0.00000  Uiso   1.00
H851   H     0.29206   0.67642   0.82627   0.00000  Uiso   1.00
H852   H     0.32380   0.60263   0.80736   0.00000  Uiso   1.00
H853   H     0.08444   0.58628   0.82973   0.00000  Uiso   1.00
H854   H     0.14645   0.64413   0.86994   0.00000  Uiso   1.00
C855   C     0.19935   0.83248   0.53251   0.00000  Uiso   1.00
H856   H     0.23346   0.85289   0.54766   0.00000  Uiso   1.00
O857   O     0.17191   0.84641   0.99805   0.00000  Uiso   1.00
C858   C     0.07355   0.71628   0.96211   0.00000  Uiso   1.00
H859   H     0.05796   0.73760   0.98704   0.00000  Uiso   1.00
O860   O     0.05204   0.67948   0.95287   0.00000  Uiso   1.00
C861   C     0.50144   0.66398   0.75013   0.00000  Uiso   1.00
C862   C     0.50018   0.83573   0.75005   0.00000  Uiso   1.00
C863   C     0.48162   0.71380   0.55016   0.00000  Uiso   1.00
C864   C     0.54194   0.76824   0.95246   0.00000  Uiso   1.00
C865   C     0.47716   0.71502   0.59864   0.00000  Uiso   1.00
C866   C     0.54047   0.77095   0.90317   0.00000  Uiso   1.00
C867   C     0.52251   0.78617   0.60463   0.00000  Uiso   1.00
C868   C     0.45966   0.72763   0.89347   0.00000  Uiso   1.00
C869   C     0.51845   0.78926   0.55458   0.00000  Uiso   1.00
C870   C     0.45593   0.73112   0.94264   0.00000  Uiso   1.00
C871   C     0.49959   0.75155   0.52654   0.00000  Uiso   1.00
C872   C     0.49872   0.75058   0.97319   0.00000  Uiso   1.00
C873   C     0.40059   0.74951   0.73792   0.00000  Uiso   1.00
C874   C     0.59939   0.75247   0.76189   0.00000  Uiso   1.00
C875   C     0.34559   0.74622   0.73184   0.00000  Uiso   1.00
C876   C     0.65429   0.75912   0.76686   0.00000  Uiso   1.00
C877   C     0.52508   0.54774   0.79198   0.00000  Uiso   1.00
C878   C     0.46637   0.95233   0.72334   0.00000  Uiso   1.00
C879   C     0.52316   0.59387   0.79195   0.00000  Uiso   1.00
C880   C     0.46359   0.90613   0.72312   0.00000  Uiso   1.00
C881   C     0.50629   0.61608   0.75015   0.00000  Uiso   1.00
C882   C     0.50249   0.88333   0.75062   0.00000  Uiso   1.00
C883   C     0.49543   0.59235   0.70779   0.00000  Uiso   1.00
C884   C     0.54435   0.90597   0.77817   0.00000  Uiso   1.00
C885   C     0.49852   0.54646   0.70758   0.00000  Uiso   1.00
C886   C     0.54794   0.95220   0.77751   0.00000  Uiso   1.00
C887   C     0.51169   0.52392   0.74987   0.00000  Uiso   1.00
C888   C     0.50888   0.97548   0.75014   0.00000  Uiso   1.00
H889   H     0.65890   0.73106   0.69959   0.00000  Uiso   1.00
H890   H     0.34109   0.77515   0.79850   0.00000  Uiso   1.00
H891   H     0.53564   0.53070   0.82495   0.00000  Uiso   1.00
H892   H     0.43530   0.96994   0.70282   0.00000  Uiso   1.00
H893   H     0.53458   0.61197   0.82449   0.00000  Uiso   1.00
H894   H     0.43119   0.88821   0.70195   0.00000  Uiso   1.00
H895   H     0.48393   0.60901   0.67491   0.00000  Uiso   1.00
H896   H     0.57469   0.88785   0.79908   0.00000  Uiso   1.00
H897   H     0.48969   0.52851   0.67455   0.00000  Uiso   1.00
H898   H     0.58127   0.96969   0.79787   0.00000  Uiso   1.00
H899   H     0.46831   0.68377   0.53031   0.00000  Uiso   1.00
H900   H     0.57619   0.78203   0.97482   0.00000  Uiso   1.00
N901   N     0.50000   0.74999   0.62623   0.00000  Uiso   1.00
N902   N     0.50000   0.75001   0.87376   0.00000  Uiso   1.00
O903   O     0.50000   0.68454   0.78974   0.00000  Uiso   1.00
O904   O     0.50000   0.81547   0.71026   0.00000  Uiso   1.00
O905   O     0.50000   0.68453   0.71026   0.00000  Uiso   1.00
O906   O     0.50000   0.81547   0.78974   0.00000  Uiso   1.00
O907   O     0.42392   0.75000   0.78044   0.00000  Uiso   1.00
O908   O     0.57608   0.75000   0.71955   0.00000  Uiso   1.00
O909   O     0.42392   0.75000   0.70096   0.00000  Uiso   1.00
O910   O     0.57608   0.75001   0.79903   0.00000  Uiso   1.00
Zn911  Zn    0.50000   0.75001   0.80307   0.00000  Uiso   1.00
Zn912  Zn    0.50000   0.75000   0.69693   0.00000  Uiso   1.00
C913   C     0.44431   0.67946   0.61798   0.00000  Uiso   1.00
H914   H     0.42719   0.68501   0.64974   0.00000  Uiso   1.00
O915   O     0.43391   0.64379   0.59743   0.00000  Uiso   1.00
C916   C     0.58285   0.79769   0.88425   0.00000  Uiso   1.00
H917   H     0.57585   0.81317   0.85020   0.00000  Uiso   1.00
O918   O     0.62620   0.80381   0.90722   0.00000  Uiso   1.00
C919   C     0.55312   0.82215   0.63279   0.00000  Uiso   1.00
C920   C     0.53321   0.86505   0.63515   0.00000  Uiso   1.00
C921   C     0.56484   0.90011   0.65759   0.00000  Uiso   1.00
C922   C     0.61633   0.89264   0.67782   0.00000  Uiso   1.00
C923   C     0.63676   0.85042   0.67447   0.00000  Uiso   1.00
C924   C     0.60561   0.81561   0.65118   0.00000  Uiso   1.00
H925   H     0.49343   0.87124   0.61945   0.00000  Uiso   1.00
H926   H     0.54938   0.93303   0.65945   0.00000  Uiso   1.00
H927   H     0.64059   0.91969   0.69554   0.00000  Uiso   1.00
H928   H     0.34365   0.84483   0.68923   0.00000  Uiso   1.00
H929   H     0.62259   0.78375   0.64657   0.00000  Uiso   1.00
C930   C     0.42292   0.69537   0.86532   0.00000  Uiso   1.00
C931   C     0.36911   0.70355   0.85487   0.00000  Uiso   1.00
C932   C     0.33356   0.67020   0.83386   0.00000  Uiso   1.00
C933   C     0.35133   0.62836   0.82364   0.00000  Uiso   1.00
C934   C     0.40430   0.61923   0.83605   0.00000  Uiso   1.00
C935   C     0.43957   0.65225   0.85788   0.00000  Uiso   1.00
H936   H     0.35452   0.73498   0.86501   0.00000  Uiso   1.00
H937   H     0.62539   0.67642   0.82627   0.00000  Uiso   1.00
H938   H     0.65713   0.60263   0.80736   0.00000  Uiso   1.00
H939   H     0.41777   0.58628   0.82973   0.00000  Uiso   1.00
H940   H     0.47978   0.64413   0.86994   0.00000  Uiso   1.00
C941   C     0.53268   0.83248   0.53251   0.00000  Uiso   1.00
H942   H     0.56679   0.85289   0.54766   0.00000  Uiso   1.00
O943   O     0.50524   0.84641   0.99805   0.00000  Uiso   1.00
C944   C     0.40688   0.71628   0.96211   0.00000  Uiso   1.00
H945   H     0.39129   0.73760   0.98704   0.00000  Uiso   1.00
O946   O     0.38538   0.67948   0.95287   0.00000  Uiso   1.00
C947   C     0.83477   0.66398   0.75013   0.00000  Uiso   1.00
C948   C     0.83352   0.83573   0.75005   0.00000  Uiso   1.00
C949   C     0.81495   0.71380   0.55016   0.00000  Uiso   1.00
C950   C     0.87527   0.76824   0.95246   0.00000  Uiso   1.00
C951   C     0.81049   0.71502   0.59864   0.00000  Uiso   1.00
C952   C     0.87380   0.77095   0.90317   0.00000  Uiso   1.00
C953   C     0.85584   0.78617   0.60463   0.00000  Uiso   1.00
C954   C     0.79299   0.72763   0.89347   0.00000  Uiso   1.00
C955   C     0.85179   0.78926   0.55458   0.00000  Uiso   1.00
C956   C     0.78926   0.73112   0.94264   0.00000  Uiso   1.00
C957   C     0.83292   0.75155   0.52654   0.00000  Uiso   1.00
C958   C     0.83205   0.75058   0.97319   0.00000  Uiso   1.00
C959   C     0.73393   0.74951   0.73792   0.00000  Uiso   1.00
C960   C     0.93272   0.75247   0.76189   0.00000  Uiso   1.00
C961   C     0.67892   0.74622   0.73184   0.00000  Uiso   1.00
C962   C     0.98763   0.75912   0.76686   0.00000  Uiso   1.00
C963   C     0.85841   0.54774   0.79198   0.00000  Uiso   1.00
C964   C     0.79970   0.95233   0.72334   0.00000  Uiso   1.00
C965   C     0.85649   0.59387   0.79195   0.00000  Uiso   1.00
C966   C     0.79692   0.90613   0.72312   0.00000  Uiso   1.00
C967   C     0.83962   0.61608   0.75015   0.00000  Uiso   1.00
C968   C     0.83583   0.88333   0.75062   0.00000  Uiso   1.00
C969   C     0.82876   0.59235   0.70779   0.00000  Uiso   1.00
C970   C     0.87768   0.90597   0.77817   0.00000  Uiso   1.00
C971   C     0.83185   0.54646   0.70758   0.00000  Uiso   1.00
C972   C     0.88127   0.95220   0.77751   0.00000  Uiso   1.00
C973   C     0.84502   0.52392   0.74987   0.00000  Uiso   1.00
C974   C     0.84222   0.97548   0.75014   0.00000  Uiso   1.00
H975   H     0.99223   0.73106   0.69959   0.00000  Uiso   1.00
H976   H     0.67443   0.77515   0.79850   0.00000  Uiso   1.00
H977   H     0.86897   0.53070   0.82495   0.00000  Uiso   1.00
H978   H     0.76864   0.96994   0.70282   0.00000  Uiso   1.00
H979   H     0.86792   0.61197   0.82449   0.00000  Uiso   1.00
H980   H     0.76452   0.88821   0.70195   0.00000  Uiso   1.00
H981   H     0.81726   0.60901   0.67491   0.00000  Uiso   1.00
H982   H     0.90803   0.88785   0.79908   0.00000  Uiso   1.00
H983   H     0.82302   0.52851   0.67455   0.00000  Uiso   1.00
H984   H     0.91460   0.96969   0.79787   0.00000  Uiso   1.00
H985   H     0.80165   0.68377   0.53031   0.00000  Uiso   1.00
H986   H     0.90953   0.78203   0.97482   0.00000  Uiso   1.00
N987   N     0.83333   0.74999   0.62623   0.00000  Uiso   1.00
N988   N     0.83333   0.75001   0.87376   0.00000  Uiso   1.00
O989   O     0.83334   0.68454   0.78974   0.00000  Uiso   1.00
O990   O     0.83333   0.81547   0.71026   0.00000  Uiso   1.00
O991   O     0.83334   0.68453   0.71026   0.00000  Uiso   1.00
O992   O     0.83333   0.81547   0.78974   0.00000  Uiso   1.00
O993   O     0.75725   0.75000   0.78044   0.00000  Uiso   1.00
O994   O     0.90942   0.75000   0.71955   0.00000  Uiso   1.00
O995   O     0.75725   0.75000   0.70096   0.00000  Uiso   1.00
O996   O     0.90942   0.75001   0.79903   0.00000  Uiso   1.00
Zn997  Zn    0.83333   0.75001   0.80307   0.00000  Uiso   1.00
Zn998  Zn    0.83333   0.75000   0.69693   0.00000  Uiso   1.00
C999   C     0.77764   0.67946   0.61798   0.00000  Uiso   1.00
H1000  H     0.76052   0.68501   0.64974   0.00000  Uiso   1.00
O1001  O     0.76725   0.64379   0.59743   0.00000  Uiso   1.00
C1002  C     0.91618   0.79769   0.88425   0.00000  Uiso   1.00
H1003  H     0.90919   0.81317   0.85020   0.00000  Uiso   1.00
O1004  O     0.95954   0.80381   0.90722   0.00000  Uiso   1.00
C1005  C     0.88645   0.82215   0.63279   0.00000  Uiso   1.00
C1006  C     0.86654   0.86505   0.63515   0.00000  Uiso   1.00
C1007  C     0.89818   0.90011   0.65759   0.00000  Uiso   1.00
C1008  C     0.94966   0.89264   0.67782   0.00000  Uiso   1.00
C1009  C     0.97009   0.85042   0.67447   0.00000  Uiso   1.00
C1010  C     0.93894   0.81561   0.65118   0.00000  Uiso   1.00
H1011  H     0.82676   0.87124   0.61945   0.00000  Uiso   1.00
H1012  H     0.88271   0.93303   0.65945   0.00000  Uiso   1.00
H1013  H     0.97392   0.91969   0.69554   0.00000  Uiso   1.00
H1014  H     0.67699   0.84483   0.68923   0.00000  Uiso   1.00
H1015  H     0.95592   0.78375   0.64657   0.00000  Uiso   1.00
C1016  C     0.75625   0.69537   0.86532   0.00000  Uiso   1.00
C1017  C     0.70244   0.70355   0.85487   0.00000  Uiso   1.00
C1018  C     0.66689   0.67020   0.83386   0.00000  Uiso   1.00
C1019  C     0.68467   0.62836   0.82364   0.00000  Uiso   1.00
C1020  C     0.73763   0.61923   0.83605   0.00000  Uiso   1.00
C1021  C     0.77291   0.65225   0.85788   0.00000  Uiso   1.00
H1022  H     0.68785   0.73498   0.86501   0.00000  Uiso   1.00
H1023  H     0.95873   0.67642   0.82627   0.00000  Uiso   1.00
H1024  H     0.99046   0.60263   0.80736   0.00000  Uiso   1.00
H1025  H     0.75111   0.58628   0.82973   0.00000  Uiso   1.00
H1026  H     0.81311   0.64413   0.86994   0.00000  Uiso   1.00
C1027  C     0.86602   0.83248   0.53251   0.00000  Uiso   1.00
H1028  H     0.90013   0.85289   0.54766   0.00000  Uiso   1.00
O1029  O     0.83858   0.84641   0.99805   0.00000  Uiso   1.00
C1030  C     0.74021   0.71628   0.96211   0.00000  Uiso   1.00
H1031  H     0.72462   0.73760   0.98704   0.00000  Uiso   1.00
O1032  O     0.71871   0.67948   0.95287   0.00000  Uiso   1.00
loop_
_geom_bond_atom_site_label_1
_geom_bond_atom_site_label_2
_geom_bond_distance
_geom_bond_site_symmetry_2
_ccdc_geom_bond_type
C1     C21     1.444   .     S
C1     O43     1.300   .     A
C1     O45     1.295   .     A
C2     O46     1.290   .     A
C2     O44     1.294   .     A
C2     C22     1.422   .     S
C3     H39     1.082   .     S
C3     C5      1.412   .     A
C3     C11     1.405   .     A
C4     H40     1.083   .     S
C4     C12     1.404   .     A
C4     C6      1.413   .     A
C5     C53     1.477   .     S
C5     N41     1.374   .     A
C6     C56     1.477   .     S
C6     N42     1.376   .     A
C7     C59     1.478   .     S
C7     C9      1.430   .     A
C7     N41     1.385   .     A
C8     N42     1.386   .     A
C8     C70     1.480   .     S
C8     C10     1.432   .     A
C9     C11     1.416   .     A
C9     C81     1.489   .     S
C10    C12     1.414   .     A
C10    C84     1.489   .     S
C11    C528    1.530   1_554 S
C12    C527    1.530   .     S
C13    O47     1.288   .     A
C13    O49     1.283   .     A
C13    C15     1.395   .     S
C14    C16     1.399   .     S
C14    O48     1.283   .     A
C14    O50     1.289   .     A
C15    C188    1.322   1_455 S
C15    H201    1.087   1_455 S
C16    C101    1.322   .     S
C16    H116    1.085   .     S
C17    C27     1.400   .     A
C17    H31     1.083   .     S
C17    C19     1.382   .     A
C18    C20     1.380   .     A
C18    C28     1.404   .     A
C18    H32     1.083   .     S
C19    C21     1.399   .     A
C19    H33     1.081   .     S
C20    H34     1.083   .     S
C20    C22     1.392   .     A
C21    C23     1.399   .     A
C22    C24     1.395   .     A
C23    C25     1.378   .     A
C23    H35     1.080   .     S
C24    C26     1.381   .     A
C24    H36     1.084   .     S
C25    H37     1.084   .     S
C25    C27     1.398   .     A
C26    H38     1.083   .     S
C26    C28     1.400   .     A
C27    C286    1.447   1_545 S
C28    C285    1.447   .     S
H29    C101    1.087   .     S
H30    C188    1.085   1_455 S
N41    Zn52    2.030   .     S
N42    Zn51    2.030   .     S
O43    Zn51    1.996   .     S
O44    Zn52    1.996   .     S
O45    Zn52    1.994   .     S
O46    Zn51    1.994   .     S
O47    Zn51    1.972   .     S
O48    Zn52    1.972   .     S
O49    Zn52    1.967   .     S
O50    Zn51    1.967   .     S
C53    H54     1.078   .     S
C53    O55     1.222   .     D
C56    H57     1.078   .     S
C56    O58     1.221   .     D
C59    C64     1.401   .     A
C59    C60     1.407   .     A
C60    C61     1.399   .     A
C60    H65     1.083   .     S
C61    H66     1.082   .     S
C61    C62     1.398   .     A
C62    C63     1.397   .     A
C62    H67     1.082   .     S
C63    C64     1.398   .     A
C63    H154    1.082   .     S
C64    H69     1.081   .     S
H68    C235    1.082   1_455 S
C70    C71     1.404   .     A
C70    C75     1.402   .     A
C71    H76     1.082   .     S
C71    C72     1.401   .     A
C72    C73     1.396   .     A
C72    H249    1.081   1_455 S
C73    C74     1.396   .     A
C73    H250    1.083   1_455 S
C74    C75     1.398   .     A
C74    H79     1.082   .     S
C75    H80     1.081   .     S
H77    C158    1.081   .     S
H78    C159    1.083   .     S
C81    H82     1.085   .     S
C81    O599    1.221   1_554 S
O83    C597    1.221   .     S
C84    H85     1.086   .     S
C84    O86     1.221   .     D
C87    C107    1.444   .     S
C87    O129    1.300   .     A
C87    O131    1.295   .     A
C88    O132    1.290   .     A
C88    O130    1.294   .     A
C88    C108    1.422   .     S
C89    H125    1.082   .     S
C89    C91     1.412   .     A
C89    C97     1.405   .     A
C90    H126    1.083   .     S
C90    C98     1.404   .     A
C90    C92     1.413   .     A
C91    C139    1.477   .     S
C91    N127    1.374   .     A
C92    C142    1.477   .     S
C92    N128    1.376   .     A
C93    C145    1.478   .     S
C93    C95     1.430   .     A
C93    N127    1.385   .     A
C94    N128    1.386   .     A
C94    C156    1.480   .     S
C94    C96     1.432   .     A
C95    C97     1.416   .     A
C95    C167    1.489   .     S
C96    C98     1.414   .     A
C96    C170    1.489   .     S
C97    C614    1.530   1_554 S
C98    C613    1.530   .     S
C99    O133    1.288   .     A
C99    O135    1.283   .     A
C99    C101    1.395   .     S
C100   C102    1.399   .     S
C100   O134    1.283   .     A
C100   O136    1.289   .     A
C102   C187    1.322   .     S
C102   H202    1.085   .     S
C103   C113    1.400   .     A
C103   H117    1.083   .     S
C103   C105    1.382   .     A
C104   C106    1.380   .     A
C104   C114    1.404   .     A
C104   H118    1.083   .     S
C105   C107    1.399   .     A
C105   H119    1.081   .     S
C106   H120    1.083   .     S
C106   C108    1.392   .     A
C107   C109    1.399   .     A
C108   C110    1.395   .     A
C109   C111    1.378   .     A
C109   H121    1.080   .     S
C110   C112    1.381   .     A
C110   H122    1.084   .     S
C111   H123    1.084   .     S
C111   C113    1.398   .     A
C112   H124    1.083   .     S
C112   C114    1.400   .     A
C113   C372    1.447   1_545 S
C114   C371    1.447   .     S
H115   C187    1.087   .     S
N127   Zn138   2.030   .     S
N128   Zn137   2.030   .     S
O129   Zn137   1.996   .     S
O130   Zn138   1.996   .     S
O131   Zn138   1.994   .     S
O132   Zn137   1.994   .     S
O133   Zn137   1.972   .     S
O134   Zn138   1.972   .     S
O135   Zn138   1.967   .     S
O136   Zn137   1.967   .     S
C139   H140    1.078   .     S
C139   O141    1.222   .     D
C142   H143    1.078   .     S
C142   O144    1.221   .     D
C145   C150    1.401   .     A
C145   C146    1.407   .     A
C146   C147    1.399   .     A
C146   H151    1.083   .     S
C147   H152    1.082   .     S
C147   C148    1.398   .     A
C148   C149    1.397   .     A
C148   H153    1.082   .     S
C149   C150    1.398   .     A
C149   H240    1.082   .     S
C150   H155    1.081   .     S
C156   C157    1.404   .     A
C156   C161    1.402   .     A
C157   H162    1.082   .     S
C157   C158    1.401   .     A
C158   C159    1.396   .     A
C159   C160    1.396   .     A
C160   C161    1.398   .     A
C160   H165    1.082   .     S
C161   H166    1.081   .     S
H163   C244    1.081   .     S
H164   C245    1.083   .     S
C167   H168    1.085   .     S
C167   O685    1.221   1_554 S
O169   C683    1.221   .     S
C170   H171    1.086   .     S
C170   O172    1.221   .     D
C173   C193    1.444   .     S
C173   O215    1.300   .     A
C173   O217    1.295   .     A
C174   O218    1.290   .     A
C174   O216    1.294   .     A
C174   C194    1.422   .     S
C175   H211    1.082   .     S
C175   C177    1.412   .     A
C175   C183    1.405   .     A
C176   H212    1.083   .     S
C176   C184    1.404   .     A
C176   C178    1.413   .     A
C177   C225    1.477   .     S
C177   N213    1.374   .     A
C178   C228    1.477   .     S
C178   N214    1.376   .     A
C179   C231    1.478   .     S
C179   C181    1.430   .     A
C179   N213    1.385   .     A
C180   N214    1.386   .     A
C180   C242    1.480   .     S
C180   C182    1.432   .     A
C181   C183    1.416   .     A
C181   C253    1.489   .     S
C182   C184    1.414   .     A
C182   C256    1.489   .     S
C183   C700    1.530   1_554 S
C184   C699    1.530   .     S
C185   O219    1.288   .     A
C185   O221    1.283   .     A
C185   C187    1.395   .     S
C186   C188    1.399   .     S
C186   O220    1.283   .     A
C186   O222    1.289   .     A
C188   C15     1.322   1_655 S
C188   H30     1.085   1_655 S
C189   C199    1.400   .     A
C189   H203    1.083   .     S
C189   C191    1.382   .     A
C190   C192    1.380   .     A
C190   C200    1.404   .     A
C190   H204    1.083   .     S
C191   C193    1.399   .     A
C191   H205    1.081   .     S
C192   H206    1.083   .     S
C192   C194    1.392   .     A
C193   C195    1.399   .     A
C194   C196    1.395   .     A
C195   C197    1.378   .     A
C195   H207    1.080   .     S
C196   C198    1.381   .     A
C196   H208    1.084   .     S
C197   H209    1.084   .     S
C197   C199    1.398   .     A
C198   H210    1.083   .     S
C198   C200    1.400   .     A
C199   C458    1.447   1_545 S
C200   C457    1.447   .     S
H201   C15     1.087   1_655 S
N213   Zn224   2.030   .     S
N214   Zn223   2.030   .     S
O215   Zn223   1.996   .     S
O216   Zn224   1.996   .     S
O217   Zn224   1.994   .     S
O218   Zn223   1.994   .     S
O219   Zn223   1.972   .     S
O220   Zn224   1.972   .     S
O221   Zn224   1.967   .     S
O222   Zn223   1.967   .     S
C225   H226    1.078   .     S
C225   O227    1.222   .     D
C228   H229    1.078   .     S
C228   O230    1.221   .     D
C231   C236    1.401   .     A
C231   C232    1.407   .     A
C232   C233    1.399   .     A
C232   H237    1.083   .     S
C233   H238    1.082   .     S
C233   C234    1.398   .     A
C234   C235    1.397   .     A
C234   H239    1.082   .     S
C235   C236    1.398   .     A
C235   H68     1.082   1_655 S
C236   H241    1.081   .     S
C242   C243    1.404   .     A
C242   C247    1.402   .     A
C243   H248    1.082   .     S
C243   C244    1.401   .     A
C244   C245    1.396   .     A
C245   C246    1.396   .     A
C246   C247    1.398   .     A
C246   H251    1.082   .     S
C247   H252    1.081   .     S
H249   C72     1.081   1_655 S
H250   C73     1.083   1_655 S
C253   H254    1.085   .     S
C253   O771    1.221   1_554 S
O255   C769    1.221   .     S
C256   H257    1.086   .     S
C256   O258    1.221   .     D
C259   C279    1.444   .     S
C259   O301    1.300   .     A
C259   O303    1.295   .     A
C260   O304    1.290   .     A
C260   O302    1.294   .     A
C260   C280    1.422   .     S
C261   H297    1.082   .     S
C261   C263    1.412   .     A
C261   C269    1.405   .     A
C262   H298    1.083   .     S
C262   C270    1.404   .     A
C262   C264    1.413   .     A
C263   C311    1.477   .     S
C263   N299    1.374   .     A
C264   C314    1.477   .     S
C264   N300    1.376   .     A
C265   C317    1.478   .     S
C265   C267    1.430   .     A
C265   N299    1.385   .     A
C266   N300    1.386   .     A
C266   C328    1.480   .     S
C266   C268    1.432   .     A
C267   C269    1.416   .     A
C267   C339    1.489   .     S
C268   C270    1.414   .     A
C268   C342    1.489   .     S
C269   C786    1.530   1_554 S
C270   C785    1.530   .     S
C271   O305    1.288   .     A
C271   O307    1.283   .     A
C271   C273    1.395   .     S
C272   C274    1.399   .     S
C272   O306    1.283   .     A
C272   O308    1.289   .     A
C273   C446    1.322   1_455 S
C273   H459    1.087   1_455 S
C274   C359    1.322   .     S
C274   H374    1.085   .     S
C275   C285    1.400   .     A
C275   H289    1.083   .     S
C275   C277    1.382   .     A
C276   C278    1.380   .     A
C276   C286    1.404   .     A
C276   H290    1.083   .     S
C277   C279    1.399   .     A
C277   H291    1.081   .     S
C278   H292    1.083   .     S
C278   C280    1.392   .     A
C279   C281    1.399   .     A
C280   C282    1.395   .     A
C281   C283    1.378   .     A
C281   H293    1.080   .     S
C282   C284    1.381   .     A
C282   H294    1.084   .     S
C283   H295    1.084   .     S
C283   C285    1.398   .     A
C284   H296    1.083   .     S
C284   C286    1.400   .     A
C286   C27     1.447   1_565 S
H287   C359    1.087   .     S
H288   C446    1.085   1_455 S
N299   Zn310   2.030   .     S
N300   Zn309   2.030   .     S
O301   Zn309   1.996   .     S
O302   Zn310   1.996   .     S
O303   Zn310   1.994   .     S
O304   Zn309   1.994   .     S
O305   Zn309   1.972   .     S
O306   Zn310   1.972   .     S
O307   Zn310   1.967   .     S
O308   Zn309   1.967   .     S
C311   H312    1.078   .     S
C311   O313    1.222   .     D
C314   H315    1.078   .     S
C314   O316    1.221   .     D
C317   C322    1.401   .     A
C317   C318    1.407   .     A
C318   C319    1.399   .     A
C318   H323    1.083   .     S
C319   H324    1.082   .     S
C319   C320    1.398   .     A
C320   C321    1.397   .     A
C320   H325    1.082   .     S
C321   C322    1.398   .     A
C321   H412    1.082   .     S
C322   H327    1.081   .     S
H326   C493    1.082   1_455 S
C328   C329    1.404   .     A
C328   C333    1.402   .     A
C329   H334    1.082   .     S
C329   C330    1.401   .     A
C330   C331    1.396   .     A
C330   H507    1.081   1_455 S
C331   C332    1.396   .     A
C331   H508    1.083   1_455 S
C332   C333    1.398   .     A
C332   H337    1.082   .     S
C333   H338    1.081   .     S
H335   C416    1.081   .     S
H336   C417    1.083   .     S
C339   H340    1.085   .     S
C339   O857    1.221   1_554 S
O341   C855    1.221   .     S
C342   H343    1.086   .     S
C342   O344    1.221   .     D
C345   C365    1.444   .     S
C345   O387    1.300   .     A
C345   O389    1.295   .     A
C346   O390    1.290   .     A
C346   O388    1.294   .     A
C346   C366    1.422   .     S
C347   H383    1.082   .     S
C347   C349    1.412   .     A
C347   C355    1.405   .     A
C348   H384    1.083   .     S
C348   C356    1.404   .     A
C348   C350    1.413   .     A
C349   C397    1.477   .     S
C349   N385    1.374   .     A
C350   C400    1.477   .     S
C350   N386    1.376   .     A
C351   C403    1.478   .     S
C351   C353    1.430   .     A
C351   N385    1.385   .     A
C352   N386    1.386   .     A
C352   C414    1.480   .     S
C352   C354    1.432   .     A
C353   C355    1.416   .     A
C353   C425    1.489   .     S
C354   C356    1.414   .     A
C354   C428    1.489   .     S
C355   C872    1.530   1_554 S
C356   C871    1.530   .     S
C357   O391    1.288   .     A
C357   O393    1.283   .     A
C357   C359    1.395   .     S
C358   C360    1.399   .     S
C358   O392    1.283   .     A
C358   O394    1.289   .     A
C360   C445    1.322   .     S
C360   H460    1.085   .     S
C361   C371    1.400   .     A
C361   H375    1.083   .     S
C361   C363    1.382   .     A
C362   C364    1.380   .     A
C362   C372    1.404   .     A
C362   H376    1.083   .     S
C363   C365    1.399   .     A
C363   H377    1.081   .     S
C364   H378    1.083   .     S
C364   C366    1.392   .     A
C365   C367    1.399   .     A
C366   C368    1.395   .     A
C367   C369    1.378   .     A
C367   H379    1.080   .     S
C368   C370    1.381   .     A
C368   H380    1.084   .     S
C369   H381    1.084   .     S
C369   C371    1.398   .     A
C370   H382    1.083   .     S
C370   C372    1.400   .     A
C372   C113    1.447   1_565 S
H373   C445    1.087   .     S
N385   Zn396   2.030   .     S
N386   Zn395   2.030   .     S
O387   Zn395   1.996   .     S
O388   Zn396   1.996   .     S
O389   Zn396   1.994   .     S
O390   Zn395   1.994   .     S
O391   Zn395   1.972   .     S
O392   Zn396   1.972   .     S
O393   Zn396   1.967   .     S
O394   Zn395   1.967   .     S
C397   H398    1.078   .     S
C397   O399    1.222   .     D
C400   H401    1.078   .     S
C400   O402    1.221   .     D
C403   C408    1.401   .     A
C403   C404    1.407   .     A
C404   C405    1.399   .     A
C404   H409    1.083   .     S
C405   H410    1.082   .     S
C405   C406    1.398   .     A
C406   C407    1.397   .     A
C406   H411    1.082   .     S
C407   C408    1.398   .     A
C407   H498    1.082   .     S
C408   H413    1.081   .     S
C414   C415    1.404   .     A
C414   C419    1.402   .     A
C415   H420    1.082   .     S
C415   C416    1.401   .     A
C416   C417    1.396   .     A
C417   C418    1.396   .     A
C418   C419    1.398   .     A
C418   H423    1.082   .     S
C419   H424    1.081   .     S
H421   C502    1.081   .     S
H422   C503    1.083   .     S
C425   H426    1.085   .     S
C425   O943    1.221   1_554 S
O427   C941    1.221   .     S
C428   H429    1.086   .     S
C428   O430    1.221   .     D
C431   C451    1.444   .     S
C431   O473    1.300   .     A
C431   O475    1.295   .     A
C432   O476    1.290   .     A
C432   O474    1.294   .     A
C432   C452    1.422   .     S
C433   H469    1.082   .     S
C433   C435    1.412   .     A
C433   C441    1.405   .     A
C434   H470    1.083   .     S
C434   C442    1.404   .     A
C434   C436    1.413   .     A
C435   C483    1.477   .     S
C435   N471    1.374   .     A
C436   C486    1.477   .     S
C436   N472    1.376   .     A
C437   C489    1.478   .     S
C437   C439    1.430   .     A
C437   N471    1.385   .     A
C438   N472    1.386   .     A
C438   C500    1.480   .     S
C438   C440    1.432   .     A
C439   C441    1.416   .     A
C439   C511    1.489   .     S
C440   C442    1.414   .     A
C440   C514    1.489   .     S
C441   C958    1.530   1_554 S
C442   C957    1.530   .     S
C443   O477    1.288   .     A
C443   O479    1.283   .     A
C443   C445    1.395   .     S
C444   C446    1.399   .     S
C444   O478    1.283   .     A
C444   O480    1.289   .     A
C446   C273    1.322   1_655 S
C446   H288    1.085   1_655 S
C447   C457    1.400   .     A
C447   H461    1.083   .     S
C447   C449    1.382   .     A
C448   C450    1.380   .     A
C448   C458    1.404   .     A
C448   H462    1.083   .     S
C449   C451    1.399   .     A
C449   H463    1.081   .     S
C450   H464    1.083   .     S
C450   C452    1.392   .     A
C451   C453    1.399   .     A
C452   C454    1.395   .     A
C453   C455    1.378   .     A
C453   H465    1.080   .     S
C454   C456    1.381   .     A
C454   H466    1.084   .     S
C455   H467    1.084   .     S
C455   C457    1.398   .     A
C456   H468    1.083   .     S
C456   C458    1.400   .     A
C458   C199    1.447   1_565 S
H459   C273    1.087   1_655 S
N471   Zn482   2.030   .     S
N472   Zn481   2.030   .     S
O473   Zn481   1.996   .     S
O474   Zn482   1.996   .     S
O475   Zn482   1.994   .     S
O476   Zn481   1.994   .     S
O477   Zn481   1.972   .     S
O478   Zn482   1.972   .     S
O479   Zn482   1.967   .     S
O480   Zn481   1.967   .     S
C483   H484    1.078   .     S
C483   O485    1.222   .     D
C486   H487    1.078   .     S
C486   O488    1.221   .     D
C489   C494    1.401   .     A
C489   C490    1.407   .     A
C490   C491    1.399   .     A
C490   H495    1.083   .     S
C491   H496    1.082   .     S
C491   C492    1.398   .     A
C492   C493    1.397   .     A
C492   H497    1.082   .     S
C493   C494    1.398   .     A
C493   H326    1.082   1_655 S
C494   H499    1.081   .     S
C500   C501    1.404   .     A
C500   C505    1.402   .     A
C501   H506    1.082   .     S
C501   C502    1.401   .     A
C502   C503    1.396   .     A
C503   C504    1.396   .     A
C504   C505    1.398   .     A
C504   H509    1.082   .     S
C505   H510    1.081   .     S
H507   C330    1.081   1_655 S
H508   C331    1.083   1_655 S
C511   H512    1.085   .     S
C511   O1029   1.221   1_554 S
O513   C1027   1.221   .     S
C514   H515    1.086   .     S
C514   O516    1.221   .     D
C517   C537    1.444   .     S
C517   O559    1.300   .     A
C517   O561    1.295   .     A
C518   O562    1.290   .     A
C518   O560    1.294   .     A
C518   C538    1.422   .     S
C519   H555    1.082   .     S
C519   C521    1.412   .     A
C519   C527    1.405   .     A
C520   H556    1.083   .     S
C520   C528    1.404   .     A
C520   C522    1.413   .     A
C521   C569    1.477   .     S
C521   N557    1.374   .     A
C522   C572    1.477   .     S
C522   N558    1.376   .     A
C523   C575    1.478   .     S
C523   C525    1.430   .     A
C523   N557    1.385   .     A
C524   N558    1.386   .     A
C524   C586    1.480   .     S
C524   C526    1.432   .     A
C525   C527    1.416   .     A
C525   C597    1.489   .     S
C526   C528    1.414   .     A
C526   C600    1.489   .     S
C528   C11     1.530   1_556 S
C529   O563    1.288   .     A
C529   O565    1.283   .     A
C529   C531    1.395   .     S
C530   C532    1.399   .     S
C530   O564    1.283   .     A
C530   O566    1.289   .     A
C531   C704    1.322   1_455 S
C531   H717    1.087   1_455 S
C532   C617    1.322   .     S
C532   H632    1.085   .     S
C533   C543    1.400   .     A
C533   H547    1.083   .     S
C533   C535    1.382   .     A
C534   C536    1.380   .     A
C534   C544    1.404   .     A
C534   H548    1.083   .     S
C535   C537    1.399   .     A
C535   H549    1.081   .     S
C536   H550    1.083   .     S
C536   C538    1.392   .     A
C537   C539    1.399   .     A
C538   C540    1.395   .     A
C539   C541    1.378   .     A
C539   H551    1.080   .     S
C540   C542    1.381   .     A
C540   H552    1.084   .     S
C541   H553    1.084   .     S
C541   C543    1.398   .     A
C542   H554    1.083   .     S
C542   C544    1.400   .     A
C543   C802    1.447   1_545 S
C544   C801    1.447   .     S
H545   C617    1.087   .     S
H546   C704    1.085   1_455 S
N557   Zn568   2.030   .     S
N558   Zn567   2.030   .     S
O559   Zn567   1.996   .     S
O560   Zn568   1.996   .     S
O561   Zn568   1.994   .     S
O562   Zn567   1.994   .     S
O563   Zn567   1.972   .     S
O564   Zn568   1.972   .     S
O565   Zn568   1.967   .     S
O566   Zn567   1.967   .     S
C569   H570    1.078   .     S
C569   O571    1.222   .     D
C572   H573    1.078   .     S
C572   O574    1.221   .     D
C575   C580    1.401   .     A
C575   C576    1.407   .     A
C576   C577    1.399   .     A
C576   H581    1.083   .     S
C577   H582    1.082   .     S
C577   C578    1.398   .     A
C578   C579    1.397   .     A
C578   H583    1.082   .     S
C579   C580    1.398   .     A
C579   H670    1.082   .     S
C580   H585    1.081   .     S
H584   C751    1.082   1_455 S
C586   C587    1.404   .     A
C586   C591    1.402   .     A
C587   H592    1.082   .     S
C587   C588    1.401   .     A
C588   C589    1.396   .     A
C588   H765    1.081   1_455 S
C589   C590    1.396   .     A
C589   H766    1.083   1_455 S
C590   C591    1.398   .     A
C590   H595    1.082   .     S
C591   H596    1.081   .     S
H593   C674    1.081   .     S
H594   C675    1.083   .     S
C597   H598    1.085   .     S
O599   C81     1.221   1_556 S
C600   H601    1.086   .     S
C600   O602    1.221   .     D
C603   C623    1.444   .     S
C603   O645    1.300   .     A
C603   O647    1.295   .     A
C604   O648    1.290   .     A
C604   O646    1.294   .     A
C604   C624    1.422   .     S
C605   H641    1.082   .     S
C605   C607    1.412   .     A
C605   C613    1.405   .     A
C606   H642    1.083   .     S
C606   C614    1.404   .     A
C606   C608    1.413   .     A
C607   C655    1.477   .     S
C607   N643    1.374   .     A
C608   C658    1.477   .     S
C608   N644    1.376   .     A
C609   C661    1.478   .     S
C609   C611    1.430   .     A
C609   N643    1.385   .     A
C610   N644    1.386   .     A
C610   C672    1.480   .     S
C610   C612    1.432   .     A
C611   C613    1.416   .     A
C611   C683    1.489   .     S
C612   C614    1.414   .     A
C612   C686    1.489   .     S
C614   C97     1.530   1_556 S
C615   O649    1.288   .     A
C615   O651    1.283   .     A
C615   C617    1.395   .     S
C616   C618    1.399   .     S
C616   O650    1.283   .     A
C616   O652    1.289   .     A
C618   C703    1.322   .     S
C618   H718    1.085   .     S
C619   C629    1.400   .     A
C619   H633    1.083   .     S
C619   C621    1.382   .     A
C620   C622    1.380   .     A
C620   C630    1.404   .     A
C620   H634    1.083   .     S
C621   C623    1.399   .     A
C621   H635    1.081   .     S
C622   H636    1.083   .     S
C622   C624    1.392   .     A
C623   C625    1.399   .     A
C624   C626    1.395   .     A
C625   C627    1.378   .     A
C625   H637    1.080   .     S
C626   C628    1.381   .     A
C626   H638    1.084   .     S
C627   H639    1.084   .     S
C627   C629    1.398   .     A
C628   H640    1.083   .     S
C628   C630    1.400   .     A
C629   C888    1.447   1_545 S
C630   C887    1.447   .     S
H631   C703    1.087   .     S
N643   Zn654   2.030   .     S
N644   Zn653   2.030   .     S
O645   Zn653   1.996   .     S
O646   Zn654   1.996   .     S
O647   Zn654   1.994   .     S
O648   Zn653   1.994   .     S
O649   Zn653   1.972   .     S
O650   Zn654   1.972   .     S
O651   Zn654   1.967   .     S
O652   Zn653   1.967   .     S
C655   H656    1.078   .     S
C655   O657    1.222   .     D
C658   H659    1.078   .     S
C658   O660    1.221   .     D
C661   C666    1.401   .     A
C661   C662    1.407   .     A
C662   C663    1.399   .     A
C662   H667    1.083   .     S
C663   H668    1.082   .     S
C663   C664    1.398   .     A
C664   C665    1.397   .     A
C664   H669    1.082   .     S
C665   C666    1.398   .     A
C665   H756    1.082   .     S
C666   H671    1.081   .     S
C672   C673    1.404   .     A
C672   C677    1.402   .     A
C673   H678    1.082   .     S
C673   C674    1.401   .     A
C674   C675    1.396   .     A
C675   C676    1.396   .     A
C676   C677    1.398   .     A
C676   H681    1.082   .     S
C677   H682    1.081   .     S
H679   C760    1.081   .     S
H680   C761    1.083   .     S
C683   H684    1.085   .     S
O685   C167    1.221   1_556 S
C686   H687    1.086   .     S
C686   O688    1.221   .     D
C689   C709    1.444   .     S
C689   O731    1.300   .     A
C689   O733    1.295   .     A
C690   O734    1.290   .     A
C690   O732    1.294   .     A
C690   C710    1.422   .     S
C691   H727    1.082   .     S
C691   C693    1.412   .     A
C691   C699    1.405   .     A
C692   H728    1.083   .     S
C692   C700    1.404   .     A
C692   C694    1.413   .     A
C693   C741    1.477   .     S
C693   N729    1.374   .     A
C694   C744    1.477   .     S
C694   N730    1.376   .     A
C695   C747    1.478   .     S
C695   C697    1.430   .     A
C695   N729    1.385   .     A
C696   N730    1.386   .     A
C696   C758    1.480   .     S
C696   C698    1.432   .     A
C697   C699    1.416   .     A
C697   C769    1.489   .     S
C698   C700    1.414   .     A
C698   C772    1.489   .     S
C700   C183    1.530   1_556 S
C701   O735    1.288   .     A
C701   O737    1.283   .     A
C701   C703    1.395   .     S
C702   C704    1.399   .     S
C702   O736    1.283   .     A
C702   O738    1.289   .     A
C704   C531    1.322   1_655 S
C704   H546    1.085   1_655 S
C705   C715    1.400   .     A
C705   H719    1.083   .     S
C705   C707    1.382   .     A
C706   C708    1.380   .     A
C706   C716    1.404   .     A
C706   H720    1.083   .     S
C707   C709    1.399   .     A
C707   H721    1.081   .     S
C708   H722    1.083   .     S
C708   C710    1.392   .     A
C709   C711    1.399   .     A
C710   C712    1.395   .     A
C711   C713    1.378   .     A
C711   H723    1.080   .     S
C712   C714    1.381   .     A
C712   H724    1.084   .     S
C713   H725    1.084   .     S
C713   C715    1.398   .     A
C714   H726    1.083   .     S
C714   C716    1.400   .     A
C715   C974    1.447   1_545 S
C716   C973    1.447   .     S
H717   C531    1.087   1_655 S
N729   Zn740   2.030   .     S
N730   Zn739   2.030   .     S
O731   Zn739   1.996   .     S
O732   Zn740   1.996   .     S
O733   Zn740   1.994   .     S
O734   Zn739   1.994   .     S
O735   Zn739   1.972   .     S
O736   Zn740   1.972   .     S
O737   Zn740   1.967   .     S
O738   Zn739   1.967   .     S
C741   H742    1.078   .     S
C741   O743    1.222   .     D
C744   H745    1.078   .     S
C744   O746    1.221   .     D
C747   C752    1.401   .     A
C747   C748    1.407   .     A
C748   C749    1.399   .     A
C748   H753    1.083   .     S
C749   H754    1.082   .     S
C749   C750    1.398   .     A
C750   C751    1.397   .     A
C750   H755    1.082   .     S
C751   C752    1.398   .     A
C751   H584    1.082   1_655 S
C752   H757    1.081   .     S
C758   C759    1.404   .     A
C758   C763    1.402   .     A
C759   H764    1.082   .     S
C759   C760    1.401   .     A
C760   C761    1.396   .     A
C761   C762    1.396   .     A
C762   C763    1.398   .     A
C762   H767    1.082   .     S
C763   H768    1.081   .     S
H765   C588    1.081   1_655 S
H766   C589    1.083   1_655 S
C769   H770    1.085   .     S
O771   C253    1.221   1_556 S
C772   H773    1.086   .     S
C772   O774    1.221   .     D
C775   C795    1.444   .     S
C775   O817    1.300   .     A
C775   O819    1.295   .     A
C776   O820    1.290   .     A
C776   O818    1.294   .     A
C776   C796    1.422   .     S
C777   H813    1.082   .     S
C777   C779    1.412   .     A
C777   C785    1.405   .     A
C778   H814    1.083   .     S
C778   C786    1.404   .     A
C778   C780    1.413   .     A
C779   C827    1.477   .     S
C779   N815    1.374   .     A
C780   C830    1.477   .     S
C780   N816    1.376   .     A
C781   C833    1.478   .     S
C781   C783    1.430   .     A
C781   N815    1.385   .     A
C782   N816    1.386   .     A
C782   C844    1.480   .     S
C782   C784    1.432   .     A
C783   C785    1.416   .     A
C783   C855    1.489   .     S
C784   C786    1.414   .     A
C784   C858    1.489   .     S
C786   C269    1.530   1_556 S
C787   O821    1.288   .     A
C787   O823    1.283   .     A
C787   C789    1.395   .     S
C788   C790    1.399   .     S
C788   O822    1.283   .     A
C788   O824    1.289   .     A
C789   C962    1.322   1_455 S
C789   H975    1.087   1_455 S
C790   C875    1.322   .     S
C790   H890    1.085   .     S
C791   C801    1.400   .     A
C791   H805    1.083   .     S
C791   C793    1.382   .     A
C792   C794    1.380   .     A
C792   C802    1.404   .     A
C792   H806    1.083   .     S
C793   C795    1.399   .     A
C793   H807    1.081   .     S
C794   H808    1.083   .     S
C794   C796    1.392   .     A
C795   C797    1.399   .     A
C796   C798    1.395   .     A
C797   C799    1.378   .     A
C797   H809    1.080   .     S
C798   C800    1.381   .     A
C798   H810    1.084   .     S
C799   H811    1.084   .     S
C799   C801    1.398   .     A
C800   H812    1.083   .     S
C800   C802    1.400   .     A
C802   C543    1.447   1_565 S
H803   C875    1.087   .     S
H804   C962    1.085   1_455 S
N815   Zn826   2.030   .     S
N816   Zn825   2.030   .     S
O817   Zn825   1.996   .     S
O818   Zn826   1.996   .     S
O819   Zn826   1.994   .     S
O820   Zn825   1.994   .     S
O821   Zn825   1.972   .     S
O822   Zn826   1.972   .     S
O823   Zn826   1.967   .     S
O824   Zn825   1.967   .     S
C827   H828    1.078   .     S
C827   O829    1.222   .     D
C830   H831    1.078   .     S
C830   O832    1.221   .     D
C833   C838    1.401   .     A
C833   C834    1.407   .     A
C834   C835    1.399   .     A
C834   H839    1.083   .     S
C835   H840    1.082   .     S
C835   C836    1.398   .     A
C836   C837    1.397   .     A
C836   H841    1.082   .     S
C837   C838    1.398   .     A
C837   H928    1.082   .     S
C838   H843    1.081   .     S
H842   C1009   1.082   1_455 S
C844   C845    1.404   .     A
C844   C849    1.402   .     A
C845   H850    1.082   .     S
C845   C846    1.401   .     A
C846   C847    1.396   .     A
C846   H1023   1.081   1_455 S
C847   C848    1.396   .     A
C847   H1024   1.083   1_455 S
C848   C849    1.398   .     A
C848   H853    1.082   .     S
C849   H854    1.081   .     S
H851   C932    1.081   .     S
H852   C933    1.083   .     S
C855   H856    1.085   .     S
O857   C339    1.221   1_556 S
C858   H859    1.086   .     S
C858   O860    1.221   .     D
C861   C881    1.444   .     S
C861   O903    1.300   .     A
C861   O905    1.295   .     A
C862   O906    1.290   .     A
C862   O904    1.294   .     A
C862   C882    1.422   .     S
C863   H899    1.082   .     S
C863   C865    1.412   .     A
C863   C871    1.405   .     A
C864   H900    1.083   .     S
C864   C872    1.404   .     A
C864   C866    1.413   .     A
C865   C913    1.477   .     S
C865   N901    1.374   .     A
C866   C916    1.477   .     S
C866   N902    1.376   .     A
C867   C919    1.478   .     S
C867   C869    1.430   .     A
C867   N901    1.385   .     A
C868   N902    1.386   .     A
C868   C930    1.480   .     S
C868   C870    1.432   .     A
C869   C871    1.416   .     A
C869   C941    1.489   .     S
C870   C872    1.414   .     A
C870   C944    1.489   .     S
C872   C355    1.530   1_556 S
C873   O907    1.288   .     A
C873   O909    1.283   .     A
C873   C875    1.395   .     S
C874   C876    1.399   .     S
C874   O908    1.283   .     A
C874   O910    1.289   .     A
C876   C961    1.322   .     S
C876   H976    1.085   .     S
C877   C887    1.400   .     A
C877   H891    1.083   .     S
C877   C879    1.382   .     A
C878   C880    1.380   .     A
C878   C888    1.404   .     A
C878   H892    1.083   .     S
C879   C881    1.399   .     A
C879   H893    1.081   .     S
C880   H894    1.083   .     S
C880   C882    1.392   .     A
C881   C883    1.399   .     A
C882   C884    1.395   .     A
C883   C885    1.378   .     A
C883   H895    1.080   .     S
C884   C886    1.381   .     A
C884   H896    1.084   .     S
C885   H897    1.084   .     S
C885   C887    1.398   .     A
C886   H898    1.083   .     S
C886   C888    1.400   .     A
C888   C629    1.447   1_565 S
H889   C961    1.087   .     S
N901   Zn912   2.030   .     S
N902   Zn911   2.030   .     S
O903   Zn911   1.996   .     S
O904   Zn912   1.996   .     S
O905   Zn912   1.994   .     S
O906   Zn911   1.994   .     S
O907   Zn911   1.972   .     S
O908   Zn912   1.972   .     S
O909   Zn912   1.967   .     S
O910   Zn911   1.967   .     S
C913   H914    1.078   .     S
C913   O915    1.222   .     D
C916   H917    1.078   .     S
C916   O918    1.221   .     D
C919   C924    1.401   .     A
C919   C920    1.407   .     A
C920   C921    1.399   .     A
C920   H925    1.083   .     S
C921   H926    1.082   .     S
C921   C922    1.398   .     A
C922   C923    1.397   .     A
C922   H927    1.082   .     S
C923   C924    1.398   .     A
C923   H1014   1.082   .     S
C924   H929    1.081   .     S
C930   C931    1.404   .     A
C930   C935    1.402   .     A
C931   H936    1.082   .     S
C931   C932    1.401   .     A
C932   C933    1.396   .     A
C933   C934    1.396   .     A
C934   C935    1.398   .     A
C934   H939    1.082   .     S
C935   H940    1.081   .     S
H937   C1018   1.081   .     S
H938   C1019   1.083   .     S
C941   H942    1.085   .     S
O943   C425    1.221   1_556 S
C944   H945    1.086   .     S
C944   O946    1.221   .     D
C947   C967    1.444   .     S
C947   O989    1.300   .     A
C947   O991    1.295   .     A
C948   O992    1.290   .     A
C948   O990    1.294   .     A
C948   C968    1.422   .     S
C949   H985    1.082   .     S
C949   C951    1.412   .     A
C949   C957    1.405   .     A
C950   H986    1.083   .     S
C950   C958    1.404   .     A
C950   C952    1.413   .     A
C951   C999    1.477   .     S
C951   N987    1.374   .     A
C952   C1002   1.477   .     S
C952   N988    1.376   .     A
C953   C1005   1.478   .     S
C953   C955    1.430   .     A
C953   N987    1.385   .     A
C954   N988    1.386   .     A
C954   C1016   1.480   .     S
C954   C956    1.432   .     A
C955   C957    1.416   .     A
C955   C1027   1.489   .     S
C956   C958    1.414   .     A
C956   C1030   1.489   .     S
C958   C441    1.530   1_556 S
C959   O993    1.288   .     A
C959   O995    1.283   .     A
C959   C961    1.395   .     S
C960   C962    1.399   .     S
C960   O994    1.283   .     A
C960   O996    1.289   .     A
C962   C789    1.322   1_655 S
C962   H804    1.085   1_655 S
C963   C973    1.400   .     A
C963   H977    1.083   .     S
C963   C965    1.382   .     A
C964   C966    1.380   .     A
C964   C974    1.404   .     A
C964   H978    1.083   .     S
C965   C967    1.399   .     A
C965   H979    1.081   .     S
C966   H980    1.083   .     S
C966   C968    1.392   .     A
C967   C969    1.399   .     A
C968   C970    1.395   .     A
C969   C971    1.378   .     A
C969   H981    1.080   .     S
C970   C972    1.381   .     A
C970   H982    1.084   .     S
C971   H983    1.084   .     S
C971   C973    1.398   .     A
C972   H984    1.083   .     S
C972   C974    1.400   .     A
C974   C715    1.447   1_565 S
H975   C789    1.087   1_655 S
N987   Zn998   2.030   .     S
N988   Zn997   2.030   .     S
O989   Zn997   1.996   .     S
O990   Zn998   1.996   .     S
O991   Zn998   1.994   .     S
O992   Zn997   1.994   .     S
O993   Zn997   1.972   .     S
O994   Zn998   1.972   .     S
O995   Zn998   1.967   .     S
O996   Zn997   1.967   .     S
C999   H1000   1.078   .     S
C999   O1001   1.222   .     D
C1002  H1003   1.078   .     S
C1002  O1004   1.221   .     D
C1005  C1010   1.401   .     A
C1005  C1006   1.407   .     A
C1006  C1007   1.399   .     A
C1006  H1011   1.083   .     S
C1007  H1012   1.082   .     S
C1007  C1008   1.398   .     A
C1008  C1009   1.397   .     A
C1008  H1013   1.082   .     S
C1009  C1010   1.398   .     A
C1009  H842    1.082   1_655 S
C1010  H1015   1.081   .     S
C1016  C1017   1.404   .     A
C1016  C1021   1.402   .     A
C1017  H1022   1.082   .     S
C1017  C1018   1.401   .     A
C1018  C1019   1.396   .     A
C1019  C1020   1.396   .     A
C1020  C1021   1.398   .     A
C1020  H1025   1.082   .     S
C1021  H1026   1.081   .     S
H1023  C846    1.081   1_655 S
H1024  C847    1.083   1_655 S
C1027  H1028   1.085   .     S
O1029  C511    1.221   1_556 S
C1030  H1031   1.086   .     S
C1030  O1032   1.221   .     D
