data_str_m3_o10_o17_pcu_sym.114
_audit_creation_date              2020-01-03
_audit_creation_method            'Materials Studio'
_symmetry_space_group_name_H-M    'P1'
_symmetry_Int_Tables_number       1
_symmetry_cell_setting            triclinic
loop_
_symmetry_equiv_pos_as_xyz
  x,y,z
_cell_length_a                    24.0490
_cell_length_b                    25.9743
_cell_length_c                    29.5583
_cell_angle_alpha                 94.3690
_cell_angle_beta                  86.5720
_cell_angle_gamma                 91.9382
loop_
_atom_site_label
_atom_site_type_symbol
_atom_site_fract_x
_atom_site_fract_y
_atom_site_fract_z
_atom_site_U_iso_or_equiv
_atom_site_adp_type
_atom_site_occupancy
C1     C     0.18116   0.26443   0.24975   0.00000  Uiso   1.00
C2     C     0.18070   0.21268   0.40821   0.00000  Uiso   1.00
C3     C     0.16206   0.16515   0.11546   0.00000  Uiso   1.00
C4     C     0.16867   0.16678   0.38394   0.00000  Uiso   1.00
C5     C     0.18813   0.20579   0.09441   0.00000  Uiso   1.00
C6     C     0.14700   0.12464   0.40493   0.00000  Uiso   1.00
C7     C     0.17865   0.21353   0.04925   0.00000  Uiso   1.00
C8     C     0.13318   0.12900   0.45137   0.00000  Uiso   1.00
C9     C     0.15047   0.17308   0.02407   0.00000  Uiso   1.00
C10    C     0.15314   0.17291   0.47727   0.00000  Uiso   1.00
C11    C     0.12248   0.13138   0.04552   0.00000  Uiso   1.00
C12    C     0.15225   0.06901   0.25227   0.00000  Uiso   1.00
C13    C     0.17565   0.21641   0.45581   0.00000  Uiso   1.00
C14    C     0.19505   0.26093   0.02959   0.00000  Uiso   1.00
C15    C     0.09589   0.09300   0.47132   0.00000  Uiso   1.00
C16    C     0.21941   0.30414   0.06216   0.00000  Uiso   1.00
C17    C     0.22314   0.02746   0.05173   0.00000  Uiso   1.00
C18    C     0.24499   0.06094   0.09203   0.00000  Uiso   1.00
C19    C     0.05960   0.05804   0.44008   0.00000  Uiso   1.00
C20    C     0.02240   0.08950   0.41199   0.00000  Uiso   1.00
C21    C     0.02324   0.06897   0.36193   0.00000  Uiso   1.00
C22    C     0.19052   0.31262   0.45700   0.00000  Uiso   1.00
C23    C     0.18946   0.26305   0.48175   0.00000  Uiso   1.00
C24    C     0.24448   0.32096   0.42767   0.00000  Uiso   1.00
C25    C     0.23305   0.01091   0.38301   0.00000  Uiso   1.00
C26    C     0.04684   0.05811   0.04209   0.00000  Uiso   1.00
C27    C     0.05840   0.33309   0.03296   0.00000  Uiso   1.00
C28    C     0.06525   0.30537   0.07569   0.00000  Uiso   1.00
C29    C     0.00560   0.11692   0.20189   0.00000  Uiso   1.00
C30    C     0.31503   0.06246   0.20761   0.00000  Uiso   1.00
C31    C     0.01844   0.02175   0.18278   0.00000  Uiso   1.00
C32    C     0.32829   0.21912   0.29671   0.00000  Uiso   1.00
C33    C     0.00488   0.20503   0.34513   0.00000  Uiso   1.00
C34    C     0.09028   0.09374   0.01952   0.00000  Uiso   1.00
C35    C     0.04155   0.24497   0.37112   0.00000  Uiso   1.00
C36    C     0.18884   0.31866   0.25013   0.00000  Uiso   1.00
C37    C     0.14487   0.01507   0.25608   0.00000  Uiso   1.00
C38    C     0.16743   0.16629   0.33604   0.00000  Uiso   1.00
C39    C     0.16540   0.16449   0.16361   0.00000  Uiso   1.00
C40    C     0.12795   0.12913   0.09224   0.00000  Uiso   1.00
H41    H     0.10986   0.09787   0.11081   0.00000  Uiso   1.00
H42    H     0.25188   0.03267   0.02179   0.00000  Uiso   1.00
H43    H     0.18096   0.04085   0.04675   0.00000  Uiso   1.00
H44    H     0.19282   0.30515   0.09425   0.00000  Uiso   1.00
H45    H     0.26168   0.29240   0.06972   0.00000  Uiso   1.00
H46    H     0.06145   0.08252   0.34309   0.00000  Uiso   1.00
H47    H     0.02235   0.02638   0.35836   0.00000  Uiso   1.00
H48    H     0.32005   0.08286   0.34563   0.00000  Uiso   1.00
H49    H     0.31238   0.08865   0.42693   0.00000  Uiso   1.00
H50    H     0.03497   0.13105   0.41366   0.00000  Uiso   1.00
H51    H     0.08693   0.03213   0.41781   0.00000  Uiso   1.00
H52    H     0.19355   0.24452   0.38857   0.00000  Uiso   1.00
H53    H     0.03176   0.03117   0.45805   0.00000  Uiso   1.00
H54    H     0.23195   0.05355   0.38831   0.00000  Uiso   1.00
H55    H     0.26592   0.33323   0.35658   0.00000  Uiso   1.00
H56    H     0.19304   0.32984   0.36916   0.00000  Uiso   1.00
H57    H     0.27330   0.01334   0.44708   0.00000  Uiso   1.00
H58    H     0.26635   0.28416   0.42001   0.00000  Uiso   1.00
H59    H     0.15396   0.30950   0.43565   0.00000  Uiso   1.00
H60    H     0.18079   0.01465   0.47780   0.00000  Uiso   1.00
H61    H     0.02446   0.30175   0.09483   0.00000  Uiso   1.00
H62    H     0.09646   0.32610   0.09708   0.00000  Uiso   1.00
H63    H     0.21437   0.23173   0.11477   0.00000  Uiso   1.00
H64    H     0.07930   0.26561   0.06611   0.00000  Uiso   1.00
H65    H     0.02297   0.31333   0.01554   0.00000  Uiso   1.00
H66    H     0.09599   0.32714   0.01021   0.00000  Uiso   1.00
H67    H     0.03933   0.06852   0.07868   0.00000  Uiso   1.00
H68    H     0.00641   0.06601   0.02839   0.00000  Uiso   1.00
H69    H     0.02935   0.03342   0.14825   0.00000  Uiso   1.00
H70    H     0.05744   0.01866   0.20014   0.00000  Uiso   1.00
H71    H     0.32943   0.31692   0.18109   0.00000  Uiso   1.00
H72    H     0.31080   0.05504   0.24424   0.00000  Uiso   1.00
H73    H     0.27396   0.05872   0.19241   0.00000  Uiso   1.00
H74    H     0.13798   0.08990   0.38396   0.00000  Uiso   1.00
H75    H     0.32782   0.12966   0.16862   0.00000  Uiso   1.00
H76    H     0.05030   0.11523   0.20106   0.00000  Uiso   1.00
H77    H     0.07944   0.25591   0.35032   0.00000  Uiso   1.00
H78    H     0.01789   0.28011   0.38097   0.00000  Uiso   1.00
H79    H     0.05431   0.22909   0.40263   0.00000  Uiso   1.00
H80    H     0.29778   0.20135   0.36509   0.00000  Uiso   1.00
H81    H     0.02345   0.16693   0.34389   0.00000  Uiso   1.00
H82    H     0.01463   0.25726   0.28979   0.00000  Uiso   1.00
H83    H     0.28403   0.22367   0.29610   0.00000  Uiso   1.00
H84    H     0.23091   0.00049   0.24443   0.00000  Uiso   1.00
H85    H     0.10292   0.33302   0.26326   0.00000  Uiso   1.00
H86    H     0.21354   0.06202   0.12115   0.00000  Uiso   1.00
H87    H     0.28357   0.04510   0.10323   0.00000  Uiso   1.00
H88    H     0.25404   0.10089   0.08219   0.00000  Uiso   1.00
N89    N     0.31678   0.15265   0.23783   0.00000  Uiso   1.00
N90    N     0.01656   0.18068   0.26217   0.00000  Uiso   1.00
O91    O     0.12975   0.24619   0.25298   0.00000  Uiso   1.00
O92    O     0.20358   0.08714   0.24701   0.00000  Uiso   1.00
O93    O     0.22613   0.23721   0.24518   0.00000  Uiso   1.00
O94    O     0.10720   0.09613   0.25481   0.00000  Uiso   1.00
O95    O     0.11847   0.17117   0.31997   0.00000  Uiso   1.00
O96    O     0.21486   0.16216   0.18002   0.00000  Uiso   1.00
O97    O     0.21485   0.16219   0.31217   0.00000  Uiso   1.00
O98    O     0.11848   0.17115   0.18782   0.00000  Uiso   1.00
Zn99   Zn    0.10231   0.17266   0.25521   0.00000  Uiso   1.00
Zn100  Zn    0.23102   0.16067   0.24479   0.00000  Uiso   1.00
C101   C     0.51450   0.26443   0.24975   0.00000  Uiso   1.00
C102   C     0.51403   0.21268   0.40821   0.00000  Uiso   1.00
C103   C     0.49539   0.16515   0.11546   0.00000  Uiso   1.00
C104   C     0.50201   0.16678   0.38394   0.00000  Uiso   1.00
C105   C     0.52146   0.20579   0.09441   0.00000  Uiso   1.00
C106   C     0.48033   0.12464   0.40493   0.00000  Uiso   1.00
C107   C     0.51199   0.21353   0.04925   0.00000  Uiso   1.00
C108   C     0.46651   0.12900   0.45137   0.00000  Uiso   1.00
C109   C     0.48380   0.17308   0.02407   0.00000  Uiso   1.00
C110   C     0.48647   0.17291   0.47727   0.00000  Uiso   1.00
C111   C     0.45582   0.13138   0.04552   0.00000  Uiso   1.00
C112   C     0.48559   0.06901   0.25227   0.00000  Uiso   1.00
C113   C     0.50898   0.21641   0.45581   0.00000  Uiso   1.00
C114   C     0.52838   0.26093   0.02959   0.00000  Uiso   1.00
C115   C     0.42922   0.09300   0.47132   0.00000  Uiso   1.00
C116   C     0.55275   0.30414   0.06216   0.00000  Uiso   1.00
C117   C     0.55647   0.02746   0.05173   0.00000  Uiso   1.00
C118   C     0.57832   0.06094   0.09203   0.00000  Uiso   1.00
C119   C     0.39293   0.05804   0.44008   0.00000  Uiso   1.00
C120   C     0.35573   0.08950   0.41199   0.00000  Uiso   1.00
C121   C     0.35658   0.06897   0.36193   0.00000  Uiso   1.00
C122   C     0.52385   0.31262   0.45700   0.00000  Uiso   1.00
C123   C     0.52279   0.26305   0.48175   0.00000  Uiso   1.00
C124   C     0.57782   0.32096   0.42767   0.00000  Uiso   1.00
C125   C     0.56638   0.01091   0.38301   0.00000  Uiso   1.00
C126   C     0.38018   0.05811   0.04209   0.00000  Uiso   1.00
C127   C     0.39173   0.33309   0.03296   0.00000  Uiso   1.00
C128   C     0.39859   0.30537   0.07569   0.00000  Uiso   1.00
C129   C     0.33893   0.11692   0.20189   0.00000  Uiso   1.00
C130   C     0.64836   0.06246   0.20761   0.00000  Uiso   1.00
C131   C     0.35177   0.02175   0.18278   0.00000  Uiso   1.00
C132   C     0.66163   0.21912   0.29671   0.00000  Uiso   1.00
C133   C     0.33822   0.20503   0.34513   0.00000  Uiso   1.00
C134   C     0.42362   0.09374   0.01952   0.00000  Uiso   1.00
C135   C     0.37488   0.24497   0.37112   0.00000  Uiso   1.00
C136   C     0.52217   0.31866   0.25013   0.00000  Uiso   1.00
C137   C     0.47820   0.01507   0.25608   0.00000  Uiso   1.00
C138   C     0.50077   0.16629   0.33604   0.00000  Uiso   1.00
C139   C     0.49873   0.16449   0.16361   0.00000  Uiso   1.00
C140   C     0.46129   0.12913   0.09224   0.00000  Uiso   1.00
H141   H     0.44319   0.09787   0.11081   0.00000  Uiso   1.00
H142   H     0.58521   0.03267   0.02179   0.00000  Uiso   1.00
H143   H     0.51429   0.04085   0.04675   0.00000  Uiso   1.00
H144   H     0.52615   0.30515   0.09425   0.00000  Uiso   1.00
H145   H     0.59502   0.29240   0.06972   0.00000  Uiso   1.00
H146   H     0.39479   0.08252   0.34309   0.00000  Uiso   1.00
H147   H     0.35568   0.02638   0.35836   0.00000  Uiso   1.00
H148   H     0.65339   0.08286   0.34563   0.00000  Uiso   1.00
H149   H     0.64571   0.08865   0.42693   0.00000  Uiso   1.00
H150   H     0.36830   0.13105   0.41366   0.00000  Uiso   1.00
H151   H     0.42027   0.03213   0.41781   0.00000  Uiso   1.00
H152   H     0.52688   0.24452   0.38857   0.00000  Uiso   1.00
H153   H     0.36509   0.03117   0.45805   0.00000  Uiso   1.00
H154   H     0.56528   0.05355   0.38831   0.00000  Uiso   1.00
H155   H     0.59925   0.33323   0.35658   0.00000  Uiso   1.00
H156   H     0.52638   0.32984   0.36916   0.00000  Uiso   1.00
H157   H     0.60663   0.01334   0.44708   0.00000  Uiso   1.00
H158   H     0.59968   0.28416   0.42001   0.00000  Uiso   1.00
H159   H     0.48729   0.30950   0.43565   0.00000  Uiso   1.00
H160   H     0.51413   0.01465   0.47780   0.00000  Uiso   1.00
H161   H     0.35779   0.30175   0.09483   0.00000  Uiso   1.00
H162   H     0.42980   0.32610   0.09708   0.00000  Uiso   1.00
H163   H     0.54771   0.23173   0.11477   0.00000  Uiso   1.00
H164   H     0.41263   0.26561   0.06611   0.00000  Uiso   1.00
H165   H     0.35630   0.31333   0.01554   0.00000  Uiso   1.00
H166   H     0.42932   0.32714   0.01021   0.00000  Uiso   1.00
H167   H     0.37266   0.06852   0.07868   0.00000  Uiso   1.00
H168   H     0.33975   0.06601   0.02839   0.00000  Uiso   1.00
H169   H     0.36268   0.03342   0.14825   0.00000  Uiso   1.00
H170   H     0.39078   0.01866   0.20014   0.00000  Uiso   1.00
H171   H     0.66276   0.31692   0.18109   0.00000  Uiso   1.00
H172   H     0.64413   0.05504   0.24424   0.00000  Uiso   1.00
H173   H     0.60729   0.05872   0.19241   0.00000  Uiso   1.00
H174   H     0.47132   0.08990   0.38396   0.00000  Uiso   1.00
H175   H     0.66116   0.12966   0.16862   0.00000  Uiso   1.00
H176   H     0.38363   0.11523   0.20106   0.00000  Uiso   1.00
H177   H     0.41278   0.25591   0.35032   0.00000  Uiso   1.00
H178   H     0.35122   0.28011   0.38097   0.00000  Uiso   1.00
H179   H     0.38765   0.22909   0.40263   0.00000  Uiso   1.00
H180   H     0.63111   0.20135   0.36509   0.00000  Uiso   1.00
H181   H     0.35678   0.16693   0.34389   0.00000  Uiso   1.00
H182   H     0.34796   0.25726   0.28979   0.00000  Uiso   1.00
H183   H     0.61736   0.22367   0.29610   0.00000  Uiso   1.00
H184   H     0.56424   0.00049   0.24443   0.00000  Uiso   1.00
H185   H     0.43626   0.33302   0.26326   0.00000  Uiso   1.00
H186   H     0.54687   0.06202   0.12115   0.00000  Uiso   1.00
H187   H     0.61690   0.04510   0.10323   0.00000  Uiso   1.00
H188   H     0.58737   0.10089   0.08219   0.00000  Uiso   1.00
N189   N     0.65011   0.15265   0.23783   0.00000  Uiso   1.00
N190   N     0.34989   0.18068   0.26217   0.00000  Uiso   1.00
O191   O     0.46308   0.24619   0.25298   0.00000  Uiso   1.00
O192   O     0.53692   0.08714   0.24701   0.00000  Uiso   1.00
O193   O     0.55946   0.23721   0.24518   0.00000  Uiso   1.00
O194   O     0.44054   0.09613   0.25481   0.00000  Uiso   1.00
O195   O     0.45181   0.17117   0.31997   0.00000  Uiso   1.00
O196   O     0.54819   0.16216   0.18002   0.00000  Uiso   1.00
O197   O     0.54819   0.16219   0.31217   0.00000  Uiso   1.00
O198   O     0.45181   0.17115   0.18782   0.00000  Uiso   1.00
Zn199  Zn    0.43565   0.17266   0.25521   0.00000  Uiso   1.00
Zn200  Zn    0.56435   0.16067   0.24479   0.00000  Uiso   1.00
C201   C     0.84783   0.26443   0.24975   0.00000  Uiso   1.00
C202   C     0.84737   0.21268   0.40821   0.00000  Uiso   1.00
C203   C     0.82872   0.16515   0.11546   0.00000  Uiso   1.00
C204   C     0.83534   0.16678   0.38394   0.00000  Uiso   1.00
C205   C     0.85480   0.20579   0.09441   0.00000  Uiso   1.00
C206   C     0.81366   0.12464   0.40493   0.00000  Uiso   1.00
C207   C     0.84532   0.21353   0.04925   0.00000  Uiso   1.00
C208   C     0.79985   0.12900   0.45137   0.00000  Uiso   1.00
C209   C     0.81714   0.17308   0.02407   0.00000  Uiso   1.00
C210   C     0.81981   0.17291   0.47727   0.00000  Uiso   1.00
C211   C     0.78915   0.13138   0.04552   0.00000  Uiso   1.00
C212   C     0.81892   0.06901   0.25227   0.00000  Uiso   1.00
C213   C     0.84232   0.21641   0.45581   0.00000  Uiso   1.00
C214   C     0.86172   0.26093   0.02959   0.00000  Uiso   1.00
C215   C     0.76256   0.09300   0.47132   0.00000  Uiso   1.00
C216   C     0.88608   0.30414   0.06216   0.00000  Uiso   1.00
C217   C     0.88981   0.02746   0.05173   0.00000  Uiso   1.00
C218   C     0.91165   0.06094   0.09203   0.00000  Uiso   1.00
C219   C     0.72626   0.05804   0.44008   0.00000  Uiso   1.00
C220   C     0.68907   0.08950   0.41199   0.00000  Uiso   1.00
C221   C     0.68991   0.06897   0.36193   0.00000  Uiso   1.00
C222   C     0.85718   0.31262   0.45700   0.00000  Uiso   1.00
C223   C     0.85612   0.26305   0.48175   0.00000  Uiso   1.00
C224   C     0.91115   0.32096   0.42767   0.00000  Uiso   1.00
C225   C     0.89972   0.01091   0.38301   0.00000  Uiso   1.00
C226   C     0.71351   0.05811   0.04209   0.00000  Uiso   1.00
C227   C     0.72506   0.33309   0.03296   0.00000  Uiso   1.00
C228   C     0.73192   0.30537   0.07569   0.00000  Uiso   1.00
C229   C     0.67227   0.11692   0.20189   0.00000  Uiso   1.00
C230   C     0.98169   0.06246   0.20761   0.00000  Uiso   1.00
C231   C     0.68510   0.02175   0.18278   0.00000  Uiso   1.00
C232   C     0.99496   0.21912   0.29671   0.00000  Uiso   1.00
C233   C     0.67155   0.20503   0.34513   0.00000  Uiso   1.00
C234   C     0.75695   0.09374   0.01952   0.00000  Uiso   1.00
C235   C     0.70822   0.24497   0.37112   0.00000  Uiso   1.00
C236   C     0.85550   0.31866   0.25013   0.00000  Uiso   1.00
C237   C     0.81153   0.01507   0.25608   0.00000  Uiso   1.00
C238   C     0.83410   0.16629   0.33604   0.00000  Uiso   1.00
C239   C     0.83206   0.16449   0.16361   0.00000  Uiso   1.00
C240   C     0.79462   0.12913   0.09224   0.00000  Uiso   1.00
H241   H     0.77652   0.09787   0.11081   0.00000  Uiso   1.00
H242   H     0.91854   0.03267   0.02179   0.00000  Uiso   1.00
H243   H     0.84762   0.04085   0.04675   0.00000  Uiso   1.00
H244   H     0.85948   0.30515   0.09425   0.00000  Uiso   1.00
H245   H     0.92835   0.29240   0.06972   0.00000  Uiso   1.00
H246   H     0.72812   0.08252   0.34309   0.00000  Uiso   1.00
H247   H     0.68902   0.02638   0.35836   0.00000  Uiso   1.00
H248   H     0.98672   0.08286   0.34563   0.00000  Uiso   1.00
H249   H     0.97904   0.08865   0.42693   0.00000  Uiso   1.00
H250   H     0.70164   0.13105   0.41366   0.00000  Uiso   1.00
H251   H     0.75360   0.03213   0.41781   0.00000  Uiso   1.00
H252   H     0.86022   0.24452   0.38857   0.00000  Uiso   1.00
H253   H     0.69842   0.03117   0.45805   0.00000  Uiso   1.00
H254   H     0.89862   0.05355   0.38831   0.00000  Uiso   1.00
H255   H     0.93258   0.33323   0.35658   0.00000  Uiso   1.00
H256   H     0.85971   0.32984   0.36916   0.00000  Uiso   1.00
H257   H     0.93997   0.01334   0.44708   0.00000  Uiso   1.00
H258   H     0.93302   0.28416   0.42001   0.00000  Uiso   1.00
H259   H     0.82063   0.30950   0.43565   0.00000  Uiso   1.00
H260   H     0.84746   0.01465   0.47780   0.00000  Uiso   1.00
H261   H     0.69113   0.30175   0.09483   0.00000  Uiso   1.00
H262   H     0.76313   0.32610   0.09708   0.00000  Uiso   1.00
H263   H     0.88104   0.23173   0.11477   0.00000  Uiso   1.00
H264   H     0.74597   0.26561   0.06611   0.00000  Uiso   1.00
H265   H     0.68963   0.31333   0.01554   0.00000  Uiso   1.00
H266   H     0.76265   0.32714   0.01021   0.00000  Uiso   1.00
H267   H     0.70600   0.06852   0.07868   0.00000  Uiso   1.00
H268   H     0.67308   0.06601   0.02839   0.00000  Uiso   1.00
H269   H     0.69602   0.03342   0.14825   0.00000  Uiso   1.00
H270   H     0.72411   0.01866   0.20014   0.00000  Uiso   1.00
H271   H     0.99610   0.31692   0.18109   0.00000  Uiso   1.00
H272   H     0.97746   0.05504   0.24424   0.00000  Uiso   1.00
H273   H     0.94062   0.05872   0.19241   0.00000  Uiso   1.00
H274   H     0.80465   0.08990   0.38396   0.00000  Uiso   1.00
H275   H     0.99449   0.12966   0.16862   0.00000  Uiso   1.00
H276   H     0.71696   0.11523   0.20106   0.00000  Uiso   1.00
H277   H     0.74611   0.25591   0.35032   0.00000  Uiso   1.00
H278   H     0.68455   0.28011   0.38097   0.00000  Uiso   1.00
H279   H     0.72098   0.22909   0.40263   0.00000  Uiso   1.00
H280   H     0.96444   0.20135   0.36509   0.00000  Uiso   1.00
H281   H     0.69011   0.16693   0.34389   0.00000  Uiso   1.00
H282   H     0.68130   0.25726   0.28979   0.00000  Uiso   1.00
H283   H     0.95070   0.22367   0.29610   0.00000  Uiso   1.00
H284   H     0.89758   0.00049   0.24443   0.00000  Uiso   1.00
H285   H     0.76959   0.33302   0.26326   0.00000  Uiso   1.00
H286   H     0.88021   0.06202   0.12115   0.00000  Uiso   1.00
H287   H     0.95024   0.04510   0.10323   0.00000  Uiso   1.00
H288   H     0.92070   0.10089   0.08219   0.00000  Uiso   1.00
N289   N     0.98344   0.15265   0.23783   0.00000  Uiso   1.00
N290   N     0.68322   0.18068   0.26217   0.00000  Uiso   1.00
O291   O     0.79642   0.24619   0.25298   0.00000  Uiso   1.00
O292   O     0.87025   0.08714   0.24701   0.00000  Uiso   1.00
O293   O     0.89280   0.23721   0.24518   0.00000  Uiso   1.00
O294   O     0.77387   0.09613   0.25481   0.00000  Uiso   1.00
O295   O     0.78514   0.17117   0.31997   0.00000  Uiso   1.00
O296   O     0.88153   0.16216   0.18002   0.00000  Uiso   1.00
O297   O     0.88152   0.16219   0.31217   0.00000  Uiso   1.00
O298   O     0.78515   0.17115   0.18782   0.00000  Uiso   1.00
Zn299  Zn    0.76898   0.17266   0.25521   0.00000  Uiso   1.00
Zn300  Zn    0.89769   0.16067   0.24479   0.00000  Uiso   1.00
C301   C     0.18116   0.59776   0.24975   0.00000  Uiso   1.00
C302   C     0.18070   0.54601   0.40821   0.00000  Uiso   1.00
C303   C     0.16206   0.49849   0.11546   0.00000  Uiso   1.00
C304   C     0.16867   0.50011   0.38394   0.00000  Uiso   1.00
C305   C     0.18813   0.53913   0.09441   0.00000  Uiso   1.00
C306   C     0.14700   0.45798   0.40493   0.00000  Uiso   1.00
C307   C     0.17865   0.54687   0.04925   0.00000  Uiso   1.00
C308   C     0.13318   0.46233   0.45137   0.00000  Uiso   1.00
C309   C     0.15047   0.50641   0.02407   0.00000  Uiso   1.00
C310   C     0.15314   0.50625   0.47727   0.00000  Uiso   1.00
C311   C     0.12248   0.46472   0.04552   0.00000  Uiso   1.00
C312   C     0.15225   0.40234   0.25227   0.00000  Uiso   1.00
C313   C     0.17565   0.54975   0.45581   0.00000  Uiso   1.00
C314   C     0.19505   0.59426   0.02959   0.00000  Uiso   1.00
C315   C     0.09589   0.42634   0.47132   0.00000  Uiso   1.00
C316   C     0.21941   0.63747   0.06216   0.00000  Uiso   1.00
C317   C     0.22314   0.36080   0.05173   0.00000  Uiso   1.00
C318   C     0.24499   0.39427   0.09203   0.00000  Uiso   1.00
C319   C     0.05960   0.39137   0.44008   0.00000  Uiso   1.00
C320   C     0.02240   0.42283   0.41199   0.00000  Uiso   1.00
C321   C     0.02324   0.40230   0.36193   0.00000  Uiso   1.00
C322   C     0.19052   0.64596   0.45700   0.00000  Uiso   1.00
C323   C     0.18946   0.59638   0.48175   0.00000  Uiso   1.00
C324   C     0.24448   0.65429   0.42767   0.00000  Uiso   1.00
C325   C     0.23305   0.34424   0.38301   0.00000  Uiso   1.00
C326   C     0.04684   0.39144   0.04209   0.00000  Uiso   1.00
C327   C     0.05840   0.66642   0.03296   0.00000  Uiso   1.00
C328   C     0.06525   0.63870   0.07569   0.00000  Uiso   1.00
C329   C     0.00560   0.45025   0.20189   0.00000  Uiso   1.00
C330   C     0.31503   0.39579   0.20761   0.00000  Uiso   1.00
C331   C     0.01844   0.35509   0.18278   0.00000  Uiso   1.00
C332   C     0.32829   0.55245   0.29671   0.00000  Uiso   1.00
C333   C     0.00488   0.53837   0.34513   0.00000  Uiso   1.00
C334   C     0.09028   0.42707   0.01952   0.00000  Uiso   1.00
C335   C     0.04155   0.57830   0.37112   0.00000  Uiso   1.00
C336   C     0.18884   0.65199   0.25013   0.00000  Uiso   1.00
C337   C     0.14487   0.34840   0.25608   0.00000  Uiso   1.00
C338   C     0.16743   0.49962   0.33604   0.00000  Uiso   1.00
C339   C     0.16540   0.49782   0.16361   0.00000  Uiso   1.00
C340   C     0.12795   0.46246   0.09224   0.00000  Uiso   1.00
H341   H     0.10986   0.43120   0.11081   0.00000  Uiso   1.00
H342   H     0.25188   0.36601   0.02179   0.00000  Uiso   1.00
H343   H     0.18096   0.37419   0.04675   0.00000  Uiso   1.00
H344   H     0.19282   0.63848   0.09425   0.00000  Uiso   1.00
H345   H     0.26168   0.62573   0.06972   0.00000  Uiso   1.00
H346   H     0.06145   0.41586   0.34309   0.00000  Uiso   1.00
H347   H     0.02235   0.35971   0.35836   0.00000  Uiso   1.00
H348   H     0.32005   0.41619   0.34563   0.00000  Uiso   1.00
H349   H     0.31238   0.42198   0.42693   0.00000  Uiso   1.00
H350   H     0.03497   0.46438   0.41366   0.00000  Uiso   1.00
H351   H     0.08693   0.36546   0.41781   0.00000  Uiso   1.00
H352   H     0.19355   0.57785   0.38857   0.00000  Uiso   1.00
H353   H     0.03176   0.36451   0.45805   0.00000  Uiso   1.00
H354   H     0.23195   0.38689   0.38831   0.00000  Uiso   1.00
H355   H     0.26592   0.66656   0.35658   0.00000  Uiso   1.00
H356   H     0.19304   0.66317   0.36916   0.00000  Uiso   1.00
H357   H     0.27330   0.34668   0.44708   0.00000  Uiso   1.00
H358   H     0.26635   0.61749   0.42001   0.00000  Uiso   1.00
H359   H     0.15396   0.64283   0.43565   0.00000  Uiso   1.00
H360   H     0.18079   0.34798   0.47780   0.00000  Uiso   1.00
H361   H     0.02446   0.63508   0.09483   0.00000  Uiso   1.00
H362   H     0.09646   0.65943   0.09708   0.00000  Uiso   1.00
H363   H     0.21437   0.56506   0.11477   0.00000  Uiso   1.00
H364   H     0.07930   0.59894   0.06611   0.00000  Uiso   1.00
H365   H     0.02297   0.64667   0.01554   0.00000  Uiso   1.00
H366   H     0.09599   0.66047   0.01021   0.00000  Uiso   1.00
H367   H     0.03933   0.40186   0.07868   0.00000  Uiso   1.00
H368   H     0.00641   0.39934   0.02839   0.00000  Uiso   1.00
H369   H     0.02935   0.36675   0.14825   0.00000  Uiso   1.00
H370   H     0.05744   0.35199   0.20014   0.00000  Uiso   1.00
H371   H     0.32943   0.65025   0.18109   0.00000  Uiso   1.00
H372   H     0.31080   0.38837   0.24424   0.00000  Uiso   1.00
H373   H     0.27396   0.39205   0.19241   0.00000  Uiso   1.00
H374   H     0.13798   0.42323   0.38396   0.00000  Uiso   1.00
H375   H     0.32782   0.46299   0.16862   0.00000  Uiso   1.00
H376   H     0.05030   0.44856   0.20106   0.00000  Uiso   1.00
H377   H     0.07944   0.58924   0.35032   0.00000  Uiso   1.00
H378   H     0.01789   0.61344   0.38097   0.00000  Uiso   1.00
H379   H     0.05431   0.56243   0.40263   0.00000  Uiso   1.00
H380   H     0.29778   0.53468   0.36509   0.00000  Uiso   1.00
H381   H     0.02345   0.50026   0.34389   0.00000  Uiso   1.00
H382   H     0.01463   0.59060   0.28979   0.00000  Uiso   1.00
H383   H     0.28403   0.55700   0.29610   0.00000  Uiso   1.00
H384   H     0.23091   0.33382   0.24443   0.00000  Uiso   1.00
H385   H     0.10292   0.66635   0.26326   0.00000  Uiso   1.00
H386   H     0.21354   0.39535   0.12115   0.00000  Uiso   1.00
H387   H     0.28357   0.37844   0.10323   0.00000  Uiso   1.00
H388   H     0.25404   0.43423   0.08219   0.00000  Uiso   1.00
N389   N     0.31678   0.48598   0.23783   0.00000  Uiso   1.00
N390   N     0.01656   0.51402   0.26217   0.00000  Uiso   1.00
O391   O     0.12975   0.57952   0.25298   0.00000  Uiso   1.00
O392   O     0.20358   0.42048   0.24701   0.00000  Uiso   1.00
O393   O     0.22613   0.57054   0.24518   0.00000  Uiso   1.00
O394   O     0.10720   0.42946   0.25481   0.00000  Uiso   1.00
O395   O     0.11847   0.50450   0.31997   0.00000  Uiso   1.00
O396   O     0.21486   0.49550   0.18002   0.00000  Uiso   1.00
O397   O     0.21485   0.49552   0.31217   0.00000  Uiso   1.00
O398   O     0.11848   0.50448   0.18782   0.00000  Uiso   1.00
Zn399  Zn    0.10231   0.50600   0.25521   0.00000  Uiso   1.00
Zn400  Zn    0.23102   0.49400   0.24479   0.00000  Uiso   1.00
C401   C     0.51450   0.59776   0.24975   0.00000  Uiso   1.00
C402   C     0.51403   0.54601   0.40821   0.00000  Uiso   1.00
C403   C     0.49539   0.49849   0.11546   0.00000  Uiso   1.00
C404   C     0.50201   0.50011   0.38394   0.00000  Uiso   1.00
C405   C     0.52146   0.53913   0.09441   0.00000  Uiso   1.00
C406   C     0.48033   0.45798   0.40493   0.00000  Uiso   1.00
C407   C     0.51199   0.54687   0.04925   0.00000  Uiso   1.00
C408   C     0.46651   0.46233   0.45137   0.00000  Uiso   1.00
C409   C     0.48380   0.50641   0.02407   0.00000  Uiso   1.00
C410   C     0.48647   0.50625   0.47727   0.00000  Uiso   1.00
C411   C     0.45582   0.46472   0.04552   0.00000  Uiso   1.00
C412   C     0.48559   0.40234   0.25227   0.00000  Uiso   1.00
C413   C     0.50898   0.54975   0.45581   0.00000  Uiso   1.00
C414   C     0.52838   0.59426   0.02959   0.00000  Uiso   1.00
C415   C     0.42922   0.42634   0.47132   0.00000  Uiso   1.00
C416   C     0.55275   0.63747   0.06216   0.00000  Uiso   1.00
C417   C     0.55647   0.36080   0.05173   0.00000  Uiso   1.00
C418   C     0.57832   0.39427   0.09203   0.00000  Uiso   1.00
C419   C     0.39293   0.39137   0.44008   0.00000  Uiso   1.00
C420   C     0.35573   0.42283   0.41199   0.00000  Uiso   1.00
C421   C     0.35658   0.40230   0.36193   0.00000  Uiso   1.00
C422   C     0.52385   0.64596   0.45700   0.00000  Uiso   1.00
C423   C     0.52279   0.59638   0.48175   0.00000  Uiso   1.00
C424   C     0.57782   0.65429   0.42767   0.00000  Uiso   1.00
C425   C     0.56638   0.34424   0.38301   0.00000  Uiso   1.00
C426   C     0.38018   0.39144   0.04209   0.00000  Uiso   1.00
C427   C     0.39173   0.66642   0.03296   0.00000  Uiso   1.00
C428   C     0.39859   0.63870   0.07569   0.00000  Uiso   1.00
C429   C     0.33893   0.45025   0.20189   0.00000  Uiso   1.00
C430   C     0.64836   0.39579   0.20761   0.00000  Uiso   1.00
C431   C     0.35177   0.35509   0.18278   0.00000  Uiso   1.00
C432   C     0.66163   0.55245   0.29671   0.00000  Uiso   1.00
C433   C     0.33822   0.53837   0.34513   0.00000  Uiso   1.00
C434   C     0.42362   0.42707   0.01952   0.00000  Uiso   1.00
C435   C     0.37488   0.57830   0.37112   0.00000  Uiso   1.00
C436   C     0.52217   0.65199   0.25013   0.00000  Uiso   1.00
C437   C     0.47820   0.34840   0.25608   0.00000  Uiso   1.00
C438   C     0.50077   0.49962   0.33604   0.00000  Uiso   1.00
C439   C     0.49873   0.49782   0.16361   0.00000  Uiso   1.00
C440   C     0.46129   0.46246   0.09224   0.00000  Uiso   1.00
H441   H     0.44319   0.43120   0.11081   0.00000  Uiso   1.00
H442   H     0.58521   0.36601   0.02179   0.00000  Uiso   1.00
H443   H     0.51429   0.37419   0.04675   0.00000  Uiso   1.00
H444   H     0.52615   0.63848   0.09425   0.00000  Uiso   1.00
H445   H     0.59502   0.62573   0.06972   0.00000  Uiso   1.00
H446   H     0.39479   0.41586   0.34309   0.00000  Uiso   1.00
H447   H     0.35568   0.35971   0.35836   0.00000  Uiso   1.00
H448   H     0.65339   0.41619   0.34563   0.00000  Uiso   1.00
H449   H     0.64571   0.42198   0.42693   0.00000  Uiso   1.00
H450   H     0.36830   0.46438   0.41366   0.00000  Uiso   1.00
H451   H     0.42027   0.36546   0.41781   0.00000  Uiso   1.00
H452   H     0.52688   0.57785   0.38857   0.00000  Uiso   1.00
H453   H     0.36509   0.36451   0.45805   0.00000  Uiso   1.00
H454   H     0.56528   0.38689   0.38831   0.00000  Uiso   1.00
H455   H     0.59925   0.66656   0.35658   0.00000  Uiso   1.00
H456   H     0.52638   0.66317   0.36916   0.00000  Uiso   1.00
H457   H     0.60663   0.34668   0.44708   0.00000  Uiso   1.00
H458   H     0.59968   0.61749   0.42001   0.00000  Uiso   1.00
H459   H     0.48729   0.64283   0.43565   0.00000  Uiso   1.00
H460   H     0.51413   0.34798   0.47780   0.00000  Uiso   1.00
H461   H     0.35779   0.63508   0.09483   0.00000  Uiso   1.00
H462   H     0.42980   0.65943   0.09708   0.00000  Uiso   1.00
H463   H     0.54771   0.56506   0.11477   0.00000  Uiso   1.00
H464   H     0.41263   0.59894   0.06611   0.00000  Uiso   1.00
H465   H     0.35630   0.64667   0.01554   0.00000  Uiso   1.00
H466   H     0.42932   0.66047   0.01021   0.00000  Uiso   1.00
H467   H     0.37266   0.40186   0.07868   0.00000  Uiso   1.00
H468   H     0.33975   0.39934   0.02839   0.00000  Uiso   1.00
H469   H     0.36268   0.36675   0.14825   0.00000  Uiso   1.00
H470   H     0.39078   0.35199   0.20014   0.00000  Uiso   1.00
H471   H     0.66276   0.65025   0.18109   0.00000  Uiso   1.00
H472   H     0.64413   0.38837   0.24424   0.00000  Uiso   1.00
H473   H     0.60729   0.39205   0.19241   0.00000  Uiso   1.00
H474   H     0.47132   0.42323   0.38396   0.00000  Uiso   1.00
H475   H     0.66116   0.46299   0.16862   0.00000  Uiso   1.00
H476   H     0.38363   0.44856   0.20106   0.00000  Uiso   1.00
H477   H     0.41278   0.58924   0.35032   0.00000  Uiso   1.00
H478   H     0.35122   0.61344   0.38097   0.00000  Uiso   1.00
H479   H     0.38765   0.56243   0.40263   0.00000  Uiso   1.00
H480   H     0.63111   0.53468   0.36509   0.00000  Uiso   1.00
H481   H     0.35678   0.50026   0.34389   0.00000  Uiso   1.00
H482   H     0.34796   0.59060   0.28979   0.00000  Uiso   1.00
H483   H     0.61736   0.55700   0.29610   0.00000  Uiso   1.00
H484   H     0.56424   0.33382   0.24443   0.00000  Uiso   1.00
H485   H     0.43626   0.66635   0.26326   0.00000  Uiso   1.00
H486   H     0.54687   0.39535   0.12115   0.00000  Uiso   1.00
H487   H     0.61690   0.37844   0.10323   0.00000  Uiso   1.00
H488   H     0.58737   0.43423   0.08219   0.00000  Uiso   1.00
N489   N     0.65011   0.48598   0.23783   0.00000  Uiso   1.00
N490   N     0.34989   0.51402   0.26217   0.00000  Uiso   1.00
O491   O     0.46308   0.57952   0.25298   0.00000  Uiso   1.00
O492   O     0.53692   0.42048   0.24701   0.00000  Uiso   1.00
O493   O     0.55946   0.57054   0.24518   0.00000  Uiso   1.00
O494   O     0.44054   0.42946   0.25481   0.00000  Uiso   1.00
O495   O     0.45181   0.50450   0.31997   0.00000  Uiso   1.00
O496   O     0.54819   0.49550   0.18002   0.00000  Uiso   1.00
O497   O     0.54819   0.49552   0.31217   0.00000  Uiso   1.00
O498   O     0.45181   0.50448   0.18782   0.00000  Uiso   1.00
Zn499  Zn    0.43565   0.50600   0.25521   0.00000  Uiso   1.00
Zn500  Zn    0.56435   0.49400   0.24479   0.00000  Uiso   1.00
C501   C     0.84783   0.59776   0.24975   0.00000  Uiso   1.00
C502   C     0.84737   0.54601   0.40821   0.00000  Uiso   1.00
C503   C     0.82872   0.49849   0.11546   0.00000  Uiso   1.00
C504   C     0.83534   0.50011   0.38394   0.00000  Uiso   1.00
C505   C     0.85480   0.53913   0.09441   0.00000  Uiso   1.00
C506   C     0.81366   0.45798   0.40493   0.00000  Uiso   1.00
C507   C     0.84532   0.54687   0.04925   0.00000  Uiso   1.00
C508   C     0.79985   0.46233   0.45137   0.00000  Uiso   1.00
C509   C     0.81714   0.50641   0.02407   0.00000  Uiso   1.00
C510   C     0.81981   0.50625   0.47727   0.00000  Uiso   1.00
C511   C     0.78915   0.46472   0.04552   0.00000  Uiso   1.00
C512   C     0.81892   0.40234   0.25227   0.00000  Uiso   1.00
C513   C     0.84232   0.54975   0.45581   0.00000  Uiso   1.00
C514   C     0.86172   0.59426   0.02959   0.00000  Uiso   1.00
C515   C     0.76256   0.42634   0.47132   0.00000  Uiso   1.00
C516   C     0.88608   0.63747   0.06216   0.00000  Uiso   1.00
C517   C     0.88981   0.36080   0.05173   0.00000  Uiso   1.00
C518   C     0.91165   0.39427   0.09203   0.00000  Uiso   1.00
C519   C     0.72626   0.39137   0.44008   0.00000  Uiso   1.00
C520   C     0.68907   0.42283   0.41199   0.00000  Uiso   1.00
C521   C     0.68991   0.40230   0.36193   0.00000  Uiso   1.00
C522   C     0.85718   0.64596   0.45700   0.00000  Uiso   1.00
C523   C     0.85612   0.59638   0.48175   0.00000  Uiso   1.00
C524   C     0.91115   0.65429   0.42767   0.00000  Uiso   1.00
C525   C     0.89972   0.34424   0.38301   0.00000  Uiso   1.00
C526   C     0.71351   0.39144   0.04209   0.00000  Uiso   1.00
C527   C     0.72506   0.66642   0.03296   0.00000  Uiso   1.00
C528   C     0.73192   0.63870   0.07569   0.00000  Uiso   1.00
C529   C     0.67227   0.45025   0.20189   0.00000  Uiso   1.00
C530   C     0.98169   0.39579   0.20761   0.00000  Uiso   1.00
C531   C     0.68510   0.35509   0.18278   0.00000  Uiso   1.00
C532   C     0.99496   0.55245   0.29671   0.00000  Uiso   1.00
C533   C     0.67155   0.53837   0.34513   0.00000  Uiso   1.00
C534   C     0.75695   0.42707   0.01952   0.00000  Uiso   1.00
C535   C     0.70822   0.57830   0.37112   0.00000  Uiso   1.00
C536   C     0.85550   0.65199   0.25013   0.00000  Uiso   1.00
C537   C     0.81153   0.34840   0.25608   0.00000  Uiso   1.00
C538   C     0.83410   0.49962   0.33604   0.00000  Uiso   1.00
C539   C     0.83206   0.49782   0.16361   0.00000  Uiso   1.00
C540   C     0.79462   0.46246   0.09224   0.00000  Uiso   1.00
H541   H     0.77652   0.43120   0.11081   0.00000  Uiso   1.00
H542   H     0.91854   0.36601   0.02179   0.00000  Uiso   1.00
H543   H     0.84762   0.37419   0.04675   0.00000  Uiso   1.00
H544   H     0.85948   0.63848   0.09425   0.00000  Uiso   1.00
H545   H     0.92835   0.62573   0.06972   0.00000  Uiso   1.00
H546   H     0.72812   0.41586   0.34309   0.00000  Uiso   1.00
H547   H     0.68902   0.35971   0.35836   0.00000  Uiso   1.00
H548   H     0.98672   0.41619   0.34563   0.00000  Uiso   1.00
H549   H     0.97904   0.42198   0.42693   0.00000  Uiso   1.00
H550   H     0.70164   0.46438   0.41366   0.00000  Uiso   1.00
H551   H     0.75360   0.36546   0.41781   0.00000  Uiso   1.00
H552   H     0.86022   0.57785   0.38857   0.00000  Uiso   1.00
H553   H     0.69842   0.36451   0.45805   0.00000  Uiso   1.00
H554   H     0.89862   0.38689   0.38831   0.00000  Uiso   1.00
H555   H     0.93258   0.66656   0.35658   0.00000  Uiso   1.00
H556   H     0.85971   0.66317   0.36916   0.00000  Uiso   1.00
H557   H     0.93997   0.34668   0.44708   0.00000  Uiso   1.00
H558   H     0.93302   0.61749   0.42001   0.00000  Uiso   1.00
H559   H     0.82063   0.64283   0.43565   0.00000  Uiso   1.00
H560   H     0.84746   0.34798   0.47780   0.00000  Uiso   1.00
H561   H     0.69113   0.63508   0.09483   0.00000  Uiso   1.00
H562   H     0.76313   0.65943   0.09708   0.00000  Uiso   1.00
H563   H     0.88104   0.56506   0.11477   0.00000  Uiso   1.00
H564   H     0.74597   0.59894   0.06611   0.00000  Uiso   1.00
H565   H     0.68963   0.64667   0.01554   0.00000  Uiso   1.00
H566   H     0.76265   0.66047   0.01021   0.00000  Uiso   1.00
H567   H     0.70600   0.40186   0.07868   0.00000  Uiso   1.00
H568   H     0.67308   0.39934   0.02839   0.00000  Uiso   1.00
H569   H     0.69602   0.36675   0.14825   0.00000  Uiso   1.00
H570   H     0.72411   0.35199   0.20014   0.00000  Uiso   1.00
H571   H     0.99610   0.65025   0.18109   0.00000  Uiso   1.00
H572   H     0.97746   0.38837   0.24424   0.00000  Uiso   1.00
H573   H     0.94062   0.39205   0.19241   0.00000  Uiso   1.00
H574   H     0.80465   0.42323   0.38396   0.00000  Uiso   1.00
H575   H     0.99449   0.46299   0.16862   0.00000  Uiso   1.00
H576   H     0.71696   0.44856   0.20106   0.00000  Uiso   1.00
H577   H     0.74611   0.58924   0.35032   0.00000  Uiso   1.00
H578   H     0.68455   0.61344   0.38097   0.00000  Uiso   1.00
H579   H     0.72098   0.56243   0.40263   0.00000  Uiso   1.00
H580   H     0.96444   0.53468   0.36509   0.00000  Uiso   1.00
H581   H     0.69011   0.50026   0.34389   0.00000  Uiso   1.00
H582   H     0.68130   0.59060   0.28979   0.00000  Uiso   1.00
H583   H     0.95070   0.55700   0.29610   0.00000  Uiso   1.00
H584   H     0.89758   0.33382   0.24443   0.00000  Uiso   1.00
H585   H     0.76959   0.66635   0.26326   0.00000  Uiso   1.00
H586   H     0.88021   0.39535   0.12115   0.00000  Uiso   1.00
H587   H     0.95024   0.37844   0.10323   0.00000  Uiso   1.00
H588   H     0.92070   0.43423   0.08219   0.00000  Uiso   1.00
N589   N     0.98344   0.48598   0.23783   0.00000  Uiso   1.00
N590   N     0.68322   0.51402   0.26217   0.00000  Uiso   1.00
O591   O     0.79642   0.57952   0.25298   0.00000  Uiso   1.00
O592   O     0.87025   0.42048   0.24701   0.00000  Uiso   1.00
O593   O     0.89280   0.57054   0.24518   0.00000  Uiso   1.00
O594   O     0.77387   0.42946   0.25481   0.00000  Uiso   1.00
O595   O     0.78514   0.50450   0.31997   0.00000  Uiso   1.00
O596   O     0.88153   0.49550   0.18002   0.00000  Uiso   1.00
O597   O     0.88152   0.49552   0.31217   0.00000  Uiso   1.00
O598   O     0.78515   0.50448   0.18782   0.00000  Uiso   1.00
Zn599  Zn    0.76898   0.50600   0.25521   0.00000  Uiso   1.00
Zn600  Zn    0.89769   0.49400   0.24479   0.00000  Uiso   1.00
C601   C     0.18116   0.93109   0.24975   0.00000  Uiso   1.00
C602   C     0.18070   0.87935   0.40821   0.00000  Uiso   1.00
C603   C     0.16206   0.83182   0.11546   0.00000  Uiso   1.00
C604   C     0.16867   0.83345   0.38394   0.00000  Uiso   1.00
C605   C     0.18813   0.87246   0.09441   0.00000  Uiso   1.00
C606   C     0.14700   0.79131   0.40493   0.00000  Uiso   1.00
C607   C     0.17865   0.88020   0.04925   0.00000  Uiso   1.00
C608   C     0.13318   0.79566   0.45137   0.00000  Uiso   1.00
C609   C     0.15047   0.83975   0.02407   0.00000  Uiso   1.00
C610   C     0.15314   0.83958   0.47727   0.00000  Uiso   1.00
C611   C     0.12248   0.79805   0.04552   0.00000  Uiso   1.00
C612   C     0.15225   0.73568   0.25227   0.00000  Uiso   1.00
C613   C     0.17565   0.88308   0.45581   0.00000  Uiso   1.00
C614   C     0.19505   0.92760   0.02959   0.00000  Uiso   1.00
C615   C     0.09589   0.75967   0.47132   0.00000  Uiso   1.00
C616   C     0.21941   0.97081   0.06216   0.00000  Uiso   1.00
C617   C     0.22314   0.69413   0.05173   0.00000  Uiso   1.00
C618   C     0.24499   0.72761   0.09203   0.00000  Uiso   1.00
C619   C     0.05960   0.72470   0.44008   0.00000  Uiso   1.00
C620   C     0.02240   0.75617   0.41199   0.00000  Uiso   1.00
C621   C     0.02324   0.73564   0.36193   0.00000  Uiso   1.00
C622   C     0.19052   0.97929   0.45700   0.00000  Uiso   1.00
C623   C     0.18946   0.92972   0.48175   0.00000  Uiso   1.00
C624   C     0.24448   0.98763   0.42767   0.00000  Uiso   1.00
C625   C     0.23305   0.67757   0.38301   0.00000  Uiso   1.00
C626   C     0.04684   0.72478   0.04209   0.00000  Uiso   1.00
C627   C     0.05840   0.99976   0.03296   0.00000  Uiso   1.00
C628   C     0.06525   0.97203   0.07569   0.00000  Uiso   1.00
C629   C     0.00560   0.78359   0.20189   0.00000  Uiso   1.00
C630   C     0.31503   0.72913   0.20761   0.00000  Uiso   1.00
C631   C     0.01844   0.68842   0.18278   0.00000  Uiso   1.00
C632   C     0.32829   0.88578   0.29671   0.00000  Uiso   1.00
C633   C     0.00488   0.87170   0.34513   0.00000  Uiso   1.00
C634   C     0.09028   0.76041   0.01952   0.00000  Uiso   1.00
C635   C     0.04155   0.91163   0.37112   0.00000  Uiso   1.00
C636   C     0.18884   0.98533   0.25013   0.00000  Uiso   1.00
C637   C     0.14487   0.68174   0.25608   0.00000  Uiso   1.00
C638   C     0.16743   0.83296   0.33604   0.00000  Uiso   1.00
C639   C     0.16540   0.83116   0.16361   0.00000  Uiso   1.00
C640   C     0.12795   0.79580   0.09224   0.00000  Uiso   1.00
H641   H     0.10986   0.76453   0.11081   0.00000  Uiso   1.00
H642   H     0.25188   0.69934   0.02179   0.00000  Uiso   1.00
H643   H     0.18096   0.70752   0.04675   0.00000  Uiso   1.00
H644   H     0.19282   0.97182   0.09425   0.00000  Uiso   1.00
H645   H     0.26168   0.95906   0.06972   0.00000  Uiso   1.00
H646   H     0.06145   0.74919   0.34309   0.00000  Uiso   1.00
H647   H     0.02235   0.69304   0.35836   0.00000  Uiso   1.00
H648   H     0.32005   0.74952   0.34563   0.00000  Uiso   1.00
H649   H     0.31238   0.75532   0.42693   0.00000  Uiso   1.00
H650   H     0.03497   0.79772   0.41366   0.00000  Uiso   1.00
H651   H     0.08693   0.69880   0.41781   0.00000  Uiso   1.00
H652   H     0.19355   0.91119   0.38857   0.00000  Uiso   1.00
H653   H     0.03176   0.69784   0.45805   0.00000  Uiso   1.00
H654   H     0.23195   0.72022   0.38831   0.00000  Uiso   1.00
H655   H     0.26592   0.99990   0.35658   0.00000  Uiso   1.00
H656   H     0.19304   0.99650   0.36916   0.00000  Uiso   1.00
H657   H     0.27330   0.68001   0.44708   0.00000  Uiso   1.00
H658   H     0.26635   0.95083   0.42001   0.00000  Uiso   1.00
H659   H     0.15396   0.97616   0.43565   0.00000  Uiso   1.00
H660   H     0.18079   0.68132   0.47780   0.00000  Uiso   1.00
H661   H     0.02446   0.96841   0.09483   0.00000  Uiso   1.00
H662   H     0.09646   0.99277   0.09708   0.00000  Uiso   1.00
H663   H     0.21437   0.89839   0.11477   0.00000  Uiso   1.00
H664   H     0.07930   0.93227   0.06611   0.00000  Uiso   1.00
H665   H     0.02297   0.98000   0.01554   0.00000  Uiso   1.00
H666   H     0.09599   0.99380   0.01021   0.00000  Uiso   1.00
H667   H     0.03933   0.73519   0.07868   0.00000  Uiso   1.00
H668   H     0.00641   0.73267   0.02839   0.00000  Uiso   1.00
H669   H     0.02935   0.70009   0.14825   0.00000  Uiso   1.00
H670   H     0.05744   0.68532   0.20014   0.00000  Uiso   1.00
H671   H     0.32943   0.98359   0.18109   0.00000  Uiso   1.00
H672   H     0.31080   0.72170   0.24424   0.00000  Uiso   1.00
H673   H     0.27396   0.72538   0.19241   0.00000  Uiso   1.00
H674   H     0.13798   0.75656   0.38396   0.00000  Uiso   1.00
H675   H     0.32782   0.79633   0.16862   0.00000  Uiso   1.00
H676   H     0.05030   0.78189   0.20106   0.00000  Uiso   1.00
H677   H     0.07944   0.92257   0.35032   0.00000  Uiso   1.00
H678   H     0.01789   0.94677   0.38097   0.00000  Uiso   1.00
H679   H     0.05431   0.89576   0.40263   0.00000  Uiso   1.00
H680   H     0.29778   0.86802   0.36509   0.00000  Uiso   1.00
H681   H     0.02345   0.83359   0.34389   0.00000  Uiso   1.00
H682   H     0.01463   0.92393   0.28979   0.00000  Uiso   1.00
H683   H     0.28403   0.89033   0.29610   0.00000  Uiso   1.00
H684   H     0.23091   0.66716   0.24443   0.00000  Uiso   1.00
H685   H     0.10292   0.99969   0.26326   0.00000  Uiso   1.00
H686   H     0.21354   0.72868   0.12115   0.00000  Uiso   1.00
H687   H     0.28357   0.71177   0.10323   0.00000  Uiso   1.00
H688   H     0.25404   0.76756   0.08219   0.00000  Uiso   1.00
N689   N     0.31678   0.81932   0.23783   0.00000  Uiso   1.00
N690   N     0.01656   0.84735   0.26217   0.00000  Uiso   1.00
O691   O     0.12975   0.91286   0.25298   0.00000  Uiso   1.00
O692   O     0.20358   0.75381   0.24701   0.00000  Uiso   1.00
O693   O     0.22613   0.90387   0.24518   0.00000  Uiso   1.00
O694   O     0.10720   0.76279   0.25481   0.00000  Uiso   1.00
O695   O     0.11847   0.83784   0.31997   0.00000  Uiso   1.00
O696   O     0.21486   0.82883   0.18002   0.00000  Uiso   1.00
O697   O     0.21485   0.82885   0.31217   0.00000  Uiso   1.00
O698   O     0.11848   0.83781   0.18782   0.00000  Uiso   1.00
Zn699  Zn    0.10231   0.83933   0.25521   0.00000  Uiso   1.00
Zn700  Zn    0.23102   0.82734   0.24479   0.00000  Uiso   1.00
C701   C     0.51450   0.93109   0.24975   0.00000  Uiso   1.00
C702   C     0.51403   0.87935   0.40821   0.00000  Uiso   1.00
C703   C     0.49539   0.83182   0.11546   0.00000  Uiso   1.00
C704   C     0.50201   0.83345   0.38394   0.00000  Uiso   1.00
C705   C     0.52146   0.87246   0.09441   0.00000  Uiso   1.00
C706   C     0.48033   0.79131   0.40493   0.00000  Uiso   1.00
C707   C     0.51199   0.88020   0.04925   0.00000  Uiso   1.00
C708   C     0.46651   0.79566   0.45137   0.00000  Uiso   1.00
C709   C     0.48380   0.83975   0.02407   0.00000  Uiso   1.00
C710   C     0.48647   0.83958   0.47727   0.00000  Uiso   1.00
C711   C     0.45582   0.79805   0.04552   0.00000  Uiso   1.00
C712   C     0.48559   0.73568   0.25227   0.00000  Uiso   1.00
C713   C     0.50898   0.88308   0.45581   0.00000  Uiso   1.00
C714   C     0.52838   0.92760   0.02959   0.00000  Uiso   1.00
C715   C     0.42922   0.75967   0.47132   0.00000  Uiso   1.00
C716   C     0.55275   0.97081   0.06216   0.00000  Uiso   1.00
C717   C     0.55647   0.69413   0.05173   0.00000  Uiso   1.00
C718   C     0.57832   0.72761   0.09203   0.00000  Uiso   1.00
C719   C     0.39293   0.72470   0.44008   0.00000  Uiso   1.00
C720   C     0.35573   0.75617   0.41199   0.00000  Uiso   1.00
C721   C     0.35658   0.73564   0.36193   0.00000  Uiso   1.00
C722   C     0.52385   0.97929   0.45700   0.00000  Uiso   1.00
C723   C     0.52279   0.92972   0.48175   0.00000  Uiso   1.00
C724   C     0.57782   0.98763   0.42767   0.00000  Uiso   1.00
C725   C     0.56638   0.67757   0.38301   0.00000  Uiso   1.00
C726   C     0.38018   0.72478   0.04209   0.00000  Uiso   1.00
C727   C     0.39173   0.99976   0.03296   0.00000  Uiso   1.00
C728   C     0.39859   0.97203   0.07569   0.00000  Uiso   1.00
C729   C     0.33893   0.78359   0.20189   0.00000  Uiso   1.00
C730   C     0.64836   0.72913   0.20761   0.00000  Uiso   1.00
C731   C     0.35177   0.68842   0.18278   0.00000  Uiso   1.00
C732   C     0.66163   0.88578   0.29671   0.00000  Uiso   1.00
C733   C     0.33822   0.87170   0.34513   0.00000  Uiso   1.00
C734   C     0.42362   0.76041   0.01952   0.00000  Uiso   1.00
C735   C     0.37488   0.91163   0.37112   0.00000  Uiso   1.00
C736   C     0.52217   0.98533   0.25013   0.00000  Uiso   1.00
C737   C     0.47820   0.68174   0.25608   0.00000  Uiso   1.00
C738   C     0.50077   0.83296   0.33604   0.00000  Uiso   1.00
C739   C     0.49873   0.83116   0.16361   0.00000  Uiso   1.00
C740   C     0.46129   0.79580   0.09224   0.00000  Uiso   1.00
H741   H     0.44319   0.76453   0.11081   0.00000  Uiso   1.00
H742   H     0.58521   0.69934   0.02179   0.00000  Uiso   1.00
H743   H     0.51429   0.70752   0.04675   0.00000  Uiso   1.00
H744   H     0.52615   0.97182   0.09425   0.00000  Uiso   1.00
H745   H     0.59502   0.95906   0.06972   0.00000  Uiso   1.00
H746   H     0.39479   0.74919   0.34309   0.00000  Uiso   1.00
H747   H     0.35568   0.69304   0.35836   0.00000  Uiso   1.00
H748   H     0.65339   0.74952   0.34563   0.00000  Uiso   1.00
H749   H     0.64571   0.75532   0.42693   0.00000  Uiso   1.00
H750   H     0.36830   0.79772   0.41366   0.00000  Uiso   1.00
H751   H     0.42027   0.69880   0.41781   0.00000  Uiso   1.00
H752   H     0.52688   0.91119   0.38857   0.00000  Uiso   1.00
H753   H     0.36509   0.69784   0.45805   0.00000  Uiso   1.00
H754   H     0.56528   0.72022   0.38831   0.00000  Uiso   1.00
H755   H     0.59925   0.99990   0.35658   0.00000  Uiso   1.00
H756   H     0.52638   0.99650   0.36916   0.00000  Uiso   1.00
H757   H     0.60663   0.68001   0.44708   0.00000  Uiso   1.00
H758   H     0.59968   0.95083   0.42001   0.00000  Uiso   1.00
H759   H     0.48729   0.97616   0.43565   0.00000  Uiso   1.00
H760   H     0.51413   0.68132   0.47780   0.00000  Uiso   1.00
H761   H     0.35779   0.96841   0.09483   0.00000  Uiso   1.00
H762   H     0.42980   0.99277   0.09708   0.00000  Uiso   1.00
H763   H     0.54771   0.89839   0.11477   0.00000  Uiso   1.00
H764   H     0.41263   0.93227   0.06611   0.00000  Uiso   1.00
H765   H     0.35630   0.98000   0.01554   0.00000  Uiso   1.00
H766   H     0.42932   0.99380   0.01021   0.00000  Uiso   1.00
H767   H     0.37266   0.73519   0.07868   0.00000  Uiso   1.00
H768   H     0.33975   0.73267   0.02839   0.00000  Uiso   1.00
H769   H     0.36268   0.70009   0.14825   0.00000  Uiso   1.00
H770   H     0.39078   0.68532   0.20014   0.00000  Uiso   1.00
H771   H     0.66276   0.98359   0.18109   0.00000  Uiso   1.00
H772   H     0.64413   0.72170   0.24424   0.00000  Uiso   1.00
H773   H     0.60729   0.72538   0.19241   0.00000  Uiso   1.00
H774   H     0.47132   0.75656   0.38396   0.00000  Uiso   1.00
H775   H     0.66116   0.79633   0.16862   0.00000  Uiso   1.00
H776   H     0.38363   0.78189   0.20106   0.00000  Uiso   1.00
H777   H     0.41278   0.92257   0.35032   0.00000  Uiso   1.00
H778   H     0.35122   0.94677   0.38097   0.00000  Uiso   1.00
H779   H     0.38765   0.89576   0.40263   0.00000  Uiso   1.00
H780   H     0.63111   0.86802   0.36509   0.00000  Uiso   1.00
H781   H     0.35678   0.83359   0.34389   0.00000  Uiso   1.00
H782   H     0.34796   0.92393   0.28979   0.00000  Uiso   1.00
H783   H     0.61736   0.89033   0.29610   0.00000  Uiso   1.00
H784   H     0.56424   0.66716   0.24443   0.00000  Uiso   1.00
H785   H     0.43626   0.99969   0.26326   0.00000  Uiso   1.00
H786   H     0.54687   0.72868   0.12115   0.00000  Uiso   1.00
H787   H     0.61690   0.71177   0.10323   0.00000  Uiso   1.00
H788   H     0.58737   0.76756   0.08219   0.00000  Uiso   1.00
N789   N     0.65011   0.81932   0.23783   0.00000  Uiso   1.00
N790   N     0.34989   0.84735   0.26217   0.00000  Uiso   1.00
O791   O     0.46308   0.91286   0.25298   0.00000  Uiso   1.00
O792   O     0.53692   0.75381   0.24701   0.00000  Uiso   1.00
O793   O     0.55946   0.90387   0.24518   0.00000  Uiso   1.00
O794   O     0.44054   0.76279   0.25481   0.00000  Uiso   1.00
O795   O     0.45181   0.83784   0.31997   0.00000  Uiso   1.00
O796   O     0.54819   0.82883   0.18002   0.00000  Uiso   1.00
O797   O     0.54819   0.82885   0.31217   0.00000  Uiso   1.00
O798   O     0.45181   0.83781   0.18782   0.00000  Uiso   1.00
Zn799  Zn    0.43565   0.83933   0.25521   0.00000  Uiso   1.00
Zn800  Zn    0.56435   0.82734   0.24479   0.00000  Uiso   1.00
C801   C     0.84783   0.93109   0.24975   0.00000  Uiso   1.00
C802   C     0.84737   0.87935   0.40821   0.00000  Uiso   1.00
C803   C     0.82872   0.83182   0.11546   0.00000  Uiso   1.00
C804   C     0.83534   0.83345   0.38394   0.00000  Uiso   1.00
C805   C     0.85480   0.87246   0.09441   0.00000  Uiso   1.00
C806   C     0.81366   0.79131   0.40493   0.00000  Uiso   1.00
C807   C     0.84532   0.88020   0.04925   0.00000  Uiso   1.00
C808   C     0.79985   0.79566   0.45137   0.00000  Uiso   1.00
C809   C     0.81714   0.83975   0.02407   0.00000  Uiso   1.00
C810   C     0.81981   0.83958   0.47727   0.00000  Uiso   1.00
C811   C     0.78915   0.79805   0.04552   0.00000  Uiso   1.00
C812   C     0.81892   0.73568   0.25227   0.00000  Uiso   1.00
C813   C     0.84232   0.88308   0.45581   0.00000  Uiso   1.00
C814   C     0.86172   0.92760   0.02959   0.00000  Uiso   1.00
C815   C     0.76256   0.75967   0.47132   0.00000  Uiso   1.00
C816   C     0.88608   0.97081   0.06216   0.00000  Uiso   1.00
C817   C     0.88981   0.69413   0.05173   0.00000  Uiso   1.00
C818   C     0.91165   0.72761   0.09203   0.00000  Uiso   1.00
C819   C     0.72626   0.72470   0.44008   0.00000  Uiso   1.00
C820   C     0.68907   0.75617   0.41199   0.00000  Uiso   1.00
C821   C     0.68991   0.73564   0.36193   0.00000  Uiso   1.00
C822   C     0.85718   0.97929   0.45700   0.00000  Uiso   1.00
C823   C     0.85612   0.92972   0.48175   0.00000  Uiso   1.00
C824   C     0.91115   0.98763   0.42767   0.00000  Uiso   1.00
C825   C     0.89972   0.67757   0.38301   0.00000  Uiso   1.00
C826   C     0.71351   0.72478   0.04209   0.00000  Uiso   1.00
C827   C     0.72506   0.99976   0.03296   0.00000  Uiso   1.00
C828   C     0.73192   0.97203   0.07569   0.00000  Uiso   1.00
C829   C     0.67227   0.78359   0.20189   0.00000  Uiso   1.00
C830   C     0.98169   0.72913   0.20761   0.00000  Uiso   1.00
C831   C     0.68510   0.68842   0.18278   0.00000  Uiso   1.00
C832   C     0.99496   0.88578   0.29671   0.00000  Uiso   1.00
C833   C     0.67155   0.87170   0.34513   0.00000  Uiso   1.00
C834   C     0.75695   0.76041   0.01952   0.00000  Uiso   1.00
C835   C     0.70822   0.91163   0.37112   0.00000  Uiso   1.00
C836   C     0.85550   0.98533   0.25013   0.00000  Uiso   1.00
C837   C     0.81153   0.68174   0.25608   0.00000  Uiso   1.00
C838   C     0.83410   0.83296   0.33604   0.00000  Uiso   1.00
C839   C     0.83206   0.83116   0.16361   0.00000  Uiso   1.00
C840   C     0.79462   0.79580   0.09224   0.00000  Uiso   1.00
H841   H     0.77652   0.76453   0.11081   0.00000  Uiso   1.00
H842   H     0.91854   0.69934   0.02179   0.00000  Uiso   1.00
H843   H     0.84762   0.70752   0.04675   0.00000  Uiso   1.00
H844   H     0.85948   0.97182   0.09425   0.00000  Uiso   1.00
H845   H     0.92835   0.95906   0.06972   0.00000  Uiso   1.00
H846   H     0.72812   0.74919   0.34309   0.00000  Uiso   1.00
H847   H     0.68902   0.69304   0.35836   0.00000  Uiso   1.00
H848   H     0.98672   0.74952   0.34563   0.00000  Uiso   1.00
H849   H     0.97904   0.75532   0.42693   0.00000  Uiso   1.00
H850   H     0.70164   0.79772   0.41366   0.00000  Uiso   1.00
H851   H     0.75360   0.69880   0.41781   0.00000  Uiso   1.00
H852   H     0.86022   0.91119   0.38857   0.00000  Uiso   1.00
H853   H     0.69842   0.69784   0.45805   0.00000  Uiso   1.00
H854   H     0.89862   0.72022   0.38831   0.00000  Uiso   1.00
H855   H     0.93258   0.99990   0.35658   0.00000  Uiso   1.00
H856   H     0.85971   0.99650   0.36916   0.00000  Uiso   1.00
H857   H     0.93997   0.68001   0.44708   0.00000  Uiso   1.00
H858   H     0.93302   0.95083   0.42001   0.00000  Uiso   1.00
H859   H     0.82063   0.97616   0.43565   0.00000  Uiso   1.00
H860   H     0.84746   0.68132   0.47780   0.00000  Uiso   1.00
H861   H     0.69113   0.96841   0.09483   0.00000  Uiso   1.00
H862   H     0.76313   0.99277   0.09708   0.00000  Uiso   1.00
H863   H     0.88104   0.89839   0.11477   0.00000  Uiso   1.00
H864   H     0.74597   0.93227   0.06611   0.00000  Uiso   1.00
H865   H     0.68963   0.98000   0.01554   0.00000  Uiso   1.00
H866   H     0.76265   0.99380   0.01021   0.00000  Uiso   1.00
H867   H     0.70600   0.73519   0.07868   0.00000  Uiso   1.00
H868   H     0.67308   0.73267   0.02839   0.00000  Uiso   1.00
H869   H     0.69602   0.70009   0.14825   0.00000  Uiso   1.00
H870   H     0.72411   0.68532   0.20014   0.00000  Uiso   1.00
H871   H     0.99610   0.98359   0.18109   0.00000  Uiso   1.00
H872   H     0.97746   0.72170   0.24424   0.00000  Uiso   1.00
H873   H     0.94062   0.72538   0.19241   0.00000  Uiso   1.00
H874   H     0.80465   0.75656   0.38396   0.00000  Uiso   1.00
H875   H     0.99449   0.79633   0.16862   0.00000  Uiso   1.00
H876   H     0.71696   0.78189   0.20106   0.00000  Uiso   1.00
H877   H     0.74611   0.92257   0.35032   0.00000  Uiso   1.00
H878   H     0.68455   0.94677   0.38097   0.00000  Uiso   1.00
H879   H     0.72098   0.89576   0.40263   0.00000  Uiso   1.00
H880   H     0.96444   0.86802   0.36509   0.00000  Uiso   1.00
H881   H     0.69011   0.83359   0.34389   0.00000  Uiso   1.00
H882   H     0.68130   0.92393   0.28979   0.00000  Uiso   1.00
H883   H     0.95070   0.89033   0.29610   0.00000  Uiso   1.00
H884   H     0.89758   0.66716   0.24443   0.00000  Uiso   1.00
H885   H     0.76959   0.99969   0.26326   0.00000  Uiso   1.00
H886   H     0.88021   0.72868   0.12115   0.00000  Uiso   1.00
H887   H     0.95024   0.71177   0.10323   0.00000  Uiso   1.00
H888   H     0.92070   0.76756   0.08219   0.00000  Uiso   1.00
N889   N     0.98344   0.81932   0.23783   0.00000  Uiso   1.00
N890   N     0.68322   0.84735   0.26217   0.00000  Uiso   1.00
O891   O     0.79642   0.91286   0.25298   0.00000  Uiso   1.00
O892   O     0.87025   0.75381   0.24701   0.00000  Uiso   1.00
O893   O     0.89280   0.90387   0.24518   0.00000  Uiso   1.00
O894   O     0.77387   0.76279   0.25481   0.00000  Uiso   1.00
O895   O     0.78514   0.83784   0.31997   0.00000  Uiso   1.00
O896   O     0.88153   0.82883   0.18002   0.00000  Uiso   1.00
O897   O     0.88152   0.82885   0.31217   0.00000  Uiso   1.00
O898   O     0.78515   0.83781   0.18782   0.00000  Uiso   1.00
Zn899  Zn    0.76898   0.83933   0.25521   0.00000  Uiso   1.00
Zn900  Zn    0.89769   0.82734   0.24479   0.00000  Uiso   1.00
C901   C     0.18116   0.26443   0.74975   0.00000  Uiso   1.00
C902   C     0.18070   0.21268   0.90821   0.00000  Uiso   1.00
C903   C     0.16206   0.16515   0.61546   0.00000  Uiso   1.00
C904   C     0.16867   0.16678   0.88394   0.00000  Uiso   1.00
C905   C     0.18813   0.20579   0.59441   0.00000  Uiso   1.00
C906   C     0.14700   0.12464   0.90493   0.00000  Uiso   1.00
C907   C     0.17865   0.21353   0.54925   0.00000  Uiso   1.00
C908   C     0.13318   0.12900   0.95137   0.00000  Uiso   1.00
C909   C     0.15047   0.17308   0.52407   0.00000  Uiso   1.00
C910   C     0.15314   0.17291   0.97727   0.00000  Uiso   1.00
C911   C     0.12248   0.13138   0.54552   0.00000  Uiso   1.00
C912   C     0.15225   0.06901   0.75227   0.00000  Uiso   1.00
C913   C     0.17565   0.21641   0.95581   0.00000  Uiso   1.00
C914   C     0.19505   0.26093   0.52959   0.00000  Uiso   1.00
C915   C     0.09589   0.09300   0.97132   0.00000  Uiso   1.00
C916   C     0.21941   0.30414   0.56216   0.00000  Uiso   1.00
C917   C     0.22314   0.02746   0.55173   0.00000  Uiso   1.00
C918   C     0.24499   0.06094   0.59203   0.00000  Uiso   1.00
C919   C     0.05960   0.05804   0.94008   0.00000  Uiso   1.00
C920   C     0.02240   0.08950   0.91199   0.00000  Uiso   1.00
C921   C     0.02324   0.06897   0.86193   0.00000  Uiso   1.00
C922   C     0.19052   0.31262   0.95700   0.00000  Uiso   1.00
C923   C     0.18946   0.26305   0.98175   0.00000  Uiso   1.00
C924   C     0.24448   0.32096   0.92767   0.00000  Uiso   1.00
C925   C     0.23305   0.01091   0.88301   0.00000  Uiso   1.00
C926   C     0.04684   0.05811   0.54209   0.00000  Uiso   1.00
C927   C     0.05840   0.33309   0.53296   0.00000  Uiso   1.00
C928   C     0.06525   0.30537   0.57569   0.00000  Uiso   1.00
C929   C     0.00560   0.11692   0.70189   0.00000  Uiso   1.00
C930   C     0.31503   0.06246   0.70761   0.00000  Uiso   1.00
C931   C     0.01844   0.02175   0.68278   0.00000  Uiso   1.00
C932   C     0.32829   0.21912   0.79671   0.00000  Uiso   1.00
C933   C     0.00488   0.20503   0.84513   0.00000  Uiso   1.00
C934   C     0.09028   0.09374   0.51952   0.00000  Uiso   1.00
C935   C     0.04155   0.24497   0.87112   0.00000  Uiso   1.00
C936   C     0.18884   0.31866   0.75013   0.00000  Uiso   1.00
C937   C     0.14487   0.01507   0.75608   0.00000  Uiso   1.00
C938   C     0.16743   0.16629   0.83604   0.00000  Uiso   1.00
C939   C     0.16540   0.16449   0.66361   0.00000  Uiso   1.00
C940   C     0.12795   0.12913   0.59224   0.00000  Uiso   1.00
H941   H     0.10986   0.09787   0.61081   0.00000  Uiso   1.00
H942   H     0.25188   0.03267   0.52179   0.00000  Uiso   1.00
H943   H     0.18096   0.04085   0.54675   0.00000  Uiso   1.00
H944   H     0.19282   0.30515   0.59425   0.00000  Uiso   1.00
H945   H     0.26168   0.29240   0.56972   0.00000  Uiso   1.00
H946   H     0.06145   0.08252   0.84309   0.00000  Uiso   1.00
H947   H     0.02235   0.02638   0.85836   0.00000  Uiso   1.00
H948   H     0.32005   0.08286   0.84563   0.00000  Uiso   1.00
H949   H     0.31238   0.08865   0.92693   0.00000  Uiso   1.00
H950   H     0.03497   0.13105   0.91366   0.00000  Uiso   1.00
H951   H     0.08693   0.03213   0.91781   0.00000  Uiso   1.00
H952   H     0.19355   0.24452   0.88857   0.00000  Uiso   1.00
H953   H     0.03176   0.03117   0.95805   0.00000  Uiso   1.00
H954   H     0.23195   0.05355   0.88831   0.00000  Uiso   1.00
H955   H     0.26592   0.33323   0.85658   0.00000  Uiso   1.00
H956   H     0.19304   0.32984   0.86916   0.00000  Uiso   1.00
H957   H     0.27330   0.01334   0.94708   0.00000  Uiso   1.00
H958   H     0.26635   0.28416   0.92001   0.00000  Uiso   1.00
H959   H     0.15396   0.30950   0.93565   0.00000  Uiso   1.00
H960   H     0.18079   0.01465   0.97780   0.00000  Uiso   1.00
H961   H     0.02446   0.30175   0.59483   0.00000  Uiso   1.00
H962   H     0.09646   0.32610   0.59708   0.00000  Uiso   1.00
H963   H     0.21437   0.23173   0.61477   0.00000  Uiso   1.00
H964   H     0.07930   0.26561   0.56611   0.00000  Uiso   1.00
H965   H     0.02297   0.31333   0.51554   0.00000  Uiso   1.00
H966   H     0.09599   0.32714   0.51021   0.00000  Uiso   1.00
H967   H     0.03933   0.06852   0.57868   0.00000  Uiso   1.00
H968   H     0.00641   0.06601   0.52839   0.00000  Uiso   1.00
H969   H     0.02935   0.03342   0.64825   0.00000  Uiso   1.00
H970   H     0.05744   0.01866   0.70014   0.00000  Uiso   1.00
H971   H     0.32943   0.31692   0.68109   0.00000  Uiso   1.00
H972   H     0.31080   0.05504   0.74424   0.00000  Uiso   1.00
H973   H     0.27396   0.05872   0.69241   0.00000  Uiso   1.00
H974   H     0.13798   0.08990   0.88396   0.00000  Uiso   1.00
H975   H     0.32782   0.12966   0.66862   0.00000  Uiso   1.00
H976   H     0.05030   0.11523   0.70106   0.00000  Uiso   1.00
H977   H     0.07944   0.25591   0.85032   0.00000  Uiso   1.00
H978   H     0.01789   0.28011   0.88097   0.00000  Uiso   1.00
H979   H     0.05431   0.22909   0.90263   0.00000  Uiso   1.00
H980   H     0.29778   0.20135   0.86509   0.00000  Uiso   1.00
H981   H     0.02345   0.16693   0.84389   0.00000  Uiso   1.00
H982   H     0.01463   0.25726   0.78979   0.00000  Uiso   1.00
H983   H     0.28403   0.22367   0.79610   0.00000  Uiso   1.00
H984   H     0.23091   0.00049   0.74443   0.00000  Uiso   1.00
H985   H     0.10292   0.33302   0.76326   0.00000  Uiso   1.00
H986   H     0.21354   0.06202   0.62115   0.00000  Uiso   1.00
H987   H     0.28357   0.04510   0.60323   0.00000  Uiso   1.00
H988   H     0.25404   0.10089   0.58219   0.00000  Uiso   1.00
N989   N     0.31678   0.15265   0.73783   0.00000  Uiso   1.00
N990   N     0.01656   0.18068   0.76217   0.00000  Uiso   1.00
O991   O     0.12975   0.24619   0.75298   0.00000  Uiso   1.00
O992   O     0.20358   0.08714   0.74701   0.00000  Uiso   1.00
O993   O     0.22613   0.23721   0.74518   0.00000  Uiso   1.00
O994   O     0.10720   0.09613   0.75481   0.00000  Uiso   1.00
O995   O     0.11847   0.17117   0.81997   0.00000  Uiso   1.00
O996   O     0.21486   0.16216   0.68002   0.00000  Uiso   1.00
O997   O     0.21485   0.16219   0.81217   0.00000  Uiso   1.00
O998   O     0.11848   0.17115   0.68782   0.00000  Uiso   1.00
Zn999  Zn    0.10231   0.17266   0.75521   0.00000  Uiso   1.00
Zn1000 Zn    0.23102   0.16067   0.74479   0.00000  Uiso   1.00
C1001  C     0.51450   0.26443   0.74975   0.00000  Uiso   1.00
C1002  C     0.51403   0.21268   0.90821   0.00000  Uiso   1.00
C1003  C     0.49539   0.16515   0.61546   0.00000  Uiso   1.00
C1004  C     0.50201   0.16678   0.88394   0.00000  Uiso   1.00
C1005  C     0.52146   0.20579   0.59441   0.00000  Uiso   1.00
C1006  C     0.48033   0.12464   0.90493   0.00000  Uiso   1.00
C1007  C     0.51199   0.21353   0.54925   0.00000  Uiso   1.00
C1008  C     0.46651   0.12900   0.95137   0.00000  Uiso   1.00
C1009  C     0.48380   0.17308   0.52407   0.00000  Uiso   1.00
C1010  C     0.48647   0.17291   0.97727   0.00000  Uiso   1.00
C1011  C     0.45582   0.13138   0.54552   0.00000  Uiso   1.00
C1012  C     0.48559   0.06901   0.75227   0.00000  Uiso   1.00
C1013  C     0.50898   0.21641   0.95581   0.00000  Uiso   1.00
C1014  C     0.52838   0.26093   0.52959   0.00000  Uiso   1.00
C1015  C     0.42922   0.09300   0.97132   0.00000  Uiso   1.00
C1016  C     0.55275   0.30414   0.56216   0.00000  Uiso   1.00
C1017  C     0.55647   0.02746   0.55173   0.00000  Uiso   1.00
C1018  C     0.57832   0.06094   0.59203   0.00000  Uiso   1.00
C1019  C     0.39293   0.05804   0.94008   0.00000  Uiso   1.00
C1020  C     0.35573   0.08950   0.91199   0.00000  Uiso   1.00
C1021  C     0.35658   0.06897   0.86193   0.00000  Uiso   1.00
C1022  C     0.52385   0.31262   0.95700   0.00000  Uiso   1.00
C1023  C     0.52279   0.26305   0.98175   0.00000  Uiso   1.00
C1024  C     0.57782   0.32096   0.92767   0.00000  Uiso   1.00
C1025  C     0.56638   0.01091   0.88301   0.00000  Uiso   1.00
C1026  C     0.38018   0.05811   0.54209   0.00000  Uiso   1.00
C1027  C     0.39173   0.33309   0.53296   0.00000  Uiso   1.00
C1028  C     0.39859   0.30537   0.57569   0.00000  Uiso   1.00
C1029  C     0.33893   0.11692   0.70189   0.00000  Uiso   1.00
C1030  C     0.64836   0.06246   0.70761   0.00000  Uiso   1.00
C1031  C     0.35177   0.02175   0.68278   0.00000  Uiso   1.00
C1032  C     0.66163   0.21912   0.79671   0.00000  Uiso   1.00
C1033  C     0.33822   0.20503   0.84513   0.00000  Uiso   1.00
C1034  C     0.42362   0.09374   0.51952   0.00000  Uiso   1.00
C1035  C     0.37488   0.24497   0.87112   0.00000  Uiso   1.00
C1036  C     0.52217   0.31866   0.75013   0.00000  Uiso   1.00
C1037  C     0.47820   0.01507   0.75608   0.00000  Uiso   1.00
C1038  C     0.50077   0.16629   0.83604   0.00000  Uiso   1.00
C1039  C     0.49873   0.16449   0.66361   0.00000  Uiso   1.00
C1040  C     0.46129   0.12913   0.59224   0.00000  Uiso   1.00
H1041  H     0.44319   0.09787   0.61081   0.00000  Uiso   1.00
H1042  H     0.58521   0.03267   0.52179   0.00000  Uiso   1.00
H1043  H     0.51429   0.04085   0.54675   0.00000  Uiso   1.00
H1044  H     0.52615   0.30515   0.59425   0.00000  Uiso   1.00
H1045  H     0.59502   0.29240   0.56972   0.00000  Uiso   1.00
H1046  H     0.39479   0.08252   0.84309   0.00000  Uiso   1.00
H1047  H     0.35568   0.02638   0.85836   0.00000  Uiso   1.00
H1048  H     0.65339   0.08286   0.84563   0.00000  Uiso   1.00
H1049  H     0.64571   0.08865   0.92693   0.00000  Uiso   1.00
H1050  H     0.36830   0.13105   0.91366   0.00000  Uiso   1.00
H1051  H     0.42027   0.03213   0.91781   0.00000  Uiso   1.00
H1052  H     0.52688   0.24452   0.88857   0.00000  Uiso   1.00
H1053  H     0.36509   0.03117   0.95805   0.00000  Uiso   1.00
H1054  H     0.56528   0.05355   0.88831   0.00000  Uiso   1.00
H1055  H     0.59925   0.33323   0.85658   0.00000  Uiso   1.00
H1056  H     0.52638   0.32984   0.86916   0.00000  Uiso   1.00
H1057  H     0.60663   0.01334   0.94708   0.00000  Uiso   1.00
H1058  H     0.59968   0.28416   0.92001   0.00000  Uiso   1.00
H1059  H     0.48729   0.30950   0.93565   0.00000  Uiso   1.00
H1060  H     0.51413   0.01465   0.97780   0.00000  Uiso   1.00
H1061  H     0.35779   0.30175   0.59483   0.00000  Uiso   1.00
H1062  H     0.42980   0.32610   0.59708   0.00000  Uiso   1.00
H1063  H     0.54771   0.23173   0.61477   0.00000  Uiso   1.00
H1064  H     0.41263   0.26561   0.56611   0.00000  Uiso   1.00
H1065  H     0.35630   0.31333   0.51554   0.00000  Uiso   1.00
H1066  H     0.42932   0.32714   0.51021   0.00000  Uiso   1.00
H1067  H     0.37266   0.06852   0.57868   0.00000  Uiso   1.00
H1068  H     0.33975   0.06601   0.52839   0.00000  Uiso   1.00
H1069  H     0.36268   0.03342   0.64825   0.00000  Uiso   1.00
H1070  H     0.39078   0.01866   0.70014   0.00000  Uiso   1.00
H1071  H     0.66276   0.31692   0.68109   0.00000  Uiso   1.00
H1072  H     0.64413   0.05504   0.74424   0.00000  Uiso   1.00
H1073  H     0.60729   0.05872   0.69241   0.00000  Uiso   1.00
H1074  H     0.47132   0.08990   0.88396   0.00000  Uiso   1.00
H1075  H     0.66116   0.12966   0.66862   0.00000  Uiso   1.00
H1076  H     0.38363   0.11523   0.70106   0.00000  Uiso   1.00
H1077  H     0.41278   0.25591   0.85032   0.00000  Uiso   1.00
H1078  H     0.35122   0.28011   0.88097   0.00000  Uiso   1.00
H1079  H     0.38765   0.22909   0.90263   0.00000  Uiso   1.00
H1080  H     0.63111   0.20135   0.86509   0.00000  Uiso   1.00
H1081  H     0.35678   0.16693   0.84389   0.00000  Uiso   1.00
H1082  H     0.34796   0.25726   0.78979   0.00000  Uiso   1.00
H1083  H     0.61736   0.22367   0.79610   0.00000  Uiso   1.00
H1084  H     0.56424   0.00049   0.74443   0.00000  Uiso   1.00
H1085  H     0.43626   0.33302   0.76326   0.00000  Uiso   1.00
H1086  H     0.54687   0.06202   0.62115   0.00000  Uiso   1.00
H1087  H     0.61690   0.04510   0.60323   0.00000  Uiso   1.00
H1088  H     0.58737   0.10089   0.58219   0.00000  Uiso   1.00
N1089  N     0.65011   0.15265   0.73783   0.00000  Uiso   1.00
N1090  N     0.34989   0.18068   0.76217   0.00000  Uiso   1.00
O1091  O     0.46308   0.24619   0.75298   0.00000  Uiso   1.00
O1092  O     0.53692   0.08714   0.74701   0.00000  Uiso   1.00
O1093  O     0.55946   0.23721   0.74518   0.00000  Uiso   1.00
O1094  O     0.44054   0.09613   0.75481   0.00000  Uiso   1.00
O1095  O     0.45181   0.17117   0.81997   0.00000  Uiso   1.00
O1096  O     0.54819   0.16216   0.68002   0.00000  Uiso   1.00
O1097  O     0.54819   0.16219   0.81217   0.00000  Uiso   1.00
O1098  O     0.45181   0.17115   0.68782   0.00000  Uiso   1.00
Zn1099 Zn    0.43565   0.17266   0.75521   0.00000  Uiso   1.00
Zn1100 Zn    0.56435   0.16067   0.74479   0.00000  Uiso   1.00
C1101  C     0.84783   0.26443   0.74975   0.00000  Uiso   1.00
C1102  C     0.84737   0.21268   0.90821   0.00000  Uiso   1.00
C1103  C     0.82872   0.16515   0.61546   0.00000  Uiso   1.00
C1104  C     0.83534   0.16678   0.88394   0.00000  Uiso   1.00
C1105  C     0.85480   0.20579   0.59441   0.00000  Uiso   1.00
C1106  C     0.81366   0.12464   0.90493   0.00000  Uiso   1.00
C1107  C     0.84532   0.21353   0.54925   0.00000  Uiso   1.00
C1108  C     0.79985   0.12900   0.95137   0.00000  Uiso   1.00
C1109  C     0.81714   0.17308   0.52407   0.00000  Uiso   1.00
C1110  C     0.81981   0.17291   0.97727   0.00000  Uiso   1.00
C1111  C     0.78915   0.13138   0.54552   0.00000  Uiso   1.00
C1112  C     0.81892   0.06901   0.75227   0.00000  Uiso   1.00
C1113  C     0.84232   0.21641   0.95581   0.00000  Uiso   1.00
C1114  C     0.86172   0.26093   0.52959   0.00000  Uiso   1.00
C1115  C     0.76256   0.09300   0.97132   0.00000  Uiso   1.00
C1116  C     0.88608   0.30414   0.56216   0.00000  Uiso   1.00
C1117  C     0.88981   0.02746   0.55173   0.00000  Uiso   1.00
C1118  C     0.91165   0.06094   0.59203   0.00000  Uiso   1.00
C1119  C     0.72626   0.05804   0.94008   0.00000  Uiso   1.00
C1120  C     0.68907   0.08950   0.91199   0.00000  Uiso   1.00
C1121  C     0.68991   0.06897   0.86193   0.00000  Uiso   1.00
C1122  C     0.85718   0.31262   0.95700   0.00000  Uiso   1.00
C1123  C     0.85612   0.26305   0.98175   0.00000  Uiso   1.00
C1124  C     0.91115   0.32096   0.92767   0.00000  Uiso   1.00
C1125  C     0.89972   0.01091   0.88301   0.00000  Uiso   1.00
C1126  C     0.71351   0.05811   0.54209   0.00000  Uiso   1.00
C1127  C     0.72506   0.33309   0.53296   0.00000  Uiso   1.00
C1128  C     0.73192   0.30537   0.57569   0.00000  Uiso   1.00
C1129  C     0.67227   0.11692   0.70189   0.00000  Uiso   1.00
C1130  C     0.98169   0.06246   0.70761   0.00000  Uiso   1.00
C1131  C     0.68510   0.02175   0.68278   0.00000  Uiso   1.00
C1132  C     0.99496   0.21912   0.79671   0.00000  Uiso   1.00
C1133  C     0.67155   0.20503   0.84513   0.00000  Uiso   1.00
C1134  C     0.75695   0.09374   0.51952   0.00000  Uiso   1.00
C1135  C     0.70822   0.24497   0.87112   0.00000  Uiso   1.00
C1136  C     0.85550   0.31866   0.75013   0.00000  Uiso   1.00
C1137  C     0.81153   0.01507   0.75608   0.00000  Uiso   1.00
C1138  C     0.83410   0.16629   0.83604   0.00000  Uiso   1.00
C1139  C     0.83206   0.16449   0.66361   0.00000  Uiso   1.00
C1140  C     0.79462   0.12913   0.59224   0.00000  Uiso   1.00
H1141  H     0.77652   0.09787   0.61081   0.00000  Uiso   1.00
H1142  H     0.91854   0.03267   0.52179   0.00000  Uiso   1.00
H1143  H     0.84762   0.04085   0.54675   0.00000  Uiso   1.00
H1144  H     0.85948   0.30515   0.59425   0.00000  Uiso   1.00
H1145  H     0.92835   0.29240   0.56972   0.00000  Uiso   1.00
H1146  H     0.72812   0.08252   0.84309   0.00000  Uiso   1.00
H1147  H     0.68902   0.02638   0.85836   0.00000  Uiso   1.00
H1148  H     0.98672   0.08286   0.84563   0.00000  Uiso   1.00
H1149  H     0.97904   0.08865   0.92693   0.00000  Uiso   1.00
H1150  H     0.70164   0.13105   0.91366   0.00000  Uiso   1.00
H1151  H     0.75360   0.03213   0.91781   0.00000  Uiso   1.00
H1152  H     0.86022   0.24452   0.88857   0.00000  Uiso   1.00
H1153  H     0.69842   0.03117   0.95805   0.00000  Uiso   1.00
H1154  H     0.89862   0.05355   0.88831   0.00000  Uiso   1.00
H1155  H     0.93258   0.33323   0.85658   0.00000  Uiso   1.00
H1156  H     0.85971   0.32984   0.86916   0.00000  Uiso   1.00
H1157  H     0.93997   0.01334   0.94708   0.00000  Uiso   1.00
H1158  H     0.93302   0.28416   0.92001   0.00000  Uiso   1.00
H1159  H     0.82063   0.30950   0.93565   0.00000  Uiso   1.00
H1160  H     0.84746   0.01465   0.97780   0.00000  Uiso   1.00
H1161  H     0.69113   0.30175   0.59483   0.00000  Uiso   1.00
H1162  H     0.76313   0.32610   0.59708   0.00000  Uiso   1.00
H1163  H     0.88104   0.23173   0.61477   0.00000  Uiso   1.00
H1164  H     0.74597   0.26561   0.56611   0.00000  Uiso   1.00
H1165  H     0.68963   0.31333   0.51554   0.00000  Uiso   1.00
H1166  H     0.76265   0.32714   0.51021   0.00000  Uiso   1.00
H1167  H     0.70600   0.06852   0.57868   0.00000  Uiso   1.00
H1168  H     0.67308   0.06601   0.52839   0.00000  Uiso   1.00
H1169  H     0.69602   0.03342   0.64825   0.00000  Uiso   1.00
H1170  H     0.72411   0.01866   0.70014   0.00000  Uiso   1.00
H1171  H     0.99610   0.31692   0.68109   0.00000  Uiso   1.00
H1172  H     0.97746   0.05504   0.74424   0.00000  Uiso   1.00
H1173  H     0.94062   0.05872   0.69241   0.00000  Uiso   1.00
H1174  H     0.80465   0.08990   0.88396   0.00000  Uiso   1.00
H1175  H     0.99449   0.12966   0.66862   0.00000  Uiso   1.00
H1176  H     0.71696   0.11523   0.70106   0.00000  Uiso   1.00
H1177  H     0.74611   0.25591   0.85032   0.00000  Uiso   1.00
H1178  H     0.68455   0.28011   0.88097   0.00000  Uiso   1.00
H1179  H     0.72098   0.22909   0.90263   0.00000  Uiso   1.00
H1180  H     0.96444   0.20135   0.86509   0.00000  Uiso   1.00
H1181  H     0.69011   0.16693   0.84389   0.00000  Uiso   1.00
H1182  H     0.68130   0.25726   0.78979   0.00000  Uiso   1.00
H1183  H     0.95070   0.22367   0.79610   0.00000  Uiso   1.00
H1184  H     0.89758   0.00049   0.74443   0.00000  Uiso   1.00
H1185  H     0.76959   0.33302   0.76326   0.00000  Uiso   1.00
H1186  H     0.88021   0.06202   0.62115   0.00000  Uiso   1.00
H1187  H     0.95024   0.04510   0.60323   0.00000  Uiso   1.00
H1188  H     0.92070   0.10089   0.58219   0.00000  Uiso   1.00
N1189  N     0.98344   0.15265   0.73783   0.00000  Uiso   1.00
N1190  N     0.68322   0.18068   0.76217   0.00000  Uiso   1.00
O1191  O     0.79642   0.24619   0.75298   0.00000  Uiso   1.00
O1192  O     0.87025   0.08714   0.74701   0.00000  Uiso   1.00
O1193  O     0.89280   0.23721   0.74518   0.00000  Uiso   1.00
O1194  O     0.77387   0.09613   0.75481   0.00000  Uiso   1.00
O1195  O     0.78514   0.17117   0.81997   0.00000  Uiso   1.00
O1196  O     0.88153   0.16216   0.68002   0.00000  Uiso   1.00
O1197  O     0.88152   0.16219   0.81217   0.00000  Uiso   1.00
O1198  O     0.78515   0.17115   0.68782   0.00000  Uiso   1.00
Zn1199 Zn    0.76898   0.17266   0.75521   0.00000  Uiso   1.00
Zn1200 Zn    0.89769   0.16067   0.74479   0.00000  Uiso   1.00
C1201  C     0.18116   0.59776   0.74975   0.00000  Uiso   1.00
C1202  C     0.18070   0.54601   0.90821   0.00000  Uiso   1.00
C1203  C     0.16206   0.49849   0.61546   0.00000  Uiso   1.00
C1204  C     0.16867   0.50011   0.88394   0.00000  Uiso   1.00
C1205  C     0.18813   0.53913   0.59441   0.00000  Uiso   1.00
C1206  C     0.14700   0.45798   0.90493   0.00000  Uiso   1.00
C1207  C     0.17865   0.54687   0.54925   0.00000  Uiso   1.00
C1208  C     0.13318   0.46233   0.95137   0.00000  Uiso   1.00
C1209  C     0.15047   0.50641   0.52407   0.00000  Uiso   1.00
C1210  C     0.15314   0.50625   0.97727   0.00000  Uiso   1.00
C1211  C     0.12248   0.46472   0.54552   0.00000  Uiso   1.00
C1212  C     0.15225   0.40234   0.75227   0.00000  Uiso   1.00
C1213  C     0.17565   0.54975   0.95581   0.00000  Uiso   1.00
C1214  C     0.19505   0.59426   0.52959   0.00000  Uiso   1.00
C1215  C     0.09589   0.42634   0.97132   0.00000  Uiso   1.00
C1216  C     0.21941   0.63747   0.56216   0.00000  Uiso   1.00
C1217  C     0.22314   0.36080   0.55173   0.00000  Uiso   1.00
C1218  C     0.24499   0.39427   0.59203   0.00000  Uiso   1.00
C1219  C     0.05960   0.39137   0.94008   0.00000  Uiso   1.00
C1220  C     0.02240   0.42283   0.91199   0.00000  Uiso   1.00
C1221  C     0.02324   0.40230   0.86193   0.00000  Uiso   1.00
C1222  C     0.19052   0.64596   0.95700   0.00000  Uiso   1.00
C1223  C     0.18946   0.59638   0.98175   0.00000  Uiso   1.00
C1224  C     0.24448   0.65429   0.92767   0.00000  Uiso   1.00
C1225  C     0.23305   0.34424   0.88301   0.00000  Uiso   1.00
C1226  C     0.04684   0.39144   0.54209   0.00000  Uiso   1.00
C1227  C     0.05840   0.66642   0.53296   0.00000  Uiso   1.00
C1228  C     0.06525   0.63870   0.57569   0.00000  Uiso   1.00
C1229  C     0.00560   0.45025   0.70189   0.00000  Uiso   1.00
C1230  C     0.31503   0.39579   0.70761   0.00000  Uiso   1.00
C1231  C     0.01844   0.35509   0.68278   0.00000  Uiso   1.00
C1232  C     0.32829   0.55245   0.79671   0.00000  Uiso   1.00
C1233  C     0.00488   0.53837   0.84513   0.00000  Uiso   1.00
C1234  C     0.09028   0.42707   0.51952   0.00000  Uiso   1.00
C1235  C     0.04155   0.57830   0.87112   0.00000  Uiso   1.00
C1236  C     0.18884   0.65199   0.75013   0.00000  Uiso   1.00
C1237  C     0.14487   0.34840   0.75608   0.00000  Uiso   1.00
C1238  C     0.16743   0.49962   0.83604   0.00000  Uiso   1.00
C1239  C     0.16540   0.49782   0.66361   0.00000  Uiso   1.00
C1240  C     0.12795   0.46246   0.59224   0.00000  Uiso   1.00
H1241  H     0.10986   0.43120   0.61081   0.00000  Uiso   1.00
H1242  H     0.25188   0.36601   0.52179   0.00000  Uiso   1.00
H1243  H     0.18096   0.37419   0.54675   0.00000  Uiso   1.00
H1244  H     0.19282   0.63848   0.59425   0.00000  Uiso   1.00
H1245  H     0.26168   0.62573   0.56972   0.00000  Uiso   1.00
H1246  H     0.06145   0.41586   0.84309   0.00000  Uiso   1.00
H1247  H     0.02235   0.35971   0.85836   0.00000  Uiso   1.00
H1248  H     0.32005   0.41619   0.84563   0.00000  Uiso   1.00
H1249  H     0.31238   0.42198   0.92693   0.00000  Uiso   1.00
H1250  H     0.03497   0.46438   0.91366   0.00000  Uiso   1.00
H1251  H     0.08693   0.36546   0.91781   0.00000  Uiso   1.00
H1252  H     0.19355   0.57785   0.88857   0.00000  Uiso   1.00
H1253  H     0.03176   0.36451   0.95805   0.00000  Uiso   1.00
H1254  H     0.23195   0.38689   0.88831   0.00000  Uiso   1.00
H1255  H     0.26592   0.66656   0.85658   0.00000  Uiso   1.00
H1256  H     0.19304   0.66317   0.86916   0.00000  Uiso   1.00
H1257  H     0.27330   0.34668   0.94708   0.00000  Uiso   1.00
H1258  H     0.26635   0.61749   0.92001   0.00000  Uiso   1.00
H1259  H     0.15396   0.64283   0.93565   0.00000  Uiso   1.00
H1260  H     0.18079   0.34798   0.97780   0.00000  Uiso   1.00
H1261  H     0.02446   0.63508   0.59483   0.00000  Uiso   1.00
H1262  H     0.09646   0.65943   0.59708   0.00000  Uiso   1.00
H1263  H     0.21437   0.56506   0.61477   0.00000  Uiso   1.00
H1264  H     0.07930   0.59894   0.56611   0.00000  Uiso   1.00
H1265  H     0.02297   0.64667   0.51554   0.00000  Uiso   1.00
H1266  H     0.09599   0.66047   0.51021   0.00000  Uiso   1.00
H1267  H     0.03933   0.40186   0.57868   0.00000  Uiso   1.00
H1268  H     0.00641   0.39934   0.52839   0.00000  Uiso   1.00
H1269  H     0.02935   0.36675   0.64825   0.00000  Uiso   1.00
H1270  H     0.05744   0.35199   0.70014   0.00000  Uiso   1.00
H1271  H     0.32943   0.65025   0.68109   0.00000  Uiso   1.00
H1272  H     0.31080   0.38837   0.74424   0.00000  Uiso   1.00
H1273  H     0.27396   0.39205   0.69241   0.00000  Uiso   1.00
H1274  H     0.13798   0.42323   0.88396   0.00000  Uiso   1.00
H1275  H     0.32782   0.46299   0.66862   0.00000  Uiso   1.00
H1276  H     0.05030   0.44856   0.70106   0.00000  Uiso   1.00
H1277  H     0.07944   0.58924   0.85032   0.00000  Uiso   1.00
H1278  H     0.01789   0.61344   0.88097   0.00000  Uiso   1.00
H1279  H     0.05431   0.56243   0.90263   0.00000  Uiso   1.00
H1280  H     0.29778   0.53468   0.86509   0.00000  Uiso   1.00
H1281  H     0.02345   0.50026   0.84389   0.00000  Uiso   1.00
H1282  H     0.01463   0.59060   0.78979   0.00000  Uiso   1.00
H1283  H     0.28403   0.55700   0.79610   0.00000  Uiso   1.00
H1284  H     0.23091   0.33382   0.74443   0.00000  Uiso   1.00
H1285  H     0.10292   0.66635   0.76326   0.00000  Uiso   1.00
H1286  H     0.21354   0.39535   0.62115   0.00000  Uiso   1.00
H1287  H     0.28357   0.37844   0.60323   0.00000  Uiso   1.00
H1288  H     0.25404   0.43423   0.58219   0.00000  Uiso   1.00
N1289  N     0.31678   0.48598   0.73783   0.00000  Uiso   1.00
N1290  N     0.01656   0.51402   0.76217   0.00000  Uiso   1.00
O1291  O     0.12975   0.57952   0.75298   0.00000  Uiso   1.00
O1292  O     0.20358   0.42048   0.74701   0.00000  Uiso   1.00
O1293  O     0.22613   0.57054   0.74518   0.00000  Uiso   1.00
O1294  O     0.10720   0.42946   0.75481   0.00000  Uiso   1.00
O1295  O     0.11847   0.50450   0.81997   0.00000  Uiso   1.00
O1296  O     0.21486   0.49550   0.68002   0.00000  Uiso   1.00
O1297  O     0.21485   0.49552   0.81217   0.00000  Uiso   1.00
O1298  O     0.11848   0.50448   0.68782   0.00000  Uiso   1.00
Zn1299 Zn    0.10231   0.50600   0.75521   0.00000  Uiso   1.00
Zn1300 Zn    0.23102   0.49400   0.74479   0.00000  Uiso   1.00
C1301  C     0.51450   0.59776   0.74975   0.00000  Uiso   1.00
C1302  C     0.51403   0.54601   0.90821   0.00000  Uiso   1.00
C1303  C     0.49539   0.49849   0.61546   0.00000  Uiso   1.00
C1304  C     0.50201   0.50011   0.88394   0.00000  Uiso   1.00
C1305  C     0.52146   0.53913   0.59441   0.00000  Uiso   1.00
C1306  C     0.48033   0.45798   0.90493   0.00000  Uiso   1.00
C1307  C     0.51199   0.54687   0.54925   0.00000  Uiso   1.00
C1308  C     0.46651   0.46233   0.95137   0.00000  Uiso   1.00
C1309  C     0.48380   0.50641   0.52407   0.00000  Uiso   1.00
C1310  C     0.48647   0.50625   0.97727   0.00000  Uiso   1.00
C1311  C     0.45582   0.46472   0.54552   0.00000  Uiso   1.00
C1312  C     0.48559   0.40234   0.75227   0.00000  Uiso   1.00
C1313  C     0.50898   0.54975   0.95581   0.00000  Uiso   1.00
C1314  C     0.52838   0.59426   0.52959   0.00000  Uiso   1.00
C1315  C     0.42922   0.42634   0.97132   0.00000  Uiso   1.00
C1316  C     0.55275   0.63747   0.56216   0.00000  Uiso   1.00
C1317  C     0.55647   0.36080   0.55173   0.00000  Uiso   1.00
C1318  C     0.57832   0.39427   0.59203   0.00000  Uiso   1.00
C1319  C     0.39293   0.39137   0.94008   0.00000  Uiso   1.00
C1320  C     0.35573   0.42283   0.91199   0.00000  Uiso   1.00
C1321  C     0.35658   0.40230   0.86193   0.00000  Uiso   1.00
C1322  C     0.52385   0.64596   0.95700   0.00000  Uiso   1.00
C1323  C     0.52279   0.59638   0.98175   0.00000  Uiso   1.00
C1324  C     0.57782   0.65429   0.92767   0.00000  Uiso   1.00
C1325  C     0.56638   0.34424   0.88301   0.00000  Uiso   1.00
C1326  C     0.38018   0.39144   0.54209   0.00000  Uiso   1.00
C1327  C     0.39173   0.66642   0.53296   0.00000  Uiso   1.00
C1328  C     0.39859   0.63870   0.57569   0.00000  Uiso   1.00
C1329  C     0.33893   0.45025   0.70189   0.00000  Uiso   1.00
C1330  C     0.64836   0.39579   0.70761   0.00000  Uiso   1.00
C1331  C     0.35177   0.35509   0.68278   0.00000  Uiso   1.00
C1332  C     0.66163   0.55245   0.79671   0.00000  Uiso   1.00
C1333  C     0.33822   0.53837   0.84513   0.00000  Uiso   1.00
C1334  C     0.42362   0.42707   0.51952   0.00000  Uiso   1.00
C1335  C     0.37488   0.57830   0.87112   0.00000  Uiso   1.00
C1336  C     0.52217   0.65199   0.75013   0.00000  Uiso   1.00
C1337  C     0.47820   0.34840   0.75608   0.00000  Uiso   1.00
C1338  C     0.50077   0.49962   0.83604   0.00000  Uiso   1.00
C1339  C     0.49873   0.49782   0.66361   0.00000  Uiso   1.00
C1340  C     0.46129   0.46246   0.59224   0.00000  Uiso   1.00
H1341  H     0.44319   0.43120   0.61081   0.00000  Uiso   1.00
H1342  H     0.58521   0.36601   0.52179   0.00000  Uiso   1.00
H1343  H     0.51429   0.37419   0.54675   0.00000  Uiso   1.00
H1344  H     0.52615   0.63848   0.59425   0.00000  Uiso   1.00
H1345  H     0.59502   0.62573   0.56972   0.00000  Uiso   1.00
H1346  H     0.39479   0.41586   0.84309   0.00000  Uiso   1.00
H1347  H     0.35568   0.35971   0.85836   0.00000  Uiso   1.00
H1348  H     0.65339   0.41619   0.84563   0.00000  Uiso   1.00
H1349  H     0.64571   0.42198   0.92693   0.00000  Uiso   1.00
H1350  H     0.36830   0.46438   0.91366   0.00000  Uiso   1.00
H1351  H     0.42027   0.36546   0.91781   0.00000  Uiso   1.00
H1352  H     0.52688   0.57785   0.88857   0.00000  Uiso   1.00
H1353  H     0.36509   0.36451   0.95805   0.00000  Uiso   1.00
H1354  H     0.56528   0.38689   0.88831   0.00000  Uiso   1.00
H1355  H     0.59925   0.66656   0.85658   0.00000  Uiso   1.00
H1356  H     0.52638   0.66317   0.86916   0.00000  Uiso   1.00
H1357  H     0.60663   0.34668   0.94708   0.00000  Uiso   1.00
H1358  H     0.59968   0.61749   0.92001   0.00000  Uiso   1.00
H1359  H     0.48729   0.64283   0.93565   0.00000  Uiso   1.00
H1360  H     0.51413   0.34798   0.97780   0.00000  Uiso   1.00
H1361  H     0.35779   0.63508   0.59483   0.00000  Uiso   1.00
H1362  H     0.42980   0.65943   0.59708   0.00000  Uiso   1.00
H1363  H     0.54771   0.56506   0.61477   0.00000  Uiso   1.00
H1364  H     0.41263   0.59894   0.56611   0.00000  Uiso   1.00
H1365  H     0.35630   0.64667   0.51554   0.00000  Uiso   1.00
H1366  H     0.42932   0.66047   0.51021   0.00000  Uiso   1.00
H1367  H     0.37266   0.40186   0.57868   0.00000  Uiso   1.00
H1368  H     0.33975   0.39934   0.52839   0.00000  Uiso   1.00
H1369  H     0.36268   0.36675   0.64825   0.00000  Uiso   1.00
H1370  H     0.39078   0.35199   0.70014   0.00000  Uiso   1.00
H1371  H     0.66276   0.65025   0.68109   0.00000  Uiso   1.00
H1372  H     0.64413   0.38837   0.74424   0.00000  Uiso   1.00
H1373  H     0.60729   0.39205   0.69241   0.00000  Uiso   1.00
H1374  H     0.47132   0.42323   0.88396   0.00000  Uiso   1.00
H1375  H     0.66116   0.46299   0.66862   0.00000  Uiso   1.00
H1376  H     0.38363   0.44856   0.70106   0.00000  Uiso   1.00
H1377  H     0.41278   0.58924   0.85032   0.00000  Uiso   1.00
H1378  H     0.35122   0.61344   0.88097   0.00000  Uiso   1.00
H1379  H     0.38765   0.56243   0.90263   0.00000  Uiso   1.00
H1380  H     0.63111   0.53468   0.86509   0.00000  Uiso   1.00
H1381  H     0.35678   0.50026   0.84389   0.00000  Uiso   1.00
H1382  H     0.34796   0.59060   0.78979   0.00000  Uiso   1.00
H1383  H     0.61736   0.55700   0.79610   0.00000  Uiso   1.00
H1384  H     0.56424   0.33382   0.74443   0.00000  Uiso   1.00
H1385  H     0.43626   0.66635   0.76326   0.00000  Uiso   1.00
H1386  H     0.54687   0.39535   0.62115   0.00000  Uiso   1.00
H1387  H     0.61690   0.37844   0.60323   0.00000  Uiso   1.00
H1388  H     0.58737   0.43423   0.58219   0.00000  Uiso   1.00
N1389  N     0.65011   0.48598   0.73783   0.00000  Uiso   1.00
N1390  N     0.34989   0.51402   0.76217   0.00000  Uiso   1.00
O1391  O     0.46308   0.57952   0.75298   0.00000  Uiso   1.00
O1392  O     0.53692   0.42048   0.74701   0.00000  Uiso   1.00
O1393  O     0.55946   0.57054   0.74518   0.00000  Uiso   1.00
O1394  O     0.44054   0.42946   0.75481   0.00000  Uiso   1.00
O1395  O     0.45181   0.50450   0.81997   0.00000  Uiso   1.00
O1396  O     0.54819   0.49550   0.68002   0.00000  Uiso   1.00
O1397  O     0.54819   0.49552   0.81217   0.00000  Uiso   1.00
O1398  O     0.45181   0.50448   0.68782   0.00000  Uiso   1.00
Zn1399 Zn    0.43565   0.50600   0.75521   0.00000  Uiso   1.00
Zn1400 Zn    0.56435   0.49400   0.74479   0.00000  Uiso   1.00
C1401  C     0.84783   0.59776   0.74975   0.00000  Uiso   1.00
C1402  C     0.84737   0.54601   0.90821   0.00000  Uiso   1.00
C1403  C     0.82872   0.49849   0.61546   0.00000  Uiso   1.00
C1404  C     0.83534   0.50011   0.88394   0.00000  Uiso   1.00
C1405  C     0.85480   0.53913   0.59441   0.00000  Uiso   1.00
C1406  C     0.81366   0.45798   0.90493   0.00000  Uiso   1.00
C1407  C     0.84532   0.54687   0.54925   0.00000  Uiso   1.00
C1408  C     0.79985   0.46233   0.95137   0.00000  Uiso   1.00
C1409  C     0.81714   0.50641   0.52407   0.00000  Uiso   1.00
C1410  C     0.81981   0.50625   0.97727   0.00000  Uiso   1.00
C1411  C     0.78915   0.46472   0.54552   0.00000  Uiso   1.00
C1412  C     0.81892   0.40234   0.75227   0.00000  Uiso   1.00
C1413  C     0.84232   0.54975   0.95581   0.00000  Uiso   1.00
C1414  C     0.86172   0.59426   0.52959   0.00000  Uiso   1.00
C1415  C     0.76256   0.42634   0.97132   0.00000  Uiso   1.00
C1416  C     0.88608   0.63747   0.56216   0.00000  Uiso   1.00
C1417  C     0.88981   0.36080   0.55173   0.00000  Uiso   1.00
C1418  C     0.91165   0.39427   0.59203   0.00000  Uiso   1.00
C1419  C     0.72626   0.39137   0.94008   0.00000  Uiso   1.00
C1420  C     0.68907   0.42283   0.91199   0.00000  Uiso   1.00
C1421  C     0.68991   0.40230   0.86193   0.00000  Uiso   1.00
C1422  C     0.85718   0.64596   0.95700   0.00000  Uiso   1.00
C1423  C     0.85612   0.59638   0.98175   0.00000  Uiso   1.00
C1424  C     0.91115   0.65429   0.92767   0.00000  Uiso   1.00
C1425  C     0.89972   0.34424   0.88301   0.00000  Uiso   1.00
C1426  C     0.71351   0.39144   0.54209   0.00000  Uiso   1.00
C1427  C     0.72506   0.66642   0.53296   0.00000  Uiso   1.00
C1428  C     0.73192   0.63870   0.57569   0.00000  Uiso   1.00
C1429  C     0.67227   0.45025   0.70189   0.00000  Uiso   1.00
C1430  C     0.98169   0.39579   0.70761   0.00000  Uiso   1.00
C1431  C     0.68510   0.35509   0.68278   0.00000  Uiso   1.00
C1432  C     0.99496   0.55245   0.79671   0.00000  Uiso   1.00
C1433  C     0.67155   0.53837   0.84513   0.00000  Uiso   1.00
C1434  C     0.75695   0.42707   0.51952   0.00000  Uiso   1.00
C1435  C     0.70822   0.57830   0.87112   0.00000  Uiso   1.00
C1436  C     0.85550   0.65199   0.75013   0.00000  Uiso   1.00
C1437  C     0.81153   0.34840   0.75608   0.00000  Uiso   1.00
C1438  C     0.83410   0.49962   0.83604   0.00000  Uiso   1.00
C1439  C     0.83206   0.49782   0.66361   0.00000  Uiso   1.00
C1440  C     0.79462   0.46246   0.59224   0.00000  Uiso   1.00
H1441  H     0.77652   0.43120   0.61081   0.00000  Uiso   1.00
H1442  H     0.91854   0.36601   0.52179   0.00000  Uiso   1.00
H1443  H     0.84762   0.37419   0.54675   0.00000  Uiso   1.00
H1444  H     0.85948   0.63848   0.59425   0.00000  Uiso   1.00
H1445  H     0.92835   0.62573   0.56972   0.00000  Uiso   1.00
H1446  H     0.72812   0.41586   0.84309   0.00000  Uiso   1.00
H1447  H     0.68902   0.35971   0.85836   0.00000  Uiso   1.00
H1448  H     0.98672   0.41619   0.84563   0.00000  Uiso   1.00
H1449  H     0.97904   0.42198   0.92693   0.00000  Uiso   1.00
H1450  H     0.70164   0.46438   0.91366   0.00000  Uiso   1.00
H1451  H     0.75360   0.36546   0.91781   0.00000  Uiso   1.00
H1452  H     0.86022   0.57785   0.88857   0.00000  Uiso   1.00
H1453  H     0.69842   0.36451   0.95805   0.00000  Uiso   1.00
H1454  H     0.89862   0.38689   0.88831   0.00000  Uiso   1.00
H1455  H     0.93258   0.66656   0.85658   0.00000  Uiso   1.00
H1456  H     0.85971   0.66317   0.86916   0.00000  Uiso   1.00
H1457  H     0.93997   0.34668   0.94708   0.00000  Uiso   1.00
H1458  H     0.93302   0.61749   0.92001   0.00000  Uiso   1.00
H1459  H     0.82063   0.64283   0.93565   0.00000  Uiso   1.00
H1460  H     0.84746   0.34798   0.97780   0.00000  Uiso   1.00
H1461  H     0.69113   0.63508   0.59483   0.00000  Uiso   1.00
H1462  H     0.76313   0.65943   0.59708   0.00000  Uiso   1.00
H1463  H     0.88104   0.56506   0.61477   0.00000  Uiso   1.00
H1464  H     0.74597   0.59894   0.56611   0.00000  Uiso   1.00
H1465  H     0.68963   0.64667   0.51554   0.00000  Uiso   1.00
H1466  H     0.76265   0.66047   0.51021   0.00000  Uiso   1.00
H1467  H     0.70600   0.40186   0.57868   0.00000  Uiso   1.00
H1468  H     0.67308   0.39934   0.52839   0.00000  Uiso   1.00
H1469  H     0.69602   0.36675   0.64825   0.00000  Uiso   1.00
H1470  H     0.72411   0.35199   0.70014   0.00000  Uiso   1.00
H1471  H     0.99610   0.65025   0.68109   0.00000  Uiso   1.00
H1472  H     0.97746   0.38837   0.74424   0.00000  Uiso   1.00
H1473  H     0.94062   0.39205   0.69241   0.00000  Uiso   1.00
H1474  H     0.80465   0.42323   0.88396   0.00000  Uiso   1.00
H1475  H     0.99449   0.46299   0.66862   0.00000  Uiso   1.00
H1476  H     0.71696   0.44856   0.70106   0.00000  Uiso   1.00
H1477  H     0.74611   0.58924   0.85032   0.00000  Uiso   1.00
H1478  H     0.68455   0.61344   0.88097   0.00000  Uiso   1.00
H1479  H     0.72098   0.56243   0.90263   0.00000  Uiso   1.00
H1480  H     0.96444   0.53468   0.86509   0.00000  Uiso   1.00
H1481  H     0.69011   0.50026   0.84389   0.00000  Uiso   1.00
H1482  H     0.68130   0.59060   0.78979   0.00000  Uiso   1.00
H1483  H     0.95070   0.55700   0.79610   0.00000  Uiso   1.00
H1484  H     0.89758   0.33382   0.74443   0.00000  Uiso   1.00
H1485  H     0.76959   0.66635   0.76326   0.00000  Uiso   1.00
H1486  H     0.88021   0.39535   0.62115   0.00000  Uiso   1.00
H1487  H     0.95024   0.37844   0.60323   0.00000  Uiso   1.00
H1488  H     0.92070   0.43423   0.58219   0.00000  Uiso   1.00
N1489  N     0.98344   0.48598   0.73783   0.00000  Uiso   1.00
N1490  N     0.68322   0.51402   0.76217   0.00000  Uiso   1.00
O1491  O     0.79642   0.57952   0.75298   0.00000  Uiso   1.00
O1492  O     0.87025   0.42048   0.74701   0.00000  Uiso   1.00
O1493  O     0.89280   0.57054   0.74518   0.00000  Uiso   1.00
O1494  O     0.77387   0.42946   0.75481   0.00000  Uiso   1.00
O1495  O     0.78514   0.50450   0.81997   0.00000  Uiso   1.00
O1496  O     0.88153   0.49550   0.68002   0.00000  Uiso   1.00
O1497  O     0.88152   0.49552   0.81217   0.00000  Uiso   1.00
O1498  O     0.78515   0.50448   0.68782   0.00000  Uiso   1.00
Zn1499 Zn    0.76898   0.50600   0.75521   0.00000  Uiso   1.00
Zn1500 Zn    0.89769   0.49400   0.74479   0.00000  Uiso   1.00
C1501  C     0.18116   0.93109   0.74975   0.00000  Uiso   1.00
C1502  C     0.18070   0.87935   0.90821   0.00000  Uiso   1.00
C1503  C     0.16206   0.83182   0.61546   0.00000  Uiso   1.00
C1504  C     0.16867   0.83345   0.88394   0.00000  Uiso   1.00
C1505  C     0.18813   0.87246   0.59441   0.00000  Uiso   1.00
C1506  C     0.14700   0.79131   0.90493   0.00000  Uiso   1.00
C1507  C     0.17865   0.88020   0.54925   0.00000  Uiso   1.00
C1508  C     0.13318   0.79566   0.95137   0.00000  Uiso   1.00
C1509  C     0.15047   0.83975   0.52407   0.00000  Uiso   1.00
C1510  C     0.15314   0.83958   0.97727   0.00000  Uiso   1.00
C1511  C     0.12248   0.79805   0.54552   0.00000  Uiso   1.00
C1512  C     0.15225   0.73568   0.75227   0.00000  Uiso   1.00
C1513  C     0.17565   0.88308   0.95581   0.00000  Uiso   1.00
C1514  C     0.19505   0.92760   0.52959   0.00000  Uiso   1.00
C1515  C     0.09589   0.75967   0.97132   0.00000  Uiso   1.00
C1516  C     0.21941   0.97081   0.56216   0.00000  Uiso   1.00
C1517  C     0.22314   0.69413   0.55173   0.00000  Uiso   1.00
C1518  C     0.24499   0.72761   0.59203   0.00000  Uiso   1.00
C1519  C     0.05960   0.72470   0.94008   0.00000  Uiso   1.00
C1520  C     0.02240   0.75617   0.91199   0.00000  Uiso   1.00
C1521  C     0.02324   0.73564   0.86193   0.00000  Uiso   1.00
C1522  C     0.19052   0.97929   0.95700   0.00000  Uiso   1.00
C1523  C     0.18946   0.92972   0.98175   0.00000  Uiso   1.00
C1524  C     0.24448   0.98763   0.92767   0.00000  Uiso   1.00
C1525  C     0.23305   0.67757   0.88301   0.00000  Uiso   1.00
C1526  C     0.04684   0.72478   0.54209   0.00000  Uiso   1.00
C1527  C     0.05840   0.99976   0.53296   0.00000  Uiso   1.00
C1528  C     0.06525   0.97203   0.57569   0.00000  Uiso   1.00
C1529  C     0.00560   0.78359   0.70189   0.00000  Uiso   1.00
C1530  C     0.31503   0.72913   0.70761   0.00000  Uiso   1.00
C1531  C     0.01844   0.68842   0.68278   0.00000  Uiso   1.00
C1532  C     0.32829   0.88578   0.79671   0.00000  Uiso   1.00
C1533  C     0.00488   0.87170   0.84513   0.00000  Uiso   1.00
C1534  C     0.09028   0.76041   0.51952   0.00000  Uiso   1.00
C1535  C     0.04155   0.91163   0.87112   0.00000  Uiso   1.00
C1536  C     0.18884   0.98533   0.75013   0.00000  Uiso   1.00
C1537  C     0.14487   0.68174   0.75608   0.00000  Uiso   1.00
C1538  C     0.16743   0.83296   0.83604   0.00000  Uiso   1.00
C1539  C     0.16540   0.83116   0.66361   0.00000  Uiso   1.00
C1540  C     0.12795   0.79580   0.59224   0.00000  Uiso   1.00
H1541  H     0.10986   0.76453   0.61081   0.00000  Uiso   1.00
H1542  H     0.25188   0.69934   0.52179   0.00000  Uiso   1.00
H1543  H     0.18096   0.70752   0.54675   0.00000  Uiso   1.00
H1544  H     0.19282   0.97182   0.59425   0.00000  Uiso   1.00
H1545  H     0.26168   0.95906   0.56972   0.00000  Uiso   1.00
H1546  H     0.06145   0.74919   0.84309   0.00000  Uiso   1.00
H1547  H     0.02235   0.69304   0.85836   0.00000  Uiso   1.00
H1548  H     0.32005   0.74952   0.84563   0.00000  Uiso   1.00
H1549  H     0.31238   0.75532   0.92693   0.00000  Uiso   1.00
H1550  H     0.03497   0.79772   0.91366   0.00000  Uiso   1.00
H1551  H     0.08693   0.69880   0.91781   0.00000  Uiso   1.00
H1552  H     0.19355   0.91119   0.88857   0.00000  Uiso   1.00
H1553  H     0.03176   0.69784   0.95805   0.00000  Uiso   1.00
H1554  H     0.23195   0.72022   0.88831   0.00000  Uiso   1.00
H1555  H     0.26592   0.99990   0.85658   0.00000  Uiso   1.00
H1556  H     0.19304   0.99650   0.86916   0.00000  Uiso   1.00
H1557  H     0.27330   0.68001   0.94708   0.00000  Uiso   1.00
H1558  H     0.26635   0.95083   0.92001   0.00000  Uiso   1.00
H1559  H     0.15396   0.97616   0.93565   0.00000  Uiso   1.00
H1560  H     0.18079   0.68132   0.97780   0.00000  Uiso   1.00
H1561  H     0.02446   0.96841   0.59483   0.00000  Uiso   1.00
H1562  H     0.09646   0.99277   0.59708   0.00000  Uiso   1.00
H1563  H     0.21437   0.89839   0.61477   0.00000  Uiso   1.00
H1564  H     0.07930   0.93227   0.56611   0.00000  Uiso   1.00
H1565  H     0.02297   0.98000   0.51554   0.00000  Uiso   1.00
H1566  H     0.09599   0.99380   0.51021   0.00000  Uiso   1.00
H1567  H     0.03933   0.73519   0.57868   0.00000  Uiso   1.00
H1568  H     0.00641   0.73267   0.52839   0.00000  Uiso   1.00
H1569  H     0.02935   0.70009   0.64825   0.00000  Uiso   1.00
H1570  H     0.05744   0.68532   0.70014   0.00000  Uiso   1.00
H1571  H     0.32943   0.98359   0.68109   0.00000  Uiso   1.00
H1572  H     0.31080   0.72170   0.74424   0.00000  Uiso   1.00
H1573  H     0.27396   0.72538   0.69241   0.00000  Uiso   1.00
H1574  H     0.13798   0.75656   0.88396   0.00000  Uiso   1.00
H1575  H     0.32782   0.79633   0.66862   0.00000  Uiso   1.00
H1576  H     0.05030   0.78189   0.70106   0.00000  Uiso   1.00
H1577  H     0.07944   0.92257   0.85032   0.00000  Uiso   1.00
H1578  H     0.01789   0.94677   0.88097   0.00000  Uiso   1.00
H1579  H     0.05431   0.89576   0.90263   0.00000  Uiso   1.00
H1580  H     0.29778   0.86802   0.86509   0.00000  Uiso   1.00
H1581  H     0.02345   0.83359   0.84389   0.00000  Uiso   1.00
H1582  H     0.01463   0.92393   0.78979   0.00000  Uiso   1.00
H1583  H     0.28403   0.89033   0.79610   0.00000  Uiso   1.00
H1584  H     0.23091   0.66716   0.74443   0.00000  Uiso   1.00
H1585  H     0.10292   0.99969   0.76326   0.00000  Uiso   1.00
H1586  H     0.21354   0.72868   0.62115   0.00000  Uiso   1.00
H1587  H     0.28357   0.71177   0.60323   0.00000  Uiso   1.00
H1588  H     0.25404   0.76756   0.58219   0.00000  Uiso   1.00
N1589  N     0.31678   0.81932   0.73783   0.00000  Uiso   1.00
N1590  N     0.01656   0.84735   0.76217   0.00000  Uiso   1.00
O1591  O     0.12975   0.91286   0.75298   0.00000  Uiso   1.00
O1592  O     0.20358   0.75381   0.74701   0.00000  Uiso   1.00
O1593  O     0.22613   0.90387   0.74518   0.00000  Uiso   1.00
O1594  O     0.10720   0.76279   0.75481   0.00000  Uiso   1.00
O1595  O     0.11847   0.83784   0.81997   0.00000  Uiso   1.00
O1596  O     0.21486   0.82883   0.68002   0.00000  Uiso   1.00
O1597  O     0.21485   0.82885   0.81217   0.00000  Uiso   1.00
O1598  O     0.11848   0.83781   0.68782   0.00000  Uiso   1.00
Zn1599 Zn    0.10231   0.83933   0.75521   0.00000  Uiso   1.00
Zn1600 Zn    0.23102   0.82734   0.74479   0.00000  Uiso   1.00
C1601  C     0.51450   0.93109   0.74975   0.00000  Uiso   1.00
C1602  C     0.51403   0.87935   0.90821   0.00000  Uiso   1.00
C1603  C     0.49539   0.83182   0.61546   0.00000  Uiso   1.00
C1604  C     0.50201   0.83345   0.88394   0.00000  Uiso   1.00
C1605  C     0.52146   0.87246   0.59441   0.00000  Uiso   1.00
C1606  C     0.48033   0.79131   0.90493   0.00000  Uiso   1.00
C1607  C     0.51199   0.88020   0.54925   0.00000  Uiso   1.00
C1608  C     0.46651   0.79566   0.95137   0.00000  Uiso   1.00
C1609  C     0.48380   0.83975   0.52407   0.00000  Uiso   1.00
C1610  C     0.48647   0.83958   0.97727   0.00000  Uiso   1.00
C1611  C     0.45582   0.79805   0.54552   0.00000  Uiso   1.00
C1612  C     0.48559   0.73568   0.75227   0.00000  Uiso   1.00
C1613  C     0.50898   0.88308   0.95581   0.00000  Uiso   1.00
C1614  C     0.52838   0.92760   0.52959   0.00000  Uiso   1.00
C1615  C     0.42922   0.75967   0.97132   0.00000  Uiso   1.00
C1616  C     0.55275   0.97081   0.56216   0.00000  Uiso   1.00
C1617  C     0.55647   0.69413   0.55173   0.00000  Uiso   1.00
C1618  C     0.57832   0.72761   0.59203   0.00000  Uiso   1.00
C1619  C     0.39293   0.72470   0.94008   0.00000  Uiso   1.00
C1620  C     0.35573   0.75617   0.91199   0.00000  Uiso   1.00
C1621  C     0.35658   0.73564   0.86193   0.00000  Uiso   1.00
C1622  C     0.52385   0.97929   0.95700   0.00000  Uiso   1.00
C1623  C     0.52279   0.92972   0.98175   0.00000  Uiso   1.00
C1624  C     0.57782   0.98763   0.92767   0.00000  Uiso   1.00
C1625  C     0.56638   0.67757   0.88301   0.00000  Uiso   1.00
C1626  C     0.38018   0.72478   0.54209   0.00000  Uiso   1.00
C1627  C     0.39173   0.99976   0.53296   0.00000  Uiso   1.00
C1628  C     0.39859   0.97203   0.57569   0.00000  Uiso   1.00
C1629  C     0.33893   0.78359   0.70189   0.00000  Uiso   1.00
C1630  C     0.64836   0.72913   0.70761   0.00000  Uiso   1.00
C1631  C     0.35177   0.68842   0.68278   0.00000  Uiso   1.00
C1632  C     0.66163   0.88578   0.79671   0.00000  Uiso   1.00
C1633  C     0.33822   0.87170   0.84513   0.00000  Uiso   1.00
C1634  C     0.42362   0.76041   0.51952   0.00000  Uiso   1.00
C1635  C     0.37488   0.91163   0.87112   0.00000  Uiso   1.00
C1636  C     0.52217   0.98533   0.75013   0.00000  Uiso   1.00
C1637  C     0.47820   0.68174   0.75608   0.00000  Uiso   1.00
C1638  C     0.50077   0.83296   0.83604   0.00000  Uiso   1.00
C1639  C     0.49873   0.83116   0.66361   0.00000  Uiso   1.00
C1640  C     0.46129   0.79580   0.59224   0.00000  Uiso   1.00
H1641  H     0.44319   0.76453   0.61081   0.00000  Uiso   1.00
H1642  H     0.58521   0.69934   0.52179   0.00000  Uiso   1.00
H1643  H     0.51429   0.70752   0.54675   0.00000  Uiso   1.00
H1644  H     0.52615   0.97182   0.59425   0.00000  Uiso   1.00
H1645  H     0.59502   0.95906   0.56972   0.00000  Uiso   1.00
H1646  H     0.39479   0.74919   0.84309   0.00000  Uiso   1.00
H1647  H     0.35568   0.69304   0.85836   0.00000  Uiso   1.00
H1648  H     0.65339   0.74952   0.84563   0.00000  Uiso   1.00
H1649  H     0.64571   0.75532   0.92693   0.00000  Uiso   1.00
H1650  H     0.36830   0.79772   0.91366   0.00000  Uiso   1.00
H1651  H     0.42027   0.69880   0.91781   0.00000  Uiso   1.00
H1652  H     0.52688   0.91119   0.88857   0.00000  Uiso   1.00
H1653  H     0.36509   0.69784   0.95805   0.00000  Uiso   1.00
H1654  H     0.56528   0.72022   0.88831   0.00000  Uiso   1.00
H1655  H     0.59925   0.99990   0.85658   0.00000  Uiso   1.00
H1656  H     0.52638   0.99650   0.86916   0.00000  Uiso   1.00
H1657  H     0.60663   0.68001   0.94708   0.00000  Uiso   1.00
H1658  H     0.59968   0.95083   0.92001   0.00000  Uiso   1.00
H1659  H     0.48729   0.97616   0.93565   0.00000  Uiso   1.00
H1660  H     0.51413   0.68132   0.97780   0.00000  Uiso   1.00
H1661  H     0.35779   0.96841   0.59483   0.00000  Uiso   1.00
H1662  H     0.42980   0.99277   0.59708   0.00000  Uiso   1.00
H1663  H     0.54771   0.89839   0.61477   0.00000  Uiso   1.00
H1664  H     0.41263   0.93227   0.56611   0.00000  Uiso   1.00
H1665  H     0.35630   0.98000   0.51554   0.00000  Uiso   1.00
H1666  H     0.42932   0.99380   0.51021   0.00000  Uiso   1.00
H1667  H     0.37266   0.73519   0.57868   0.00000  Uiso   1.00
H1668  H     0.33975   0.73267   0.52839   0.00000  Uiso   1.00
H1669  H     0.36268   0.70009   0.64825   0.00000  Uiso   1.00
H1670  H     0.39078   0.68532   0.70014   0.00000  Uiso   1.00
H1671  H     0.66276   0.98359   0.68109   0.00000  Uiso   1.00
H1672  H     0.64413   0.72170   0.74424   0.00000  Uiso   1.00
H1673  H     0.60729   0.72538   0.69241   0.00000  Uiso   1.00
H1674  H     0.47132   0.75656   0.88396   0.00000  Uiso   1.00
H1675  H     0.66116   0.79633   0.66862   0.00000  Uiso   1.00
H1676  H     0.38363   0.78189   0.70106   0.00000  Uiso   1.00
H1677  H     0.41278   0.92257   0.85032   0.00000  Uiso   1.00
H1678  H     0.35122   0.94677   0.88097   0.00000  Uiso   1.00
H1679  H     0.38765   0.89576   0.90263   0.00000  Uiso   1.00
H1680  H     0.63111   0.86802   0.86509   0.00000  Uiso   1.00
H1681  H     0.35678   0.83359   0.84389   0.00000  Uiso   1.00
H1682  H     0.34796   0.92393   0.78979   0.00000  Uiso   1.00
H1683  H     0.61736   0.89033   0.79610   0.00000  Uiso   1.00
H1684  H     0.56424   0.66716   0.74443   0.00000  Uiso   1.00
H1685  H     0.43626   0.99969   0.76326   0.00000  Uiso   1.00
H1686  H     0.54687   0.72868   0.62115   0.00000  Uiso   1.00
H1687  H     0.61690   0.71177   0.60323   0.00000  Uiso   1.00
H1688  H     0.58737   0.76756   0.58219   0.00000  Uiso   1.00
N1689  N     0.65011   0.81932   0.73783   0.00000  Uiso   1.00
N1690  N     0.34989   0.84735   0.76217   0.00000  Uiso   1.00
O1691  O     0.46308   0.91286   0.75298   0.00000  Uiso   1.00
O1692  O     0.53692   0.75381   0.74701   0.00000  Uiso   1.00
O1693  O     0.55946   0.90387   0.74518   0.00000  Uiso   1.00
O1694  O     0.44054   0.76279   0.75481   0.00000  Uiso   1.00
O1695  O     0.45181   0.83784   0.81997   0.00000  Uiso   1.00
O1696  O     0.54819   0.82883   0.68002   0.00000  Uiso   1.00
O1697  O     0.54819   0.82885   0.81217   0.00000  Uiso   1.00
O1698  O     0.45181   0.83781   0.68782   0.00000  Uiso   1.00
Zn1699 Zn    0.43565   0.83933   0.75521   0.00000  Uiso   1.00
Zn1700 Zn    0.56435   0.82734   0.74479   0.00000  Uiso   1.00
C1701  C     0.84783   0.93109   0.74975   0.00000  Uiso   1.00
C1702  C     0.84737   0.87935   0.90821   0.00000  Uiso   1.00
C1703  C     0.82872   0.83182   0.61546   0.00000  Uiso   1.00
C1704  C     0.83534   0.83345   0.88394   0.00000  Uiso   1.00
C1705  C     0.85480   0.87246   0.59441   0.00000  Uiso   1.00
C1706  C     0.81366   0.79131   0.90493   0.00000  Uiso   1.00
C1707  C     0.84532   0.88020   0.54925   0.00000  Uiso   1.00
C1708  C     0.79985   0.79566   0.95137   0.00000  Uiso   1.00
C1709  C     0.81714   0.83975   0.52407   0.00000  Uiso   1.00
C1710  C     0.81981   0.83958   0.97727   0.00000  Uiso   1.00
C1711  C     0.78915   0.79805   0.54552   0.00000  Uiso   1.00
C1712  C     0.81892   0.73568   0.75227   0.00000  Uiso   1.00
C1713  C     0.84232   0.88308   0.95581   0.00000  Uiso   1.00
C1714  C     0.86172   0.92760   0.52959   0.00000  Uiso   1.00
C1715  C     0.76256   0.75967   0.97132   0.00000  Uiso   1.00
C1716  C     0.88608   0.97081   0.56216   0.00000  Uiso   1.00
C1717  C     0.88981   0.69413   0.55173   0.00000  Uiso   1.00
C1718  C     0.91165   0.72761   0.59203   0.00000  Uiso   1.00
C1719  C     0.72626   0.72470   0.94008   0.00000  Uiso   1.00
C1720  C     0.68907   0.75617   0.91199   0.00000  Uiso   1.00
C1721  C     0.68991   0.73564   0.86193   0.00000  Uiso   1.00
C1722  C     0.85718   0.97929   0.95700   0.00000  Uiso   1.00
C1723  C     0.85612   0.92972   0.98175   0.00000  Uiso   1.00
C1724  C     0.91115   0.98763   0.92767   0.00000  Uiso   1.00
C1725  C     0.89972   0.67757   0.88301   0.00000  Uiso   1.00
C1726  C     0.71351   0.72478   0.54209   0.00000  Uiso   1.00
C1727  C     0.72506   0.99976   0.53296   0.00000  Uiso   1.00
C1728  C     0.73192   0.97203   0.57569   0.00000  Uiso   1.00
C1729  C     0.67227   0.78359   0.70189   0.00000  Uiso   1.00
C1730  C     0.98169   0.72913   0.70761   0.00000  Uiso   1.00
C1731  C     0.68510   0.68842   0.68278   0.00000  Uiso   1.00
C1732  C     0.99496   0.88578   0.79671   0.00000  Uiso   1.00
C1733  C     0.67155   0.87170   0.84513   0.00000  Uiso   1.00
C1734  C     0.75695   0.76041   0.51952   0.00000  Uiso   1.00
C1735  C     0.70822   0.91163   0.87112   0.00000  Uiso   1.00
C1736  C     0.85550   0.98533   0.75013   0.00000  Uiso   1.00
C1737  C     0.81153   0.68174   0.75608   0.00000  Uiso   1.00
C1738  C     0.83410   0.83296   0.83604   0.00000  Uiso   1.00
C1739  C     0.83206   0.83116   0.66361   0.00000  Uiso   1.00
C1740  C     0.79462   0.79580   0.59224   0.00000  Uiso   1.00
H1741  H     0.77652   0.76453   0.61081   0.00000  Uiso   1.00
H1742  H     0.91854   0.69934   0.52179   0.00000  Uiso   1.00
H1743  H     0.84762   0.70752   0.54675   0.00000  Uiso   1.00
H1744  H     0.85948   0.97182   0.59425   0.00000  Uiso   1.00
H1745  H     0.92835   0.95906   0.56972   0.00000  Uiso   1.00
H1746  H     0.72812   0.74919   0.84309   0.00000  Uiso   1.00
H1747  H     0.68902   0.69304   0.85836   0.00000  Uiso   1.00
H1748  H     0.98672   0.74952   0.84563   0.00000  Uiso   1.00
H1749  H     0.97904   0.75532   0.92693   0.00000  Uiso   1.00
H1750  H     0.70164   0.79772   0.91366   0.00000  Uiso   1.00
H1751  H     0.75360   0.69880   0.91781   0.00000  Uiso   1.00
H1752  H     0.86022   0.91119   0.88857   0.00000  Uiso   1.00
H1753  H     0.69842   0.69784   0.95805   0.00000  Uiso   1.00
H1754  H     0.89862   0.72022   0.88831   0.00000  Uiso   1.00
H1755  H     0.93258   0.99990   0.85658   0.00000  Uiso   1.00
H1756  H     0.85971   0.99650   0.86916   0.00000  Uiso   1.00
H1757  H     0.93997   0.68001   0.94708   0.00000  Uiso   1.00
H1758  H     0.93302   0.95083   0.92001   0.00000  Uiso   1.00
H1759  H     0.82063   0.97616   0.93565   0.00000  Uiso   1.00
H1760  H     0.84746   0.68132   0.97780   0.00000  Uiso   1.00
H1761  H     0.69113   0.96841   0.59483   0.00000  Uiso   1.00
H1762  H     0.76313   0.99277   0.59708   0.00000  Uiso   1.00
H1763  H     0.88104   0.89839   0.61477   0.00000  Uiso   1.00
H1764  H     0.74597   0.93227   0.56611   0.00000  Uiso   1.00
H1765  H     0.68963   0.98000   0.51554   0.00000  Uiso   1.00
H1766  H     0.76265   0.99380   0.51021   0.00000  Uiso   1.00
H1767  H     0.70600   0.73519   0.57868   0.00000  Uiso   1.00
H1768  H     0.67308   0.73267   0.52839   0.00000  Uiso   1.00
H1769  H     0.69602   0.70009   0.64825   0.00000  Uiso   1.00
H1770  H     0.72411   0.68532   0.70014   0.00000  Uiso   1.00
H1771  H     0.99610   0.98359   0.68109   0.00000  Uiso   1.00
H1772  H     0.97746   0.72170   0.74424   0.00000  Uiso   1.00
H1773  H     0.94062   0.72538   0.69241   0.00000  Uiso   1.00
H1774  H     0.80465   0.75656   0.88396   0.00000  Uiso   1.00
H1775  H     0.99449   0.79633   0.66862   0.00000  Uiso   1.00
H1776  H     0.71696   0.78189   0.70106   0.00000  Uiso   1.00
H1777  H     0.74611   0.92257   0.85032   0.00000  Uiso   1.00
H1778  H     0.68455   0.94677   0.88097   0.00000  Uiso   1.00
H1779  H     0.72098   0.89576   0.90263   0.00000  Uiso   1.00
H1780  H     0.96444   0.86802   0.86509   0.00000  Uiso   1.00
H1781  H     0.69011   0.83359   0.84389   0.00000  Uiso   1.00
H1782  H     0.68130   0.92393   0.78979   0.00000  Uiso   1.00
H1783  H     0.95070   0.89033   0.79610   0.00000  Uiso   1.00
H1784  H     0.89758   0.66716   0.74443   0.00000  Uiso   1.00
H1785  H     0.76959   0.99969   0.76326   0.00000  Uiso   1.00
H1786  H     0.88021   0.72868   0.62115   0.00000  Uiso   1.00
H1787  H     0.95024   0.71177   0.60323   0.00000  Uiso   1.00
H1788  H     0.92070   0.76756   0.58219   0.00000  Uiso   1.00
N1789  N     0.98344   0.81932   0.73783   0.00000  Uiso   1.00
N1790  N     0.68322   0.84735   0.76217   0.00000  Uiso   1.00
O1791  O     0.79642   0.91286   0.75298   0.00000  Uiso   1.00
O1792  O     0.87025   0.75381   0.74701   0.00000  Uiso   1.00
O1793  O     0.89280   0.90387   0.74518   0.00000  Uiso   1.00
O1794  O     0.77387   0.76279   0.75481   0.00000  Uiso   1.00
O1795  O     0.78514   0.83784   0.81997   0.00000  Uiso   1.00
O1796  O     0.88153   0.82883   0.68002   0.00000  Uiso   1.00
O1797  O     0.88152   0.82885   0.81217   0.00000  Uiso   1.00
O1798  O     0.78515   0.83781   0.68782   0.00000  Uiso   1.00
Zn1799 Zn    0.76898   0.83933   0.75521   0.00000  Uiso   1.00
Zn1800 Zn    0.89769   0.82734   0.74479   0.00000  Uiso   1.00
loop_
_geom_bond_atom_site_label_1
_geom_bond_atom_site_label_2
_geom_bond_distance
_geom_bond_site_symmetry_2
_ccdc_geom_bond_type
C1     O91     1.310   .     A
C1     O93     1.307   .     A
C1     C36     1.414   .     S
C2     C13     1.401   .     A
C2     C4      1.375   .     A
C2     H52     1.073   .     S
C3     C39     1.432   .     S
C3     C40     1.392   .     A
C3     C5      1.380   .     A
C4     C6      1.371   .     A
C4     C38     1.417   .     S
C5     H63     1.081   .     S
C5     C7      1.398   .     A
C6     H74     1.079   .     S
C6     C8      1.390   .     A
C7     C14     1.434   .     A
C7     C9      1.418   .     A
C8     C10     1.411   .     A
C8     C15     1.411   .     A
C9     C11     1.426   .     A
C9     C910    1.381   1_554 S
C10    C13     1.414   .     A
C10    C909    1.381   .     S
C11    C34     1.432   .     A
C11    C40     1.401   .     A
C12    C37     1.419   .     S
C12    O94     1.307   .     A
C12    O92     1.311   .     A
C13    C23     1.424   .     A
C14    C16     1.545   .     S
C14    C923    1.434   1_554 S
C15    C19     1.534   .     S
C15    C934    1.422   .     S
C16    H44     1.111   .     S
C16    H45     1.111   .     S
C16    C317    1.525   .     S
C17    H42     1.104   .     S
C17    H43     1.105   .     S
C17    C18     1.529   .     S
C17    C616    1.525   1_545 S
C18    H86     1.111   .     S
C18    H88     1.110   .     S
C18    H87     1.106   .     S
C19    C20     1.549   .     S
C19    H53     1.095   .     S
C19    H51     1.109   .     S
C20    H50     1.109   .     S
C20    C21     1.533   .     S
C20    H249    1.108   1_455 S
C21    H46     1.107   .     S
C21    H47     1.103   .     S
C21    H248    1.110   1_455 S
C22    H59     1.110   .     S
C22    C24     1.535   .     S
C22    C23     1.527   .     S
C22    H360    1.090   .     S
C23    C914    1.434   .     S
C24    H58     1.108   .     S
C24    C325    1.536   .     S
C24    H357    1.101   .     S
C25    H54     1.108   .     S
C25    C624    1.536   1_545 S
C25    H655    1.106   1_545 S
C25    H656    1.110   1_545 S
C26    H67     1.100   .     S
C26    C34     1.529   .     S
C26    H68     1.107   .     S
C26    C627    1.551   1_545 S
C27    H65     1.112   .     S
C27    H66     1.102   .     S
C27    C28     1.521   .     S
C27    C326    1.551   .     S
C28    H61     1.108   .     S
C28    H64     1.108   .     S
C28    H62     1.109   .     S
C29    H76     1.076   .     S
C29    C230    1.526   1_455 S
C29    H275    1.111   1_455 S
C29    N289    1.446   1_455 S
C30    H73     1.108   .     S
C30    H72     1.112   .     S
C30    C129    1.526   .     S
C30    C131    1.518   .     S
C31    H70     1.104   .     S
C31    H69     1.101   .     S
C31    C230    1.518   1_455 S
C31    H871    1.111   1_445 S
C32    H83     1.076   .     S
C32    C133    1.538   .     S
C32    H182    1.111   .     S
C32    N190    1.458   .     S
C33    C35     1.530   .     S
C33    H81     1.097   .     S
C33    C232    1.538   1_455 S
C33    H280    1.112   1_455 S
C34    C915    1.422   1_554 S
C35    H77     1.110   .     S
C35    H78     1.103   .     S
C35    H79     1.110   .     S
C36    C337    1.326   .     S
C36    H384    1.082   .     S
C37    C636    1.326   1_545 S
C37    H685    1.087   1_545 S
C38    O95     1.309   .     A
C38    O97     1.308   .     A
C39    O98     1.309   .     A
C39    O96     1.316   .     A
C40    H41     1.080   .     S
H48    C121    1.110   .     S
H49    C120    1.108   .     S
H55    C325    1.106   .     S
H56    C325    1.110   .     S
H57    C624    1.101   1_545 S
H60    C622    1.090   1_545 S
H71    C431    1.111   .     S
H75    C129    1.111   .     S
H80    C133    1.112   .     S
H82    C232    1.111   1_455 S
H84    C636    1.082   1_545 S
H85    C337    1.087   .     S
N89    Zn100   2.076   .     S
N89    C129    1.446   .     S
N89    N190    1.277   .     S
N90    Zn99    2.076   .     S
N90    N289    1.277   1_455 S
N90    C232    1.458   1_455 S
O91    Zn99    2.004   .     S
O92    Zn100   2.004   .     S
O93    Zn100   1.995   .     S
O94    Zn99    1.995   .     S
O95    Zn99    1.980   .     S
O96    Zn100   1.980   .     S
O97    Zn100   2.004   .     S
O98    Zn99    2.004   .     S
C101   O191    1.310   .     A
C101   O193    1.307   .     A
C101   C136    1.414   .     S
C102   C113    1.401   .     A
C102   C104    1.375   .     A
C102   H152    1.073   .     S
C103   C139    1.432   .     S
C103   C140    1.392   .     A
C103   C105    1.380   .     A
C104   C106    1.371   .     A
C104   C138    1.417   .     S
C105   H163    1.081   .     S
C105   C107    1.398   .     A
C106   H174    1.079   .     S
C106   C108    1.390   .     A
C107   C114    1.434   .     A
C107   C109    1.418   .     A
C108   C110    1.411   .     A
C108   C115    1.411   .     A
C109   C111    1.426   .     A
C109   C1010   1.381   1_554 S
C110   C113    1.414   .     A
C110   C1009   1.381   .     S
C111   C134    1.432   .     A
C111   C140    1.401   .     A
C112   C137    1.419   .     S
C112   O194    1.307   .     A
C112   O192    1.311   .     A
C113   C123    1.424   .     A
C114   C116    1.545   .     S
C114   C1023   1.434   1_554 S
C115   C119    1.534   .     S
C115   C1034   1.422   .     S
C116   H144    1.111   .     S
C116   H145    1.111   .     S
C116   C417    1.525   .     S
C117   H142    1.104   .     S
C117   H143    1.105   .     S
C117   C118    1.529   .     S
C117   C716    1.525   1_545 S
C118   H186    1.111   .     S
C118   H188    1.110   .     S
C118   H187    1.106   .     S
C119   C120    1.549   .     S
C119   H153    1.095   .     S
C119   H151    1.109   .     S
C120   H150    1.109   .     S
C120   C121    1.533   .     S
C121   H146    1.107   .     S
C121   H147    1.103   .     S
C122   H159    1.110   .     S
C122   C124    1.535   .     S
C122   C123    1.527   .     S
C122   H460    1.090   .     S
C123   C1014   1.434   .     S
C124   H158    1.108   .     S
C124   C425    1.536   .     S
C124   H457    1.101   .     S
C125   H154    1.108   .     S
C125   C724    1.536   1_545 S
C125   H755    1.106   1_545 S
C125   H756    1.110   1_545 S
C126   H167    1.100   .     S
C126   C134    1.529   .     S
C126   H168    1.107   .     S
C126   C727    1.551   1_545 S
C127   H165    1.112   .     S
C127   H166    1.102   .     S
C127   C128    1.521   .     S
C127   C426    1.551   .     S
C128   H161    1.108   .     S
C128   H164    1.108   .     S
C128   H162    1.109   .     S
C129   H176    1.076   .     S
C130   H173    1.108   .     S
C130   H172    1.112   .     S
C130   C229    1.526   .     S
C130   C231    1.518   .     S
C131   H170    1.104   .     S
C131   H169    1.101   .     S
C131   H671    1.111   1_545 S
C132   H183    1.076   .     S
C132   C233    1.538   .     S
C132   H282    1.111   .     S
C132   N290    1.458   .     S
C133   C135    1.530   .     S
C133   H181    1.097   .     S
C134   C1015   1.422   1_554 S
C135   H177    1.110   .     S
C135   H178    1.103   .     S
C135   H179    1.110   .     S
C136   C437    1.326   .     S
C136   H484    1.082   .     S
C137   C736    1.326   1_545 S
C137   H785    1.087   1_545 S
C138   O195    1.309   .     A
C138   O197    1.308   .     A
C139   O198    1.309   .     A
C139   O196    1.316   .     A
C140   H141    1.080   .     S
H148   C221    1.110   .     S
H149   C220    1.108   .     S
H155   C425    1.106   .     S
H156   C425    1.110   .     S
H157   C724    1.101   1_545 S
H160   C722    1.090   1_545 S
H171   C531    1.111   .     S
H175   C229    1.111   .     S
H180   C233    1.112   .     S
H184   C736    1.082   1_545 S
H185   C437    1.087   .     S
N189   Zn200   2.076   .     S
N189   C229    1.446   .     S
N189   N290    1.277   .     S
N190   Zn199   2.076   .     S
O191   Zn199   2.004   .     S
O192   Zn200   2.004   .     S
O193   Zn200   1.995   .     S
O194   Zn199   1.995   .     S
O195   Zn199   1.980   .     S
O196   Zn200   1.980   .     S
O197   Zn200   2.004   .     S
O198   Zn199   2.004   .     S
C201   O291    1.310   .     A
C201   O293    1.307   .     A
C201   C236    1.414   .     S
C202   C213    1.401   .     A
C202   C204    1.375   .     A
C202   H252    1.073   .     S
C203   C239    1.432   .     S
C203   C240    1.392   .     A
C203   C205    1.380   .     A
C204   C206    1.371   .     A
C204   C238    1.417   .     S
C205   H263    1.081   .     S
C205   C207    1.398   .     A
C206   H274    1.079   .     S
C206   C208    1.390   .     A
C207   C214    1.434   .     A
C207   C209    1.418   .     A
C208   C210    1.411   .     A
C208   C215    1.411   .     A
C209   C211    1.426   .     A
C209   C1110   1.381   1_554 S
C210   C213    1.414   .     A
C210   C1109   1.381   .     S
C211   C234    1.432   .     A
C211   C240    1.401   .     A
C212   C237    1.419   .     S
C212   O294    1.307   .     A
C212   O292    1.311   .     A
C213   C223    1.424   .     A
C214   C216    1.545   .     S
C214   C1123   1.434   1_554 S
C215   C219    1.534   .     S
C215   C1134   1.422   .     S
C216   H244    1.111   .     S
C216   H245    1.111   .     S
C216   C517    1.525   .     S
C217   H242    1.104   .     S
C217   H243    1.105   .     S
C217   C218    1.529   .     S
C217   C816    1.525   1_545 S
C218   H286    1.111   .     S
C218   H288    1.110   .     S
C218   H287    1.106   .     S
C219   C220    1.549   .     S
C219   H253    1.095   .     S
C219   H251    1.109   .     S
C220   H250    1.109   .     S
C220   C221    1.533   .     S
C221   H246    1.107   .     S
C221   H247    1.103   .     S
C222   H259    1.110   .     S
C222   C224    1.535   .     S
C222   C223    1.527   .     S
C222   H560    1.090   .     S
C223   C1114   1.434   .     S
C224   H258    1.108   .     S
C224   C525    1.536   .     S
C224   H557    1.101   .     S
C225   H254    1.108   .     S
C225   C824    1.536   1_545 S
C225   H855    1.106   1_545 S
C225   H856    1.110   1_545 S
C226   H267    1.100   .     S
C226   C234    1.529   .     S
C226   H268    1.107   .     S
C226   C827    1.551   1_545 S
C227   H265    1.112   .     S
C227   H266    1.102   .     S
C227   C228    1.521   .     S
C227   C526    1.551   .     S
C228   H261    1.108   .     S
C228   H264    1.108   .     S
C228   H262    1.109   .     S
C229   H276    1.076   .     S
C230   H273    1.108   .     S
C230   H272    1.112   .     S
C230   C29     1.526   1_655 S
C230   C31     1.518   1_655 S
C231   H270    1.104   .     S
C231   H269    1.101   .     S
C231   H771    1.111   1_545 S
C232   H283    1.076   .     S
C232   C33     1.538   1_655 S
C232   H82     1.111   1_655 S
C232   N90     1.458   1_655 S
C233   C235    1.530   .     S
C233   H281    1.097   .     S
C234   C1115   1.422   1_554 S
C235   H277    1.110   .     S
C235   H278    1.103   .     S
C235   H279    1.110   .     S
C236   C537    1.326   .     S
C236   H584    1.082   .     S
C237   C836    1.326   1_545 S
C237   H885    1.087   1_545 S
C238   O295    1.309   .     A
C238   O297    1.308   .     A
C239   O298    1.309   .     A
C239   O296    1.316   .     A
C240   H241    1.080   .     S
H248   C21     1.110   1_655 S
H249   C20     1.108   1_655 S
H255   C525    1.106   .     S
H256   C525    1.110   .     S
H257   C824    1.101   1_545 S
H260   C822    1.090   1_545 S
H271   C331    1.111   1_655 S
H275   C29     1.111   1_655 S
H280   C33     1.112   1_655 S
H284   C836    1.082   1_545 S
H285   C537    1.087   .     S
N289   Zn300   2.076   .     S
N289   C29     1.446   1_655 S
N289   N90     1.277   1_655 S
N290   Zn299   2.076   .     S
O291   Zn299   2.004   .     S
O292   Zn300   2.004   .     S
O293   Zn300   1.995   .     S
O294   Zn299   1.995   .     S
O295   Zn299   1.980   .     S
O296   Zn300   1.980   .     S
O297   Zn300   2.004   .     S
O298   Zn299   2.004   .     S
C301   O391    1.310   .     A
C301   O393    1.307   .     A
C301   C336    1.414   .     S
C302   C313    1.401   .     A
C302   C304    1.375   .     A
C302   H352    1.073   .     S
C303   C339    1.432   .     S
C303   C340    1.392   .     A
C303   C305    1.380   .     A
C304   C306    1.371   .     A
C304   C338    1.417   .     S
C305   H363    1.081   .     S
C305   C307    1.398   .     A
C306   H374    1.079   .     S
C306   C308    1.390   .     A
C307   C314    1.434   .     A
C307   C309    1.418   .     A
C308   C310    1.411   .     A
C308   C315    1.411   .     A
C309   C311    1.426   .     A
C309   C1210   1.381   1_554 S
C310   C313    1.414   .     A
C310   C1209   1.381   .     S
C311   C334    1.432   .     A
C311   C340    1.401   .     A
C312   C337    1.419   .     S
C312   O394    1.307   .     A
C312   O392    1.311   .     A
C313   C323    1.424   .     A
C314   C316    1.545   .     S
C314   C1223   1.434   1_554 S
C315   C319    1.534   .     S
C315   C1234   1.422   .     S
C316   H344    1.111   .     S
C316   H345    1.111   .     S
C316   C617    1.525   .     S
C317   H342    1.104   .     S
C317   H343    1.105   .     S
C317   C318    1.529   .     S
C318   H386    1.111   .     S
C318   H388    1.110   .     S
C318   H387    1.106   .     S
C319   C320    1.549   .     S
C319   H353    1.095   .     S
C319   H351    1.109   .     S
C320   H350    1.109   .     S
C320   C321    1.533   .     S
C320   H549    1.108   1_455 S
C321   H346    1.107   .     S
C321   H347    1.103   .     S
C321   H548    1.110   1_455 S
C322   H359    1.110   .     S
C322   C324    1.535   .     S
C322   C323    1.527   .     S
C322   H660    1.090   .     S
C323   C1214   1.434   .     S
C324   H358    1.108   .     S
C324   C625    1.536   .     S
C324   H657    1.101   .     S
C325   H354    1.108   .     S
C326   H367    1.100   .     S
C326   C334    1.529   .     S
C326   H368    1.107   .     S
C327   H365    1.112   .     S
C327   H366    1.102   .     S
C327   C328    1.521   .     S
C327   C626    1.551   .     S
C328   H361    1.108   .     S
C328   H364    1.108   .     S
C328   H362    1.109   .     S
C329   H376    1.076   .     S
C329   C530    1.526   1_455 S
C329   H575    1.111   1_455 S
C329   N589    1.446   1_455 S
C330   H373    1.108   .     S
C330   H372    1.112   .     S
C330   C429    1.526   .     S
C330   C431    1.518   .     S
C331   H370    1.104   .     S
C331   H369    1.101   .     S
C331   C530    1.518   1_455 S
C331   H271    1.111   1_455 S
C332   H383    1.076   .     S
C332   C433    1.538   .     S
C332   H482    1.111   .     S
C332   N490    1.458   .     S
C333   C335    1.530   .     S
C333   H381    1.097   .     S
C333   C532    1.538   1_455 S
C333   H580    1.112   1_455 S
C334   C1215   1.422   1_554 S
C335   H377    1.110   .     S
C335   H378    1.103   .     S
C335   H379    1.110   .     S
C336   C637    1.326   .     S
C336   H684    1.082   .     S
C338   O395    1.309   .     A
C338   O397    1.308   .     A
C339   O398    1.309   .     A
C339   O396    1.316   .     A
C340   H341    1.080   .     S
H348   C421    1.110   .     S
H349   C420    1.108   .     S
H355   C625    1.106   .     S
H356   C625    1.110   .     S
H371   C731    1.111   .     S
H375   C429    1.111   .     S
H380   C433    1.112   .     S
H382   C532    1.111   1_455 S
H385   C637    1.087   .     S
N389   Zn400   2.076   .     S
N389   C429    1.446   .     S
N389   N490    1.277   .     S
N390   Zn399   2.076   .     S
N390   N589    1.277   1_455 S
N390   C532    1.458   1_455 S
O391   Zn399   2.004   .     S
O392   Zn400   2.004   .     S
O393   Zn400   1.995   .     S
O394   Zn399   1.995   .     S
O395   Zn399   1.980   .     S
O396   Zn400   1.980   .     S
O397   Zn400   2.004   .     S
O398   Zn399   2.004   .     S
C401   O491    1.310   .     A
C401   O493    1.307   .     A
C401   C436    1.414   .     S
C402   C413    1.401   .     A
C402   C404    1.375   .     A
C402   H452    1.073   .     S
C403   C439    1.432   .     S
C403   C440    1.392   .     A
C403   C405    1.380   .     A
C404   C406    1.371   .     A
C404   C438    1.417   .     S
C405   H463    1.081   .     S
C405   C407    1.398   .     A
C406   H474    1.079   .     S
C406   C408    1.390   .     A
C407   C414    1.434   .     A
C407   C409    1.418   .     A
C408   C410    1.411   .     A
C408   C415    1.411   .     A
C409   C411    1.426   .     A
C409   C1310   1.381   1_554 S
C410   C413    1.414   .     A
C410   C1309   1.381   .     S
C411   C434    1.432   .     A
C411   C440    1.401   .     A
C412   C437    1.419   .     S
C412   O494    1.307   .     A
C412   O492    1.311   .     A
C413   C423    1.424   .     A
C414   C416    1.545   .     S
C414   C1323   1.434   1_554 S
C415   C419    1.534   .     S
C415   C1334   1.422   .     S
C416   H444    1.111   .     S
C416   H445    1.111   .     S
C416   C717    1.525   .     S
C417   H442    1.104   .     S
C417   H443    1.105   .     S
C417   C418    1.529   .     S
C418   H486    1.111   .     S
C418   H488    1.110   .     S
C418   H487    1.106   .     S
C419   C420    1.549   .     S
C419   H453    1.095   .     S
C419   H451    1.109   .     S
C420   H450    1.109   .     S
C420   C421    1.533   .     S
C421   H446    1.107   .     S
C421   H447    1.103   .     S
C422   H459    1.110   .     S
C422   C424    1.535   .     S
C422   C423    1.527   .     S
C422   H760    1.090   .     S
C423   C1314   1.434   .     S
C424   H458    1.108   .     S
C424   C725    1.536   .     S
C424   H757    1.101   .     S
C425   H454    1.108   .     S
C426   H467    1.100   .     S
C426   C434    1.529   .     S
C426   H468    1.107   .     S
C427   H465    1.112   .     S
C427   H466    1.102   .     S
C427   C428    1.521   .     S
C427   C726    1.551   .     S
C428   H461    1.108   .     S
C428   H464    1.108   .     S
C428   H462    1.109   .     S
C429   H476    1.076   .     S
C430   H473    1.108   .     S
C430   H472    1.112   .     S
C430   C529    1.526   .     S
C430   C531    1.518   .     S
C431   H470    1.104   .     S
C431   H469    1.101   .     S
C432   H483    1.076   .     S
C432   C533    1.538   .     S
C432   H582    1.111   .     S
C432   N590    1.458   .     S
C433   C435    1.530   .     S
C433   H481    1.097   .     S
C434   C1315   1.422   1_554 S
C435   H477    1.110   .     S
C435   H478    1.103   .     S
C435   H479    1.110   .     S
C436   C737    1.326   .     S
C436   H784    1.082   .     S
C438   O495    1.309   .     A
C438   O497    1.308   .     A
C439   O498    1.309   .     A
C439   O496    1.316   .     A
C440   H441    1.080   .     S
H448   C521    1.110   .     S
H449   C520    1.108   .     S
H455   C725    1.106   .     S
H456   C725    1.110   .     S
H471   C831    1.111   .     S
H475   C529    1.111   .     S
H480   C533    1.112   .     S
H485   C737    1.087   .     S
N489   Zn500   2.076   .     S
N489   C529    1.446   .     S
N489   N590    1.277   .     S
N490   Zn499   2.076   .     S
O491   Zn499   2.004   .     S
O492   Zn500   2.004   .     S
O493   Zn500   1.995   .     S
O494   Zn499   1.995   .     S
O495   Zn499   1.980   .     S
O496   Zn500   1.980   .     S
O497   Zn500   2.004   .     S
O498   Zn499   2.004   .     S
C501   O591    1.310   .     A
C501   O593    1.307   .     A
C501   C536    1.414   .     S
C502   C513    1.401   .     A
C502   C504    1.375   .     A
C502   H552    1.073   .     S
C503   C539    1.432   .     S
C503   C540    1.392   .     A
C503   C505    1.380   .     A
C504   C506    1.371   .     A
C504   C538    1.417   .     S
C505   H563    1.081   .     S
C505   C507    1.398   .     A
C506   H574    1.079   .     S
C506   C508    1.390   .     A
C507   C514    1.434   .     A
C507   C509    1.418   .     A
C508   C510    1.411   .     A
C508   C515    1.411   .     A
C509   C511    1.426   .     A
C509   C1410   1.381   1_554 S
C510   C513    1.414   .     A
C510   C1409   1.381   .     S
C511   C534    1.432   .     A
C511   C540    1.401   .     A
C512   C537    1.419   .     S
C512   O594    1.307   .     A
C512   O592    1.311   .     A
C513   C523    1.424   .     A
C514   C516    1.545   .     S
C514   C1423   1.434   1_554 S
C515   C519    1.534   .     S
C515   C1434   1.422   .     S
C516   H544    1.111   .     S
C516   H545    1.111   .     S
C516   C817    1.525   .     S
C517   H542    1.104   .     S
C517   H543    1.105   .     S
C517   C518    1.529   .     S
C518   H586    1.111   .     S
C518   H588    1.110   .     S
C518   H587    1.106   .     S
C519   C520    1.549   .     S
C519   H553    1.095   .     S
C519   H551    1.109   .     S
C520   H550    1.109   .     S
C520   C521    1.533   .     S
C521   H546    1.107   .     S
C521   H547    1.103   .     S
C522   H559    1.110   .     S
C522   C524    1.535   .     S
C522   C523    1.527   .     S
C522   H860    1.090   .     S
C523   C1414   1.434   .     S
C524   H558    1.108   .     S
C524   C825    1.536   .     S
C524   H857    1.101   .     S
C525   H554    1.108   .     S
C526   H567    1.100   .     S
C526   C534    1.529   .     S
C526   H568    1.107   .     S
C527   H565    1.112   .     S
C527   H566    1.102   .     S
C527   C528    1.521   .     S
C527   C826    1.551   .     S
C528   H561    1.108   .     S
C528   H564    1.108   .     S
C528   H562    1.109   .     S
C529   H576    1.076   .     S
C530   H573    1.108   .     S
C530   H572    1.112   .     S
C530   C329    1.526   1_655 S
C530   C331    1.518   1_655 S
C531   H570    1.104   .     S
C531   H569    1.101   .     S
C532   H583    1.076   .     S
C532   C333    1.538   1_655 S
C532   H382    1.111   1_655 S
C532   N390    1.458   1_655 S
C533   C535    1.530   .     S
C533   H581    1.097   .     S
C534   C1415   1.422   1_554 S
C535   H577    1.110   .     S
C535   H578    1.103   .     S
C535   H579    1.110   .     S
C536   C837    1.326   .     S
C536   H884    1.082   .     S
C538   O595    1.309   .     A
C538   O597    1.308   .     A
C539   O598    1.309   .     A
C539   O596    1.316   .     A
C540   H541    1.080   .     S
H548   C321    1.110   1_655 S
H549   C320    1.108   1_655 S
H555   C825    1.106   .     S
H556   C825    1.110   .     S
H571   C631    1.111   1_655 S
H575   C329    1.111   1_655 S
H580   C333    1.112   1_655 S
H585   C837    1.087   .     S
N589   Zn600   2.076   .     S
N589   C329    1.446   1_655 S
N589   N390    1.277   1_655 S
N590   Zn599   2.076   .     S
O591   Zn599   2.004   .     S
O592   Zn600   2.004   .     S
O593   Zn600   1.995   .     S
O594   Zn599   1.995   .     S
O595   Zn599   1.980   .     S
O596   Zn600   1.980   .     S
O597   Zn600   2.004   .     S
O598   Zn599   2.004   .     S
C601   O691    1.310   .     A
C601   O693    1.307   .     A
C601   C636    1.414   .     S
C602   C613    1.401   .     A
C602   C604    1.375   .     A
C602   H652    1.073   .     S
C603   C639    1.432   .     S
C603   C640    1.392   .     A
C603   C605    1.380   .     A
C604   C606    1.371   .     A
C604   C638    1.417   .     S
C605   H663    1.081   .     S
C605   C607    1.398   .     A
C606   H674    1.079   .     S
C606   C608    1.390   .     A
C607   C614    1.434   .     A
C607   C609    1.418   .     A
C608   C610    1.411   .     A
C608   C615    1.411   .     A
C609   C611    1.426   .     A
C609   C1510   1.381   1_554 S
C610   C613    1.414   .     A
C610   C1509   1.381   .     S
C611   C634    1.432   .     A
C611   C640    1.401   .     A
C612   C637    1.419   .     S
C612   O694    1.307   .     A
C612   O692    1.311   .     A
C613   C623    1.424   .     A
C614   C616    1.545   .     S
C614   C1523   1.434   1_554 S
C615   C619    1.534   .     S
C615   C1534   1.422   .     S
C616   H644    1.111   .     S
C616   H645    1.111   .     S
C616   C17     1.525   1_565 S
C617   H642    1.104   .     S
C617   H643    1.105   .     S
C617   C618    1.529   .     S
C618   H686    1.111   .     S
C618   H688    1.110   .     S
C618   H687    1.106   .     S
C619   C620    1.549   .     S
C619   H653    1.095   .     S
C619   H651    1.109   .     S
C620   H650    1.109   .     S
C620   C621    1.533   .     S
C620   H849    1.108   1_455 S
C621   H646    1.107   .     S
C621   H647    1.103   .     S
C621   H848    1.110   1_455 S
C622   H659    1.110   .     S
C622   C624    1.535   .     S
C622   C623    1.527   .     S
C622   H60     1.090   1_565 S
C623   C1514   1.434   .     S
C624   H658    1.108   .     S
C624   C25     1.536   1_565 S
C624   H57     1.101   1_565 S
C625   H654    1.108   .     S
C626   H667    1.100   .     S
C626   C634    1.529   .     S
C626   H668    1.107   .     S
C627   H665    1.112   .     S
C627   H666    1.102   .     S
C627   C628    1.521   .     S
C627   C26     1.551   1_565 S
C628   H661    1.108   .     S
C628   H664    1.108   .     S
C628   H662    1.109   .     S
C629   H676    1.076   .     S
C629   C830    1.526   1_455 S
C629   H875    1.111   1_455 S
C629   N889    1.446   1_455 S
C630   H673    1.108   .     S
C630   H672    1.112   .     S
C630   C729    1.526   .     S
C630   C731    1.518   .     S
C631   H670    1.104   .     S
C631   H669    1.101   .     S
C631   C830    1.518   1_455 S
C631   H571    1.111   1_455 S
C632   H683    1.076   .     S
C632   C733    1.538   .     S
C632   H782    1.111   .     S
C632   N790    1.458   .     S
C633   C635    1.530   .     S
C633   H681    1.097   .     S
C633   C832    1.538   1_455 S
C633   H880    1.112   1_455 S
C634   C1515   1.422   1_554 S
C635   H677    1.110   .     S
C635   H678    1.103   .     S
C635   H679    1.110   .     S
C636   C37     1.326   1_565 S
C636   H84     1.082   1_565 S
C638   O695    1.309   .     A
C638   O697    1.308   .     A
C639   O698    1.309   .     A
C639   O696    1.316   .     A
C640   H641    1.080   .     S
H648   C721    1.110   .     S
H649   C720    1.108   .     S
H655   C25     1.106   1_565 S
H656   C25     1.110   1_565 S
H671   C131    1.111   1_565 S
H675   C729    1.111   .     S
H680   C733    1.112   .     S
H682   C832    1.111   1_455 S
H685   C37     1.087   1_565 S
N689   Zn700   2.076   .     S
N689   C729    1.446   .     S
N689   N790    1.277   .     S
N690   Zn699   2.076   .     S
N690   N889    1.277   1_455 S
N690   C832    1.458   1_455 S
O691   Zn699   2.004   .     S
O692   Zn700   2.004   .     S
O693   Zn700   1.995   .     S
O694   Zn699   1.995   .     S
O695   Zn699   1.980   .     S
O696   Zn700   1.980   .     S
O697   Zn700   2.004   .     S
O698   Zn699   2.004   .     S
C701   O791    1.310   .     A
C701   O793    1.307   .     A
C701   C736    1.414   .     S
C702   C713    1.401   .     A
C702   C704    1.375   .     A
C702   H752    1.073   .     S
C703   C739    1.432   .     S
C703   C740    1.392   .     A
C703   C705    1.380   .     A
C704   C706    1.371   .     A
C704   C738    1.417   .     S
C705   H763    1.081   .     S
C705   C707    1.398   .     A
C706   H774    1.079   .     S
C706   C708    1.390   .     A
C707   C714    1.434   .     A
C707   C709    1.418   .     A
C708   C710    1.411   .     A
C708   C715    1.411   .     A
C709   C711    1.426   .     A
C709   C1610   1.381   1_554 S
C710   C713    1.414   .     A
C710   C1609   1.381   .     S
C711   C734    1.432   .     A
C711   C740    1.401   .     A
C712   C737    1.419   .     S
C712   O794    1.307   .     A
C712   O792    1.311   .     A
C713   C723    1.424   .     A
C714   C716    1.545   .     S
C714   C1623   1.434   1_554 S
C715   C719    1.534   .     S
C715   C1634   1.422   .     S
C716   H744    1.111   .     S
C716   H745    1.111   .     S
C716   C117    1.525   1_565 S
C717   H742    1.104   .     S
C717   H743    1.105   .     S
C717   C718    1.529   .     S
C718   H786    1.111   .     S
C718   H788    1.110   .     S
C718   H787    1.106   .     S
C719   C720    1.549   .     S
C719   H753    1.095   .     S
C719   H751    1.109   .     S
C720   H750    1.109   .     S
C720   C721    1.533   .     S
C721   H746    1.107   .     S
C721   H747    1.103   .     S
C722   H759    1.110   .     S
C722   C724    1.535   .     S
C722   C723    1.527   .     S
C722   H160    1.090   1_565 S
C723   C1614   1.434   .     S
C724   H758    1.108   .     S
C724   C125    1.536   1_565 S
C724   H157    1.101   1_565 S
C725   H754    1.108   .     S
C726   H767    1.100   .     S
C726   C734    1.529   .     S
C726   H768    1.107   .     S
C727   H765    1.112   .     S
C727   H766    1.102   .     S
C727   C728    1.521   .     S
C727   C126    1.551   1_565 S
C728   H761    1.108   .     S
C728   H764    1.108   .     S
C728   H762    1.109   .     S
C729   H776    1.076   .     S
C730   H773    1.108   .     S
C730   H772    1.112   .     S
C730   C829    1.526   .     S
C730   C831    1.518   .     S
C731   H770    1.104   .     S
C731   H769    1.101   .     S
C732   H783    1.076   .     S
C732   C833    1.538   .     S
C732   H882    1.111   .     S
C732   N890    1.458   .     S
C733   C735    1.530   .     S
C733   H781    1.097   .     S
C734   C1615   1.422   1_554 S
C735   H777    1.110   .     S
C735   H778    1.103   .     S
C735   H779    1.110   .     S
C736   C137    1.326   1_565 S
C736   H184    1.082   1_565 S
C738   O795    1.309   .     A
C738   O797    1.308   .     A
C739   O798    1.309   .     A
C739   O796    1.316   .     A
C740   H741    1.080   .     S
H748   C821    1.110   .     S
H749   C820    1.108   .     S
H755   C125    1.106   1_565 S
H756   C125    1.110   1_565 S
H771   C231    1.111   1_565 S
H775   C829    1.111   .     S
H780   C833    1.112   .     S
H785   C137    1.087   1_565 S
N789   Zn800   2.076   .     S
N789   C829    1.446   .     S
N789   N890    1.277   .     S
N790   Zn799   2.076   .     S
O791   Zn799   2.004   .     S
O792   Zn800   2.004   .     S
O793   Zn800   1.995   .     S
O794   Zn799   1.995   .     S
O795   Zn799   1.980   .     S
O796   Zn800   1.980   .     S
O797   Zn800   2.004   .     S
O798   Zn799   2.004   .     S
C801   O891    1.310   .     A
C801   O893    1.307   .     A
C801   C836    1.414   .     S
C802   C813    1.401   .     A
C802   C804    1.375   .     A
C802   H852    1.073   .     S
C803   C839    1.432   .     S
C803   C840    1.392   .     A
C803   C805    1.380   .     A
C804   C806    1.371   .     A
C804   C838    1.417   .     S
C805   H863    1.081   .     S
C805   C807    1.398   .     A
C806   H874    1.079   .     S
C806   C808    1.390   .     A
C807   C814    1.434   .     A
C807   C809    1.418   .     A
C808   C810    1.411   .     A
C808   C815    1.411   .     A
C809   C811    1.426   .     A
C809   C1710   1.381   1_554 S
C810   C813    1.414   .     A
C810   C1709   1.381   .     S
C811   C834    1.432   .     A
C811   C840    1.401   .     A
C812   C837    1.419   .     S
C812   O894    1.307   .     A
C812   O892    1.311   .     A
C813   C823    1.424   .     A
C814   C816    1.545   .     S
C814   C1723   1.434   1_554 S
C815   C819    1.534   .     S
C815   C1734   1.422   .     S
C816   H844    1.111   .     S
C816   H845    1.111   .     S
C816   C217    1.525   1_565 S
C817   H842    1.104   .     S
C817   H843    1.105   .     S
C817   C818    1.529   .     S
C818   H886    1.111   .     S
C818   H888    1.110   .     S
C818   H887    1.106   .     S
C819   C820    1.549   .     S
C819   H853    1.095   .     S
C819   H851    1.109   .     S
C820   H850    1.109   .     S
C820   C821    1.533   .     S
C821   H846    1.107   .     S
C821   H847    1.103   .     S
C822   H859    1.110   .     S
C822   C824    1.535   .     S
C822   C823    1.527   .     S
C822   H260    1.090   1_565 S
C823   C1714   1.434   .     S
C824   H858    1.108   .     S
C824   C225    1.536   1_565 S
C824   H257    1.101   1_565 S
C825   H854    1.108   .     S
C826   H867    1.100   .     S
C826   C834    1.529   .     S
C826   H868    1.107   .     S
C827   H865    1.112   .     S
C827   H866    1.102   .     S
C827   C828    1.521   .     S
C827   C226    1.551   1_565 S
C828   H861    1.108   .     S
C828   H864    1.108   .     S
C828   H862    1.109   .     S
C829   H876    1.076   .     S
C830   H873    1.108   .     S
C830   H872    1.112   .     S
C830   C629    1.526   1_655 S
C830   C631    1.518   1_655 S
C831   H870    1.104   .     S
C831   H869    1.101   .     S
C832   H883    1.076   .     S
C832   C633    1.538   1_655 S
C832   H682    1.111   1_655 S
C832   N690    1.458   1_655 S
C833   C835    1.530   .     S
C833   H881    1.097   .     S
C834   C1715   1.422   1_554 S
C835   H877    1.110   .     S
C835   H878    1.103   .     S
C835   H879    1.110   .     S
C836   C237    1.326   1_565 S
C836   H284    1.082   1_565 S
C838   O895    1.309   .     A
C838   O897    1.308   .     A
C839   O898    1.309   .     A
C839   O896    1.316   .     A
C840   H841    1.080   .     S
H848   C621    1.110   1_655 S
H849   C620    1.108   1_655 S
H855   C225    1.106   1_565 S
H856   C225    1.110   1_565 S
H871   C31     1.111   1_665 S
H875   C629    1.111   1_655 S
H880   C633    1.112   1_655 S
H885   C237    1.087   1_565 S
N889   Zn900   2.076   .     S
N889   C629    1.446   1_655 S
N889   N690    1.277   1_655 S
N890   Zn899   2.076   .     S
O891   Zn899   2.004   .     S
O892   Zn900   2.004   .     S
O893   Zn900   1.995   .     S
O894   Zn899   1.995   .     S
O895   Zn899   1.980   .     S
O896   Zn900   1.980   .     S
O897   Zn900   2.004   .     S
O898   Zn899   2.004   .     S
C901   O991    1.310   .     A
C901   O993    1.307   .     A
C901   C936    1.414   .     S
C902   C913    1.401   .     A
C902   C904    1.375   .     A
C902   H952    1.073   .     S
C903   C939    1.432   .     S
C903   C940    1.392   .     A
C903   C905    1.380   .     A
C904   C906    1.371   .     A
C904   C938    1.417   .     S
C905   H963    1.081   .     S
C905   C907    1.398   .     A
C906   H974    1.079   .     S
C906   C908    1.390   .     A
C907   C914    1.434   .     A
C907   C909    1.418   .     A
C908   C910    1.411   .     A
C908   C915    1.411   .     A
C909   C911    1.426   .     A
C910   C913    1.414   .     A
C910   C9      1.381   1_556 S
C911   C934    1.432   .     A
C911   C940    1.401   .     A
C912   C937    1.419   .     S
C912   O994    1.307   .     A
C912   O992    1.311   .     A
C913   C923    1.424   .     A
C914   C916    1.545   .     S
C915   C919    1.534   .     S
C915   C34     1.422   1_556 S
C916   H944    1.111   .     S
C916   H945    1.111   .     S
C916   C1217   1.525   .     S
C917   H942    1.104   .     S
C917   H943    1.105   .     S
C917   C918    1.529   .     S
C917   C1516   1.525   1_545 S
C918   H986    1.111   .     S
C918   H988    1.110   .     S
C918   H987    1.106   .     S
C919   C920    1.549   .     S
C919   H953    1.095   .     S
C919   H951    1.109   .     S
C920   H950    1.109   .     S
C920   C921    1.533   .     S
C920   H1149   1.108   1_455 S
C921   H946    1.107   .     S
C921   H947    1.103   .     S
C921   H1148   1.110   1_455 S
C922   H959    1.110   .     S
C922   C924    1.535   .     S
C922   C923    1.527   .     S
C922   H1260   1.090   .     S
C923   C14     1.434   1_556 S
C924   H958    1.108   .     S
C924   C1225   1.536   .     S
C924   H1257   1.101   .     S
C925   H954    1.108   .     S
C925   C1524   1.536   1_545 S
C925   H1555   1.106   1_545 S
C925   H1556   1.110   1_545 S
C926   H967    1.100   .     S
C926   C934    1.529   .     S
C926   H968    1.107   .     S
C926   C1527   1.551   1_545 S
C927   H965    1.112   .     S
C927   H966    1.102   .     S
C927   C928    1.521   .     S
C927   C1226   1.551   .     S
C928   H961    1.108   .     S
C928   H964    1.108   .     S
C928   H962    1.109   .     S
C929   H976    1.076   .     S
C929   C1130   1.526   1_455 S
C929   H1175   1.111   1_455 S
C929   N1189   1.446   1_455 S
C930   H973    1.108   .     S
C930   H972    1.112   .     S
C930   C1029   1.526   .     S
C930   C1031   1.518   .     S
C931   H970    1.104   .     S
C931   H969    1.101   .     S
C931   C1130   1.518   1_455 S
C931   H1771   1.111   1_445 S
C932   H983    1.076   .     S
C932   C1033   1.538   .     S
C932   H1082   1.111   .     S
C932   N1090   1.458   .     S
C933   C935    1.530   .     S
C933   H981    1.097   .     S
C933   C1132   1.538   1_455 S
C933   H1180   1.112   1_455 S
C935   H977    1.110   .     S
C935   H978    1.103   .     S
C935   H979    1.110   .     S
C936   C1237   1.326   .     S
C936   H1284   1.082   .     S
C937   C1536   1.326   1_545 S
C937   H1585   1.087   1_545 S
C938   O995    1.309   .     A
C938   O997    1.308   .     A
C939   O998    1.309   .     A
C939   O996    1.316   .     A
C940   H941    1.080   .     S
H948   C1021   1.110   .     S
H949   C1020   1.108   .     S
H955   C1225   1.106   .     S
H956   C1225   1.110   .     S
H957   C1524   1.101   1_545 S
H960   C1522   1.090   1_545 S
H971   C1331   1.111   .     S
H975   C1029   1.111   .     S
H980   C1033   1.112   .     S
H982   C1132   1.111   1_455 S
H984   C1536   1.082   1_545 S
H985   C1237   1.087   .     S
N989   Zn1000  2.076   .     S
N989   C1029   1.446   .     S
N989   N1090   1.277   .     S
N990   Zn999   2.076   .     S
N990   N1189   1.277   1_455 S
N990   C1132   1.458   1_455 S
O991   Zn999   2.004   .     S
O992   Zn1000  2.004   .     S
O993   Zn1000  1.995   .     S
O994   Zn999   1.995   .     S
O995   Zn999   1.980   .     S
O996   Zn1000  1.980   .     S
O997   Zn1000  2.004   .     S
O998   Zn999   2.004   .     S
C1001  O1091   1.310   .     A
C1001  O1093   1.307   .     A
C1001  C1036   1.414   .     S
C1002  C1013   1.401   .     A
C1002  C1004   1.375   .     A
C1002  H1052   1.073   .     S
C1003  C1039   1.432   .     S
C1003  C1040   1.392   .     A
C1003  C1005   1.380   .     A
C1004  C1006   1.371   .     A
C1004  C1038   1.417   .     S
C1005  H1063   1.081   .     S
C1005  C1007   1.398   .     A
C1006  H1074   1.079   .     S
C1006  C1008   1.390   .     A
C1007  C1014   1.434   .     A
C1007  C1009   1.418   .     A
C1008  C1010   1.411   .     A
C1008  C1015   1.411   .     A
C1009  C1011   1.426   .     A
C1010  C1013   1.414   .     A
C1010  C109    1.381   1_556 S
C1011  C1034   1.432   .     A
C1011  C1040   1.401   .     A
C1012  C1037   1.419   .     S
C1012  O1094   1.307   .     A
C1012  O1092   1.311   .     A
C1013  C1023   1.424   .     A
C1014  C1016   1.545   .     S
C1015  C1019   1.534   .     S
C1015  C134    1.422   1_556 S
C1016  H1044   1.111   .     S
C1016  H1045   1.111   .     S
C1016  C1317   1.525   .     S
C1017  H1042   1.104   .     S
C1017  H1043   1.105   .     S
C1017  C1018   1.529   .     S
C1017  C1616   1.525   1_545 S
C1018  H1086   1.111   .     S
C1018  H1088   1.110   .     S
C1018  H1087   1.106   .     S
C1019  C1020   1.549   .     S
C1019  H1053   1.095   .     S
C1019  H1051   1.109   .     S
C1020  H1050   1.109   .     S
C1020  C1021   1.533   .     S
C1021  H1046   1.107   .     S
C1021  H1047   1.103   .     S
C1022  H1059   1.110   .     S
C1022  C1024   1.535   .     S
C1022  C1023   1.527   .     S
C1022  H1360   1.090   .     S
C1023  C114    1.434   1_556 S
C1024  H1058   1.108   .     S
C1024  C1325   1.536   .     S
C1024  H1357   1.101   .     S
C1025  H1054   1.108   .     S
C1025  C1624   1.536   1_545 S
C1025  H1655   1.106   1_545 S
C1025  H1656   1.110   1_545 S
C1026  H1067   1.100   .     S
C1026  C1034   1.529   .     S
C1026  H1068   1.107   .     S
C1026  C1627   1.551   1_545 S
C1027  H1065   1.112   .     S
C1027  H1066   1.102   .     S
C1027  C1028   1.521   .     S
C1027  C1326   1.551   .     S
C1028  H1061   1.108   .     S
C1028  H1064   1.108   .     S
C1028  H1062   1.109   .     S
C1029  H1076   1.076   .     S
C1030  H1073   1.108   .     S
C1030  H1072   1.112   .     S
C1030  C1129   1.526   .     S
C1030  C1131   1.518   .     S
C1031  H1070   1.104   .     S
C1031  H1069   1.101   .     S
C1031  H1571   1.111   1_545 S
C1032  H1083   1.076   .     S
C1032  C1133   1.538   .     S
C1032  H1182   1.111   .     S
C1032  N1190   1.458   .     S
C1033  C1035   1.530   .     S
C1033  H1081   1.097   .     S
C1035  H1077   1.110   .     S
C1035  H1078   1.103   .     S
C1035  H1079   1.110   .     S
C1036  C1337   1.326   .     S
C1036  H1384   1.082   .     S
C1037  C1636   1.326   1_545 S
C1037  H1685   1.087   1_545 S
C1038  O1095   1.309   .     A
C1038  O1097   1.308   .     A
C1039  O1098   1.309   .     A
C1039  O1096   1.316   .     A
C1040  H1041   1.080   .     S
H1048  C1121   1.110   .     S
H1049  C1120   1.108   .     S
H1055  C1325   1.106   .     S
H1056  C1325   1.110   .     S
H1057  C1624   1.101   1_545 S
H1060  C1622   1.090   1_545 S
H1071  C1431   1.111   .     S
H1075  C1129   1.111   .     S
H1080  C1133   1.112   .     S
H1084  C1636   1.082   1_545 S
H1085  C1337   1.087   .     S
N1089  Zn1100  2.076   .     S
N1089  C1129   1.446   .     S
N1089  N1190   1.277   .     S
N1090  Zn1099  2.076   .     S
O1091  Zn1099  2.004   .     S
O1092  Zn1100  2.004   .     S
O1093  Zn1100  1.995   .     S
O1094  Zn1099  1.995   .     S
O1095  Zn1099  1.980   .     S
O1096  Zn1100  1.980   .     S
O1097  Zn1100  2.004   .     S
O1098  Zn1099  2.004   .     S
C1101  O1191   1.310   .     A
C1101  O1193   1.307   .     A
C1101  C1136   1.414   .     S
C1102  C1113   1.401   .     A
C1102  C1104   1.375   .     A
C1102  H1152   1.073   .     S
C1103  C1139   1.432   .     S
C1103  C1140   1.392   .     A
C1103  C1105   1.380   .     A
C1104  C1106   1.371   .     A
C1104  C1138   1.417   .     S
C1105  H1163   1.081   .     S
C1105  C1107   1.398   .     A
C1106  H1174   1.079   .     S
C1106  C1108   1.390   .     A
C1107  C1114   1.434   .     A
C1107  C1109   1.418   .     A
C1108  C1110   1.411   .     A
C1108  C1115   1.411   .     A
C1109  C1111   1.426   .     A
C1110  C1113   1.414   .     A
C1110  C209    1.381   1_556 S
C1111  C1134   1.432   .     A
C1111  C1140   1.401   .     A
C1112  C1137   1.419   .     S
C1112  O1194   1.307   .     A
C1112  O1192   1.311   .     A
C1113  C1123   1.424   .     A
C1114  C1116   1.545   .     S
C1115  C1119   1.534   .     S
C1115  C234    1.422   1_556 S
C1116  H1144   1.111   .     S
C1116  H1145   1.111   .     S
C1116  C1417   1.525   .     S
C1117  H1142   1.104   .     S
C1117  H1143   1.105   .     S
C1117  C1118   1.529   .     S
C1117  C1716   1.525   1_545 S
C1118  H1186   1.111   .     S
C1118  H1188   1.110   .     S
C1118  H1187   1.106   .     S
C1119  C1120   1.549   .     S
C1119  H1153   1.095   .     S
C1119  H1151   1.109   .     S
C1120  H1150   1.109   .     S
C1120  C1121   1.533   .     S
C1121  H1146   1.107   .     S
C1121  H1147   1.103   .     S
C1122  H1159   1.110   .     S
C1122  C1124   1.535   .     S
C1122  C1123   1.527   .     S
C1122  H1460   1.090   .     S
C1123  C214    1.434   1_556 S
C1124  H1158   1.108   .     S
C1124  C1425   1.536   .     S
C1124  H1457   1.101   .     S
C1125  H1154   1.108   .     S
C1125  C1724   1.536   1_545 S
C1125  H1755   1.106   1_545 S
C1125  H1756   1.110   1_545 S
C1126  H1167   1.100   .     S
C1126  C1134   1.529   .     S
C1126  H1168   1.107   .     S
C1126  C1727   1.551   1_545 S
C1127  H1165   1.112   .     S
C1127  H1166   1.102   .     S
C1127  C1128   1.521   .     S
C1127  C1426   1.551   .     S
C1128  H1161   1.108   .     S
C1128  H1164   1.108   .     S
C1128  H1162   1.109   .     S
C1129  H1176   1.076   .     S
C1130  H1173   1.108   .     S
C1130  H1172   1.112   .     S
C1130  C929    1.526   1_655 S
C1130  C931    1.518   1_655 S
C1131  H1170   1.104   .     S
C1131  H1169   1.101   .     S
C1131  H1671   1.111   1_545 S
C1132  H1183   1.076   .     S
C1132  C933    1.538   1_655 S
C1132  H982    1.111   1_655 S
C1132  N990    1.458   1_655 S
C1133  C1135   1.530   .     S
C1133  H1181   1.097   .     S
C1135  H1177   1.110   .     S
C1135  H1178   1.103   .     S
C1135  H1179   1.110   .     S
C1136  C1437   1.326   .     S
C1136  H1484   1.082   .     S
C1137  C1736   1.326   1_545 S
C1137  H1785   1.087   1_545 S
C1138  O1195   1.309   .     A
C1138  O1197   1.308   .     A
C1139  O1198   1.309   .     A
C1139  O1196   1.316   .     A
C1140  H1141   1.080   .     S
H1148  C921    1.110   1_655 S
H1149  C920    1.108   1_655 S
H1155  C1425   1.106   .     S
H1156  C1425   1.110   .     S
H1157  C1724   1.101   1_545 S
H1160  C1722   1.090   1_545 S
H1171  C1231   1.111   1_655 S
H1175  C929    1.111   1_655 S
H1180  C933    1.112   1_655 S
H1184  C1736   1.082   1_545 S
H1185  C1437   1.087   .     S
N1189  Zn1200  2.076   .     S
N1189  C929    1.446   1_655 S
N1189  N990    1.277   1_655 S
N1190  Zn1199  2.076   .     S
O1191  Zn1199  2.004   .     S
O1192  Zn1200  2.004   .     S
O1193  Zn1200  1.995   .     S
O1194  Zn1199  1.995   .     S
O1195  Zn1199  1.980   .     S
O1196  Zn1200  1.980   .     S
O1197  Zn1200  2.004   .     S
O1198  Zn1199  2.004   .     S
C1201  O1291   1.310   .     A
C1201  O1293   1.307   .     A
C1201  C1236   1.414   .     S
C1202  C1213   1.401   .     A
C1202  C1204   1.375   .     A
C1202  H1252   1.073   .     S
C1203  C1239   1.432   .     S
C1203  C1240   1.392   .     A
C1203  C1205   1.380   .     A
C1204  C1206   1.371   .     A
C1204  C1238   1.417   .     S
C1205  H1263   1.081   .     S
C1205  C1207   1.398   .     A
C1206  H1274   1.079   .     S
C1206  C1208   1.390   .     A
C1207  C1214   1.434   .     A
C1207  C1209   1.418   .     A
C1208  C1210   1.411   .     A
C1208  C1215   1.411   .     A
C1209  C1211   1.426   .     A
C1210  C1213   1.414   .     A
C1210  C309    1.381   1_556 S
C1211  C1234   1.432   .     A
C1211  C1240   1.401   .     A
C1212  C1237   1.419   .     S
C1212  O1294   1.307   .     A
C1212  O1292   1.311   .     A
C1213  C1223   1.424   .     A
C1214  C1216   1.545   .     S
C1215  C1219   1.534   .     S
C1215  C334    1.422   1_556 S
C1216  H1244   1.111   .     S
C1216  H1245   1.111   .     S
C1216  C1517   1.525   .     S
C1217  H1242   1.104   .     S
C1217  H1243   1.105   .     S
C1217  C1218   1.529   .     S
C1218  H1286   1.111   .     S
C1218  H1288   1.110   .     S
C1218  H1287   1.106   .     S
C1219  C1220   1.549   .     S
C1219  H1253   1.095   .     S
C1219  H1251   1.109   .     S
C1220  H1250   1.109   .     S
C1220  C1221   1.533   .     S
C1220  H1449   1.108   1_455 S
C1221  H1246   1.107   .     S
C1221  H1247   1.103   .     S
C1221  H1448   1.110   1_455 S
C1222  H1259   1.110   .     S
C1222  C1224   1.535   .     S
C1222  C1223   1.527   .     S
C1222  H1560   1.090   .     S
C1223  C314    1.434   1_556 S
C1224  H1258   1.108   .     S
C1224  C1525   1.536   .     S
C1224  H1557   1.101   .     S
C1225  H1254   1.108   .     S
C1226  H1267   1.100   .     S
C1226  C1234   1.529   .     S
C1226  H1268   1.107   .     S
C1227  H1265   1.112   .     S
C1227  H1266   1.102   .     S
C1227  C1228   1.521   .     S
C1227  C1526   1.551   .     S
C1228  H1261   1.108   .     S
C1228  H1264   1.108   .     S
C1228  H1262   1.109   .     S
C1229  H1276   1.076   .     S
C1229  C1430   1.526   1_455 S
C1229  H1475   1.111   1_455 S
C1229  N1489   1.446   1_455 S
C1230  H1273   1.108   .     S
C1230  H1272   1.112   .     S
C1230  C1329   1.526   .     S
C1230  C1331   1.518   .     S
C1231  H1270   1.104   .     S
C1231  H1269   1.101   .     S
C1231  C1430   1.518   1_455 S
C1231  H1171   1.111   1_455 S
C1232  H1283   1.076   .     S
C1232  C1333   1.538   .     S
C1232  H1382   1.111   .     S
C1232  N1390   1.458   .     S
C1233  C1235   1.530   .     S
C1233  H1281   1.097   .     S
C1233  C1432   1.538   1_455 S
C1233  H1480   1.112   1_455 S
C1235  H1277   1.110   .     S
C1235  H1278   1.103   .     S
C1235  H1279   1.110   .     S
C1236  C1537   1.326   .     S
C1236  H1584   1.082   .     S
C1238  O1295   1.309   .     A
C1238  O1297   1.308   .     A
C1239  O1298   1.309   .     A
C1239  O1296   1.316   .     A
C1240  H1241   1.080   .     S
H1248  C1321   1.110   .     S
H1249  C1320   1.108   .     S
H1255  C1525   1.106   .     S
H1256  C1525   1.110   .     S
H1271  C1631   1.111   .     S
H1275  C1329   1.111   .     S
H1280  C1333   1.112   .     S
H1282  C1432   1.111   1_455 S
H1285  C1537   1.087   .     S
N1289  Zn1300  2.076   .     S
N1289  C1329   1.446   .     S
N1289  N1390   1.277   .     S
N1290  Zn1299  2.076   .     S
N1290  N1489   1.277   1_455 S
N1290  C1432   1.458   1_455 S
O1291  Zn1299  2.004   .     S
O1292  Zn1300  2.004   .     S
O1293  Zn1300  1.995   .     S
O1294  Zn1299  1.995   .     S
O1295  Zn1299  1.980   .     S
O1296  Zn1300  1.980   .     S
O1297  Zn1300  2.004   .     S
O1298  Zn1299  2.004   .     S
C1301  O1391   1.310   .     A
C1301  O1393   1.307   .     A
C1301  C1336   1.414   .     S
C1302  C1313   1.401   .     A
C1302  C1304   1.375   .     A
C1302  H1352   1.073   .     S
C1303  C1339   1.432   .     S
C1303  C1340   1.392   .     A
C1303  C1305   1.380   .     A
C1304  C1306   1.371   .     A
C1304  C1338   1.417   .     S
C1305  H1363   1.081   .     S
C1305  C1307   1.398   .     A
C1306  H1374   1.079   .     S
C1306  C1308   1.390   .     A
C1307  C1314   1.434   .     A
C1307  C1309   1.418   .     A
C1308  C1310   1.411   .     A
C1308  C1315   1.411   .     A
C1309  C1311   1.426   .     A
C1310  C1313   1.414   .     A
C1310  C409    1.381   1_556 S
C1311  C1334   1.432   .     A
C1311  C1340   1.401   .     A
C1312  C1337   1.419   .     S
C1312  O1394   1.307   .     A
C1312  O1392   1.311   .     A
C1313  C1323   1.424   .     A
C1314  C1316   1.545   .     S
C1315  C1319   1.534   .     S
C1315  C434    1.422   1_556 S
C1316  H1344   1.111   .     S
C1316  H1345   1.111   .     S
C1316  C1617   1.525   .     S
C1317  H1342   1.104   .     S
C1317  H1343   1.105   .     S
C1317  C1318   1.529   .     S
C1318  H1386   1.111   .     S
C1318  H1388   1.110   .     S
C1318  H1387   1.106   .     S
C1319  C1320   1.549   .     S
C1319  H1353   1.095   .     S
C1319  H1351   1.109   .     S
C1320  H1350   1.109   .     S
C1320  C1321   1.533   .     S
C1321  H1346   1.107   .     S
C1321  H1347   1.103   .     S
C1322  H1359   1.110   .     S
C1322  C1324   1.535   .     S
C1322  C1323   1.527   .     S
C1322  H1660   1.090   .     S
C1323  C414    1.434   1_556 S
C1324  H1358   1.108   .     S
C1324  C1625   1.536   .     S
C1324  H1657   1.101   .     S
C1325  H1354   1.108   .     S
C1326  H1367   1.100   .     S
C1326  C1334   1.529   .     S
C1326  H1368   1.107   .     S
C1327  H1365   1.112   .     S
C1327  H1366   1.102   .     S
C1327  C1328   1.521   .     S
C1327  C1626   1.551   .     S
C1328  H1361   1.108   .     S
C1328  H1364   1.108   .     S
C1328  H1362   1.109   .     S
C1329  H1376   1.076   .     S
C1330  H1373   1.108   .     S
C1330  H1372   1.112   .     S
C1330  C1429   1.526   .     S
C1330  C1431   1.518   .     S
C1331  H1370   1.104   .     S
C1331  H1369   1.101   .     S
C1332  H1383   1.076   .     S
C1332  C1433   1.538   .     S
C1332  H1482   1.111   .     S
C1332  N1490   1.458   .     S
C1333  C1335   1.530   .     S
C1333  H1381   1.097   .     S
C1335  H1377   1.110   .     S
C1335  H1378   1.103   .     S
C1335  H1379   1.110   .     S
C1336  C1637   1.326   .     S
C1336  H1684   1.082   .     S
C1338  O1395   1.309   .     A
C1338  O1397   1.308   .     A
C1339  O1398   1.309   .     A
C1339  O1396   1.316   .     A
C1340  H1341   1.080   .     S
H1348  C1421   1.110   .     S
H1349  C1420   1.108   .     S
H1355  C1625   1.106   .     S
H1356  C1625   1.110   .     S
H1371  C1731   1.111   .     S
H1375  C1429   1.111   .     S
H1380  C1433   1.112   .     S
H1385  C1637   1.087   .     S
N1389  Zn1400  2.076   .     S
N1389  C1429   1.446   .     S
N1389  N1490   1.277   .     S
N1390  Zn1399  2.076   .     S
O1391  Zn1399  2.004   .     S
O1392  Zn1400  2.004   .     S
O1393  Zn1400  1.995   .     S
O1394  Zn1399  1.995   .     S
O1395  Zn1399  1.980   .     S
O1396  Zn1400  1.980   .     S
O1397  Zn1400  2.004   .     S
O1398  Zn1399  2.004   .     S
C1401  O1491   1.310   .     A
C1401  O1493   1.307   .     A
C1401  C1436   1.414   .     S
C1402  C1413   1.401   .     A
C1402  C1404   1.375   .     A
C1402  H1452   1.073   .     S
C1403  C1439   1.432   .     S
C1403  C1440   1.392   .     A
C1403  C1405   1.380   .     A
C1404  C1406   1.371   .     A
C1404  C1438   1.417   .     S
C1405  H1463   1.081   .     S
C1405  C1407   1.398   .     A
C1406  H1474   1.079   .     S
C1406  C1408   1.390   .     A
C1407  C1414   1.434   .     A
C1407  C1409   1.418   .     A
C1408  C1410   1.411   .     A
C1408  C1415   1.411   .     A
C1409  C1411   1.426   .     A
C1410  C1413   1.414   .     A
C1410  C509    1.381   1_556 S
C1411  C1434   1.432   .     A
C1411  C1440   1.401   .     A
C1412  C1437   1.419   .     S
C1412  O1494   1.307   .     A
C1412  O1492   1.311   .     A
C1413  C1423   1.424   .     A
C1414  C1416   1.545   .     S
C1415  C1419   1.534   .     S
C1415  C534    1.422   1_556 S
C1416  H1444   1.111   .     S
C1416  H1445   1.111   .     S
C1416  C1717   1.525   .     S
C1417  H1442   1.104   .     S
C1417  H1443   1.105   .     S
C1417  C1418   1.529   .     S
C1418  H1486   1.111   .     S
C1418  H1488   1.110   .     S
C1418  H1487   1.106   .     S
C1419  C1420   1.549   .     S
C1419  H1453   1.095   .     S
C1419  H1451   1.109   .     S
C1420  H1450   1.109   .     S
C1420  C1421   1.533   .     S
C1421  H1446   1.107   .     S
C1421  H1447   1.103   .     S
C1422  H1459   1.110   .     S
C1422  C1424   1.535   .     S
C1422  C1423   1.527   .     S
C1422  H1760   1.090   .     S
C1423  C514    1.434   1_556 S
C1424  H1458   1.108   .     S
C1424  C1725   1.536   .     S
C1424  H1757   1.101   .     S
C1425  H1454   1.108   .     S
C1426  H1467   1.100   .     S
C1426  C1434   1.529   .     S
C1426  H1468   1.107   .     S
C1427  H1465   1.112   .     S
C1427  H1466   1.102   .     S
C1427  C1428   1.521   .     S
C1427  C1726   1.551   .     S
C1428  H1461   1.108   .     S
C1428  H1464   1.108   .     S
C1428  H1462   1.109   .     S
C1429  H1476   1.076   .     S
C1430  H1473   1.108   .     S
C1430  H1472   1.112   .     S
C1430  C1229   1.526   1_655 S
C1430  C1231   1.518   1_655 S
C1431  H1470   1.104   .     S
C1431  H1469   1.101   .     S
C1432  H1483   1.076   .     S
C1432  C1233   1.538   1_655 S
C1432  H1282   1.111   1_655 S
C1432  N1290   1.458   1_655 S
C1433  C1435   1.530   .     S
C1433  H1481   1.097   .     S
C1435  H1477   1.110   .     S
C1435  H1478   1.103   .     S
C1435  H1479   1.110   .     S
C1436  C1737   1.326   .     S
C1436  H1784   1.082   .     S
C1438  O1495   1.309   .     A
C1438  O1497   1.308   .     A
C1439  O1498   1.309   .     A
C1439  O1496   1.316   .     A
C1440  H1441   1.080   .     S
H1448  C1221   1.110   1_655 S
H1449  C1220   1.108   1_655 S
H1455  C1725   1.106   .     S
H1456  C1725   1.110   .     S
H1471  C1531   1.111   1_655 S
H1475  C1229   1.111   1_655 S
H1480  C1233   1.112   1_655 S
H1485  C1737   1.087   .     S
N1489  Zn1500  2.076   .     S
N1489  C1229   1.446   1_655 S
N1489  N1290   1.277   1_655 S
N1490  Zn1499  2.076   .     S
O1491  Zn1499  2.004   .     S
O1492  Zn1500  2.004   .     S
O1493  Zn1500  1.995   .     S
O1494  Zn1499  1.995   .     S
O1495  Zn1499  1.980   .     S
O1496  Zn1500  1.980   .     S
O1497  Zn1500  2.004   .     S
O1498  Zn1499  2.004   .     S
C1501  O1591   1.310   .     A
C1501  O1593   1.307   .     A
C1501  C1536   1.414   .     S
C1502  C1513   1.401   .     A
C1502  C1504   1.375   .     A
C1502  H1552   1.073   .     S
C1503  C1539   1.432   .     S
C1503  C1540   1.392   .     A
C1503  C1505   1.380   .     A
C1504  C1506   1.371   .     A
C1504  C1538   1.417   .     S
C1505  H1563   1.081   .     S
C1505  C1507   1.398   .     A
C1506  H1574   1.079   .     S
C1506  C1508   1.390   .     A
C1507  C1514   1.434   .     A
C1507  C1509   1.418   .     A
C1508  C1510   1.411   .     A
C1508  C1515   1.411   .     A
C1509  C1511   1.426   .     A
C1510  C1513   1.414   .     A
C1510  C609    1.381   1_556 S
C1511  C1534   1.432   .     A
C1511  C1540   1.401   .     A
C1512  C1537   1.419   .     S
C1512  O1594   1.307   .     A
C1512  O1592   1.311   .     A
C1513  C1523   1.424   .     A
C1514  C1516   1.545   .     S
C1515  C1519   1.534   .     S
C1515  C634    1.422   1_556 S
C1516  H1544   1.111   .     S
C1516  H1545   1.111   .     S
C1516  C917    1.525   1_565 S
C1517  H1542   1.104   .     S
C1517  H1543   1.105   .     S
C1517  C1518   1.529   .     S
C1518  H1586   1.111   .     S
C1518  H1588   1.110   .     S
C1518  H1587   1.106   .     S
C1519  C1520   1.549   .     S
C1519  H1553   1.095   .     S
C1519  H1551   1.109   .     S
C1520  H1550   1.109   .     S
C1520  C1521   1.533   .     S
C1520  H1749   1.108   1_455 S
C1521  H1546   1.107   .     S
C1521  H1547   1.103   .     S
C1521  H1748   1.110   1_455 S
C1522  H1559   1.110   .     S
C1522  C1524   1.535   .     S
C1522  C1523   1.527   .     S
C1522  H960    1.090   1_565 S
C1523  C614    1.434   1_556 S
C1524  H1558   1.108   .     S
C1524  C925    1.536   1_565 S
C1524  H957    1.101   1_565 S
C1525  H1554   1.108   .     S
C1526  H1567   1.100   .     S
C1526  C1534   1.529   .     S
C1526  H1568   1.107   .     S
C1527  H1565   1.112   .     S
C1527  H1566   1.102   .     S
C1527  C1528   1.521   .     S
C1527  C926    1.551   1_565 S
C1528  H1561   1.108   .     S
C1528  H1564   1.108   .     S
C1528  H1562   1.109   .     S
C1529  H1576   1.076   .     S
C1529  C1730   1.526   1_455 S
C1529  H1775   1.111   1_455 S
C1529  N1789   1.446   1_455 S
C1530  H1573   1.108   .     S
C1530  H1572   1.112   .     S
C1530  C1629   1.526   .     S
C1530  C1631   1.518   .     S
C1531  H1570   1.104   .     S
C1531  H1569   1.101   .     S
C1531  C1730   1.518   1_455 S
C1531  H1471   1.111   1_455 S
C1532  H1583   1.076   .     S
C1532  C1633   1.538   .     S
C1532  H1682   1.111   .     S
C1532  N1690   1.458   .     S
C1533  C1535   1.530   .     S
C1533  H1581   1.097   .     S
C1533  C1732   1.538   1_455 S
C1533  H1780   1.112   1_455 S
C1535  H1577   1.110   .     S
C1535  H1578   1.103   .     S
C1535  H1579   1.110   .     S
C1536  C937    1.326   1_565 S
C1536  H984    1.082   1_565 S
C1538  O1595   1.309   .     A
C1538  O1597   1.308   .     A
C1539  O1598   1.309   .     A
C1539  O1596   1.316   .     A
C1540  H1541   1.080   .     S
H1548  C1621   1.110   .     S
H1549  C1620   1.108   .     S
H1555  C925    1.106   1_565 S
H1556  C925    1.110   1_565 S
H1571  C1031   1.111   1_565 S
H1575  C1629   1.111   .     S
H1580  C1633   1.112   .     S
H1582  C1732   1.111   1_455 S
H1585  C937    1.087   1_565 S
N1589  Zn1600  2.076   .     S
N1589  C1629   1.446   .     S
N1589  N1690   1.277   .     S
N1590  Zn1599  2.076   .     S
N1590  N1789   1.277   1_455 S
N1590  C1732   1.458   1_455 S
O1591  Zn1599  2.004   .     S
O1592  Zn1600  2.004   .     S
O1593  Zn1600  1.995   .     S
O1594  Zn1599  1.995   .     S
O1595  Zn1599  1.980   .     S
O1596  Zn1600  1.980   .     S
O1597  Zn1600  2.004   .     S
O1598  Zn1599  2.004   .     S
C1601  O1691   1.310   .     A
C1601  O1693   1.307   .     A
C1601  C1636   1.414   .     S
C1602  C1613   1.401   .     A
C1602  C1604   1.375   .     A
C1602  H1652   1.073   .     S
C1603  C1639   1.432   .     S
C1603  C1640   1.392   .     A
C1603  C1605   1.380   .     A
C1604  C1606   1.371   .     A
C1604  C1638   1.417   .     S
C1605  H1663   1.081   .     S
C1605  C1607   1.398   .     A
C1606  H1674   1.079   .     S
C1606  C1608   1.390   .     A
C1607  C1614   1.434   .     A
C1607  C1609   1.418   .     A
C1608  C1610   1.411   .     A
C1608  C1615   1.411   .     A
C1609  C1611   1.426   .     A
C1610  C1613   1.414   .     A
C1610  C709    1.381   1_556 S
C1611  C1634   1.432   .     A
C1611  C1640   1.401   .     A
C1612  C1637   1.419   .     S
C1612  O1694   1.307   .     A
C1612  O1692   1.311   .     A
C1613  C1623   1.424   .     A
C1614  C1616   1.545   .     S
C1615  C1619   1.534   .     S
C1615  C734    1.422   1_556 S
C1616  H1644   1.111   .     S
C1616  H1645   1.111   .     S
C1616  C1017   1.525   1_565 S
C1617  H1642   1.104   .     S
C1617  H1643   1.105   .     S
C1617  C1618   1.529   .     S
C1618  H1686   1.111   .     S
C1618  H1688   1.110   .     S
C1618  H1687   1.106   .     S
C1619  C1620   1.549   .     S
C1619  H1653   1.095   .     S
C1619  H1651   1.109   .     S
C1620  H1650   1.109   .     S
C1620  C1621   1.533   .     S
C1621  H1646   1.107   .     S
C1621  H1647   1.103   .     S
C1622  H1659   1.110   .     S
C1622  C1624   1.535   .     S
C1622  C1623   1.527   .     S
C1622  H1060   1.090   1_565 S
C1623  C714    1.434   1_556 S
C1624  H1658   1.108   .     S
C1624  C1025   1.536   1_565 S
C1624  H1057   1.101   1_565 S
C1625  H1654   1.108   .     S
C1626  H1667   1.100   .     S
C1626  C1634   1.529   .     S
C1626  H1668   1.107   .     S
C1627  H1665   1.112   .     S
C1627  H1666   1.102   .     S
C1627  C1628   1.521   .     S
C1627  C1026   1.551   1_565 S
C1628  H1661   1.108   .     S
C1628  H1664   1.108   .     S
C1628  H1662   1.109   .     S
C1629  H1676   1.076   .     S
C1630  H1673   1.108   .     S
C1630  H1672   1.112   .     S
C1630  C1729   1.526   .     S
C1630  C1731   1.518   .     S
C1631  H1670   1.104   .     S
C1631  H1669   1.101   .     S
C1632  H1683   1.076   .     S
C1632  C1733   1.538   .     S
C1632  H1782   1.111   .     S
C1632  N1790   1.458   .     S
C1633  C1635   1.530   .     S
C1633  H1681   1.097   .     S
C1635  H1677   1.110   .     S
C1635  H1678   1.103   .     S
C1635  H1679   1.110   .     S
C1636  C1037   1.326   1_565 S
C1636  H1084   1.082   1_565 S
C1638  O1695   1.309   .     A
C1638  O1697   1.308   .     A
C1639  O1698   1.309   .     A
C1639  O1696   1.316   .     A
C1640  H1641   1.080   .     S
H1648  C1721   1.110   .     S
H1649  C1720   1.108   .     S
H1655  C1025   1.106   1_565 S
H1656  C1025   1.110   1_565 S
H1671  C1131   1.111   1_565 S
H1675  C1729   1.111   .     S
H1680  C1733   1.112   .     S
H1685  C1037   1.087   1_565 S
N1689  Zn1700  2.076   .     S
N1689  C1729   1.446   .     S
N1689  N1790   1.277   .     S
N1690  Zn1699  2.076   .     S
O1691  Zn1699  2.004   .     S
O1692  Zn1700  2.004   .     S
O1693  Zn1700  1.995   .     S
O1694  Zn1699  1.995   .     S
O1695  Zn1699  1.980   .     S
O1696  Zn1700  1.980   .     S
O1697  Zn1700  2.004   .     S
O1698  Zn1699  2.004   .     S
C1701  O1791   1.310   .     A
C1701  O1793   1.307   .     A
C1701  C1736   1.414   .     S
C1702  C1713   1.401   .     A
C1702  C1704   1.375   .     A
C1702  H1752   1.073   .     S
C1703  C1739   1.432   .     S
C1703  C1740   1.392   .     A
C1703  C1705   1.380   .     A
C1704  C1706   1.371   .     A
C1704  C1738   1.417   .     S
C1705  H1763   1.081   .     S
C1705  C1707   1.398   .     A
C1706  H1774   1.079   .     S
C1706  C1708   1.390   .     A
C1707  C1714   1.434   .     A
C1707  C1709   1.418   .     A
C1708  C1710   1.411   .     A
C1708  C1715   1.411   .     A
C1709  C1711   1.426   .     A
C1710  C1713   1.414   .     A
C1710  C809    1.381   1_556 S
C1711  C1734   1.432   .     A
C1711  C1740   1.401   .     A
C1712  C1737   1.419   .     S
C1712  O1794   1.307   .     A
C1712  O1792   1.311   .     A
C1713  C1723   1.424   .     A
C1714  C1716   1.545   .     S
C1715  C1719   1.534   .     S
C1715  C834    1.422   1_556 S
C1716  H1744   1.111   .     S
C1716  H1745   1.111   .     S
C1716  C1117   1.525   1_565 S
C1717  H1742   1.104   .     S
C1717  H1743   1.105   .     S
C1717  C1718   1.529   .     S
C1718  H1786   1.111   .     S
C1718  H1788   1.110   .     S
C1718  H1787   1.106   .     S
C1719  C1720   1.549   .     S
C1719  H1753   1.095   .     S
C1719  H1751   1.109   .     S
C1720  H1750   1.109   .     S
C1720  C1721   1.533   .     S
C1721  H1746   1.107   .     S
C1721  H1747   1.103   .     S
C1722  H1759   1.110   .     S
C1722  C1724   1.535   .     S
C1722  C1723   1.527   .     S
C1722  H1160   1.090   1_565 S
C1723  C814    1.434   1_556 S
C1724  H1758   1.108   .     S
C1724  C1125   1.536   1_565 S
C1724  H1157   1.101   1_565 S
C1725  H1754   1.108   .     S
C1726  H1767   1.100   .     S
C1726  C1734   1.529   .     S
C1726  H1768   1.107   .     S
C1727  H1765   1.112   .     S
C1727  H1766   1.102   .     S
C1727  C1728   1.521   .     S
C1727  C1126   1.551   1_565 S
C1728  H1761   1.108   .     S
C1728  H1764   1.108   .     S
C1728  H1762   1.109   .     S
C1729  H1776   1.076   .     S
C1730  H1773   1.108   .     S
C1730  H1772   1.112   .     S
C1730  C1529   1.526   1_655 S
C1730  C1531   1.518   1_655 S
C1731  H1770   1.104   .     S
C1731  H1769   1.101   .     S
C1732  H1783   1.076   .     S
C1732  C1533   1.538   1_655 S
C1732  H1582   1.111   1_655 S
C1732  N1590   1.458   1_655 S
C1733  C1735   1.530   .     S
C1733  H1781   1.097   .     S
C1735  H1777   1.110   .     S
C1735  H1778   1.103   .     S
C1735  H1779   1.110   .     S
C1736  C1137   1.326   1_565 S
C1736  H1184   1.082   1_565 S
C1738  O1795   1.309   .     A
C1738  O1797   1.308   .     A
C1739  O1798   1.309   .     A
C1739  O1796   1.316   .     A
C1740  H1741   1.080   .     S
H1748  C1521   1.110   1_655 S
H1749  C1520   1.108   1_655 S
H1755  C1125   1.106   1_565 S
H1756  C1125   1.110   1_565 S
H1771  C931    1.111   1_665 S
H1775  C1529   1.111   1_655 S
H1780  C1533   1.112   1_655 S
H1785  C1137   1.087   1_565 S
N1789  Zn1800  2.076   .     S
N1789  C1529   1.446   1_655 S
N1789  N1590   1.277   1_655 S
N1790  Zn1799  2.076   .     S
O1791  Zn1799  2.004   .     S
O1792  Zn1800  2.004   .     S
O1793  Zn1800  1.995   .     S
O1794  Zn1799  1.995   .     S
O1795  Zn1799  1.980   .     S
O1796  Zn1800  1.980   .     S
O1797  Zn1800  2.004   .     S
O1798  Zn1799  2.004   .     S
