data_str_m3_o10_o17_pcu_sym.224
_audit_creation_date              2020-01-03
_audit_creation_method            'Materials Studio'
_symmetry_space_group_name_H-M    'P1'
_symmetry_Int_Tables_number       1
_symmetry_cell_setting            triclinic
loop_
_symmetry_equiv_pos_as_xyz
  x,y,z
_cell_length_a                    23.2979
_cell_length_b                    25.8098
_cell_length_c                    29.7678
_cell_angle_alpha                 91.0529
_cell_angle_beta                  85.9533
_cell_angle_gamma                 93.8904
loop_
_atom_site_label
_atom_site_type_symbol
_atom_site_fract_x
_atom_site_fract_y
_atom_site_fract_z
_atom_site_U_iso_or_equiv
_atom_site_adp_type
_atom_site_occupancy
C1     C     0.18199   0.26493   0.24886   0.00000  Uiso   1.00
C2     C     0.15135   0.06840   0.25114   0.00000  Uiso   1.00
C3     C     0.14860   0.25867   0.47897   0.00000  Uiso   1.00
C4     C     0.18478   0.07468   0.02103   0.00000  Uiso   1.00
C5     C     0.18999   0.31946   0.24825   0.00000  Uiso   1.00
C6     C     0.14335   0.01387   0.25174   0.00000  Uiso   1.00
C7     C     0.16746   0.16672   0.33629   0.00000  Uiso   1.00
C8     C     0.16588   0.16662   0.16371   0.00000  Uiso   1.00
C9     C     0.16904   0.11946   0.09269   0.00000  Uiso   1.00
C10    C     0.16430   0.21388   0.40731   0.00000  Uiso   1.00
C11    C     0.16415   0.16645   0.11620   0.00000  Uiso   1.00
C12    C     0.16919   0.16689   0.38380   0.00000  Uiso   1.00
C13    C     0.15957   0.21344   0.09466   0.00000  Uiso   1.00
C14    C     0.17380   0.11991   0.40534   0.00000  Uiso   1.00
C15    C     0.15723   0.21316   0.04804   0.00000  Uiso   1.00
C16    C     0.17615   0.12019   0.45196   0.00000  Uiso   1.00
C17    C     0.16596   0.16659   0.02348   0.00000  Uiso   1.00
C18    C     0.16742   0.16676   0.47652   0.00000  Uiso   1.00
C19    C     0.17333   0.11988   0.04583   0.00000  Uiso   1.00
C20    C     0.16004   0.21347   0.45417   0.00000  Uiso   1.00
C21    C     0.14711   0.25849   0.02558   0.00000  Uiso   1.00
C22    C     0.18627   0.07486   0.47441   0.00000  Uiso   1.00
H23    H     0.13778   0.29377   0.04402   0.00000  Uiso   1.00
H24    H     0.19560   0.03958   0.45598   0.00000  Uiso   1.00
H25    H     0.14031   0.29408   0.46243   0.00000  Uiso   1.00
H26    H     0.19306   0.03926   0.03757   0.00000  Uiso   1.00
H27    H     0.23400   0.00327   0.24490   0.00000  Uiso   1.00
H28    H     0.09933   0.33006   0.25510   0.00000  Uiso   1.00
H29    H     0.00458   0.12763   0.21613   0.00000  Uiso   1.00
H30    H     0.32876   0.20570   0.28387   0.00000  Uiso   1.00
N31    N     0.31678   0.15265   0.23783   0.00000  Uiso   1.00
N32    N     0.01656   0.18068   0.26217   0.00000  Uiso   1.00
O33    O     0.12975   0.24619   0.25298   0.00000  Uiso   1.00
O34    O     0.20358   0.08714   0.24701   0.00000  Uiso   1.00
O35    O     0.22613   0.23721   0.24518   0.00000  Uiso   1.00
O36    O     0.10720   0.09613   0.25481   0.00000  Uiso   1.00
O37    O     0.11847   0.17117   0.31997   0.00000  Uiso   1.00
O38    O     0.21486   0.16216   0.18002   0.00000  Uiso   1.00
O39    O     0.21485   0.16219   0.31217   0.00000  Uiso   1.00
O40    O     0.11848   0.17115   0.18782   0.00000  Uiso   1.00
Zn41   Zn    0.10231   0.17266   0.25521   0.00000  Uiso   1.00
Zn42   Zn    0.23102   0.16067   0.24479   0.00000  Uiso   1.00
O43    O     0.17152   0.07371   0.11586   0.00000  Uiso   1.00
C44    C     0.11464   0.05198   0.12458   0.00000  Uiso   1.00
H45    H     0.08628   0.07974   0.14265   0.00000  Uiso   1.00
H46    H     0.11552   0.01808   0.14676   0.00000  Uiso   1.00
H47    H     0.09579   0.03817   0.09286   0.00000  Uiso   1.00
O48    O     0.16176   0.25963   0.38413   0.00000  Uiso   1.00
C49    C     0.21863   0.28137   0.37535   0.00000  Uiso   1.00
H50    H     0.24708   0.25351   0.35748   0.00000  Uiso   1.00
H51    H     0.23739   0.29546   0.40703   0.00000  Uiso   1.00
H52    H     0.21772   0.31509   0.35293   0.00000  Uiso   1.00
O53    O     0.15650   0.25914   0.11959   0.00000  Uiso   1.00
C54    C     0.21302   0.28204   0.12209   0.00000  Uiso   1.00
H55    H     0.21160   0.31602   0.14535   0.00000  Uiso   1.00
H56    H     0.23102   0.29611   0.08857   0.00000  Uiso   1.00
H57    H     0.24237   0.25497   0.13587   0.00000  Uiso   1.00
O58    O     0.17686   0.07420   0.38041   0.00000  Uiso   1.00
C59    C     0.12034   0.05130   0.37792   0.00000  Uiso   1.00
H60    H     0.10235   0.03720   0.41144   0.00000  Uiso   1.00
H61    H     0.12175   0.01734   0.35464   0.00000  Uiso   1.00
H62    H     0.09098   0.07838   0.36417   0.00000  Uiso   1.00
C63    C     0.51532   0.26493   0.24886   0.00000  Uiso   1.00
C64    C     0.48468   0.06840   0.25114   0.00000  Uiso   1.00
C65    C     0.48193   0.25867   0.47897   0.00000  Uiso   1.00
C66    C     0.51811   0.07468   0.02103   0.00000  Uiso   1.00
C67    C     0.52332   0.31946   0.24825   0.00000  Uiso   1.00
C68    C     0.47668   0.01387   0.25174   0.00000  Uiso   1.00
C69    C     0.50079   0.16672   0.33629   0.00000  Uiso   1.00
C70    C     0.49921   0.16662   0.16371   0.00000  Uiso   1.00
C71    C     0.50237   0.11946   0.09269   0.00000  Uiso   1.00
C72    C     0.49764   0.21388   0.40731   0.00000  Uiso   1.00
C73    C     0.49748   0.16645   0.11620   0.00000  Uiso   1.00
C74    C     0.50252   0.16689   0.38380   0.00000  Uiso   1.00
C75    C     0.49290   0.21344   0.09466   0.00000  Uiso   1.00
C76    C     0.50713   0.11991   0.40534   0.00000  Uiso   1.00
C77    C     0.49056   0.21316   0.04804   0.00000  Uiso   1.00
C78    C     0.50948   0.12019   0.45196   0.00000  Uiso   1.00
C79    C     0.49930   0.16659   0.02348   0.00000  Uiso   1.00
C80    C     0.50075   0.16676   0.47652   0.00000  Uiso   1.00
C81    C     0.50666   0.11988   0.04583   0.00000  Uiso   1.00
C82    C     0.49337   0.21347   0.45417   0.00000  Uiso   1.00
C83    C     0.48044   0.25849   0.02558   0.00000  Uiso   1.00
C84    C     0.51961   0.07486   0.47441   0.00000  Uiso   1.00
H85    H     0.47111   0.29377   0.04402   0.00000  Uiso   1.00
H86    H     0.52894   0.03958   0.45598   0.00000  Uiso   1.00
H87    H     0.47364   0.29408   0.46243   0.00000  Uiso   1.00
H88    H     0.52639   0.03926   0.03757   0.00000  Uiso   1.00
H89    H     0.56733   0.00327   0.24490   0.00000  Uiso   1.00
H90    H     0.43267   0.33006   0.25510   0.00000  Uiso   1.00
H91    H     0.33791   0.12763   0.21613   0.00000  Uiso   1.00
H92    H     0.66209   0.20570   0.28387   0.00000  Uiso   1.00
N93    N     0.65011   0.15265   0.23783   0.00000  Uiso   1.00
N94    N     0.34989   0.18068   0.26217   0.00000  Uiso   1.00
O95    O     0.46308   0.24619   0.25298   0.00000  Uiso   1.00
O96    O     0.53692   0.08714   0.24701   0.00000  Uiso   1.00
O97    O     0.55946   0.23721   0.24518   0.00000  Uiso   1.00
O98    O     0.44054   0.09613   0.25481   0.00000  Uiso   1.00
O99    O     0.45181   0.17117   0.31997   0.00000  Uiso   1.00
O100   O     0.54819   0.16216   0.18002   0.00000  Uiso   1.00
O101   O     0.54819   0.16219   0.31217   0.00000  Uiso   1.00
O102   O     0.45181   0.17115   0.18782   0.00000  Uiso   1.00
Zn103  Zn    0.43565   0.17266   0.25521   0.00000  Uiso   1.00
Zn104  Zn    0.56435   0.16067   0.24479   0.00000  Uiso   1.00
O105   O     0.50486   0.07371   0.11586   0.00000  Uiso   1.00
C106   C     0.44797   0.05198   0.12458   0.00000  Uiso   1.00
H107   H     0.41961   0.07974   0.14265   0.00000  Uiso   1.00
H108   H     0.44886   0.01808   0.14676   0.00000  Uiso   1.00
H109   H     0.42913   0.03817   0.09286   0.00000  Uiso   1.00
O110   O     0.49509   0.25963   0.38413   0.00000  Uiso   1.00
C111   C     0.55196   0.28137   0.37535   0.00000  Uiso   1.00
H112   H     0.58041   0.25351   0.35748   0.00000  Uiso   1.00
H113   H     0.57072   0.29546   0.40703   0.00000  Uiso   1.00
H114   H     0.55105   0.31509   0.35293   0.00000  Uiso   1.00
O115   O     0.48983   0.25914   0.11959   0.00000  Uiso   1.00
C116   C     0.54635   0.28204   0.12209   0.00000  Uiso   1.00
H117   H     0.54493   0.31602   0.14535   0.00000  Uiso   1.00
H118   H     0.56436   0.29611   0.08857   0.00000  Uiso   1.00
H119   H     0.57570   0.25497   0.13587   0.00000  Uiso   1.00
O120   O     0.51019   0.07420   0.38041   0.00000  Uiso   1.00
C121   C     0.45368   0.05130   0.37792   0.00000  Uiso   1.00
H122   H     0.43569   0.03720   0.41144   0.00000  Uiso   1.00
H123   H     0.45508   0.01734   0.35464   0.00000  Uiso   1.00
H124   H     0.42431   0.07838   0.36417   0.00000  Uiso   1.00
C125   C     0.84865   0.26493   0.24886   0.00000  Uiso   1.00
C126   C     0.81801   0.06840   0.25114   0.00000  Uiso   1.00
C127   C     0.81526   0.25867   0.47897   0.00000  Uiso   1.00
C128   C     0.85145   0.07468   0.02103   0.00000  Uiso   1.00
C129   C     0.85665   0.31946   0.24825   0.00000  Uiso   1.00
C130   C     0.81001   0.01387   0.25174   0.00000  Uiso   1.00
C131   C     0.83413   0.16672   0.33629   0.00000  Uiso   1.00
C132   C     0.83254   0.16662   0.16371   0.00000  Uiso   1.00
C133   C     0.83570   0.11946   0.09269   0.00000  Uiso   1.00
C134   C     0.83097   0.21388   0.40731   0.00000  Uiso   1.00
C135   C     0.83082   0.16645   0.11620   0.00000  Uiso   1.00
C136   C     0.83586   0.16689   0.38380   0.00000  Uiso   1.00
C137   C     0.82624   0.21344   0.09466   0.00000  Uiso   1.00
C138   C     0.84046   0.11991   0.40534   0.00000  Uiso   1.00
C139   C     0.82389   0.21316   0.04804   0.00000  Uiso   1.00
C140   C     0.84282   0.12019   0.45196   0.00000  Uiso   1.00
C141   C     0.83263   0.16659   0.02348   0.00000  Uiso   1.00
C142   C     0.83408   0.16676   0.47652   0.00000  Uiso   1.00
C143   C     0.83999   0.11988   0.04583   0.00000  Uiso   1.00
C144   C     0.82671   0.21347   0.45417   0.00000  Uiso   1.00
C145   C     0.81377   0.25849   0.02558   0.00000  Uiso   1.00
C146   C     0.85294   0.07486   0.47441   0.00000  Uiso   1.00
H147   H     0.80445   0.29377   0.04402   0.00000  Uiso   1.00
H148   H     0.86227   0.03958   0.45598   0.00000  Uiso   1.00
H149   H     0.80698   0.29408   0.46243   0.00000  Uiso   1.00
H150   H     0.85973   0.03926   0.03757   0.00000  Uiso   1.00
H151   H     0.90066   0.00327   0.24490   0.00000  Uiso   1.00
H152   H     0.76600   0.33006   0.25510   0.00000  Uiso   1.00
H153   H     0.67124   0.12763   0.21613   0.00000  Uiso   1.00
H154   H     0.99542   0.20570   0.28387   0.00000  Uiso   1.00
N155   N     0.98344   0.15265   0.23783   0.00000  Uiso   1.00
N156   N     0.68322   0.18068   0.26217   0.00000  Uiso   1.00
O157   O     0.79642   0.24619   0.25298   0.00000  Uiso   1.00
O158   O     0.87025   0.08714   0.24701   0.00000  Uiso   1.00
O159   O     0.89280   0.23721   0.24518   0.00000  Uiso   1.00
O160   O     0.77387   0.09613   0.25481   0.00000  Uiso   1.00
O161   O     0.78514   0.17117   0.31997   0.00000  Uiso   1.00
O162   O     0.88153   0.16216   0.18002   0.00000  Uiso   1.00
O163   O     0.88152   0.16219   0.31217   0.00000  Uiso   1.00
O164   O     0.78515   0.17115   0.18782   0.00000  Uiso   1.00
Zn165  Zn    0.76898   0.17266   0.25521   0.00000  Uiso   1.00
Zn166  Zn    0.89769   0.16067   0.24479   0.00000  Uiso   1.00
O167   O     0.83819   0.07371   0.11586   0.00000  Uiso   1.00
C168   C     0.78130   0.05198   0.12458   0.00000  Uiso   1.00
H169   H     0.75295   0.07974   0.14265   0.00000  Uiso   1.00
H170   H     0.78219   0.01808   0.14676   0.00000  Uiso   1.00
H171   H     0.76246   0.03817   0.09286   0.00000  Uiso   1.00
O172   O     0.82843   0.25963   0.38413   0.00000  Uiso   1.00
C173   C     0.88530   0.28137   0.37535   0.00000  Uiso   1.00
H174   H     0.91374   0.25351   0.35748   0.00000  Uiso   1.00
H175   H     0.90405   0.29546   0.40703   0.00000  Uiso   1.00
H176   H     0.88438   0.31509   0.35293   0.00000  Uiso   1.00
O177   O     0.82317   0.25914   0.11959   0.00000  Uiso   1.00
C178   C     0.87968   0.28204   0.12209   0.00000  Uiso   1.00
H179   H     0.87826   0.31602   0.14535   0.00000  Uiso   1.00
H180   H     0.89769   0.29611   0.08857   0.00000  Uiso   1.00
H181   H     0.90903   0.25497   0.13587   0.00000  Uiso   1.00
O182   O     0.84353   0.07420   0.38041   0.00000  Uiso   1.00
C183   C     0.78701   0.05130   0.37792   0.00000  Uiso   1.00
H184   H     0.76902   0.03720   0.41144   0.00000  Uiso   1.00
H185   H     0.78842   0.01734   0.35464   0.00000  Uiso   1.00
H186   H     0.75764   0.07838   0.36417   0.00000  Uiso   1.00
C187   C     0.18199   0.59827   0.24886   0.00000  Uiso   1.00
C188   C     0.15135   0.40173   0.25114   0.00000  Uiso   1.00
C189   C     0.14860   0.59200   0.47897   0.00000  Uiso   1.00
C190   C     0.18478   0.40801   0.02103   0.00000  Uiso   1.00
C191   C     0.18999   0.65279   0.24825   0.00000  Uiso   1.00
C192   C     0.14335   0.34721   0.25174   0.00000  Uiso   1.00
C193   C     0.16746   0.50005   0.33629   0.00000  Uiso   1.00
C194   C     0.16588   0.49995   0.16371   0.00000  Uiso   1.00
C195   C     0.16904   0.45280   0.09269   0.00000  Uiso   1.00
C196   C     0.16430   0.54721   0.40731   0.00000  Uiso   1.00
C197   C     0.16415   0.49978   0.11620   0.00000  Uiso   1.00
C198   C     0.16919   0.50022   0.38380   0.00000  Uiso   1.00
C199   C     0.15957   0.54677   0.09466   0.00000  Uiso   1.00
C200   C     0.17380   0.45324   0.40534   0.00000  Uiso   1.00
C201   C     0.15723   0.54649   0.04804   0.00000  Uiso   1.00
C202   C     0.17615   0.45352   0.45196   0.00000  Uiso   1.00
C203   C     0.16596   0.49993   0.02348   0.00000  Uiso   1.00
C204   C     0.16742   0.50009   0.47652   0.00000  Uiso   1.00
C205   C     0.17333   0.45321   0.04583   0.00000  Uiso   1.00
C206   C     0.16004   0.54680   0.45417   0.00000  Uiso   1.00
C207   C     0.14711   0.59182   0.02558   0.00000  Uiso   1.00
C208   C     0.18627   0.40820   0.47441   0.00000  Uiso   1.00
H209   H     0.13778   0.62710   0.04402   0.00000  Uiso   1.00
H210   H     0.19560   0.37291   0.45598   0.00000  Uiso   1.00
H211   H     0.14031   0.62742   0.46243   0.00000  Uiso   1.00
H212   H     0.19306   0.37260   0.03757   0.00000  Uiso   1.00
H213   H     0.23400   0.33660   0.24490   0.00000  Uiso   1.00
H214   H     0.09933   0.66340   0.25510   0.00000  Uiso   1.00
H215   H     0.00458   0.46097   0.21613   0.00000  Uiso   1.00
H216   H     0.32876   0.53903   0.28387   0.00000  Uiso   1.00
N217   N     0.31678   0.48598   0.23783   0.00000  Uiso   1.00
N218   N     0.01656   0.51402   0.26217   0.00000  Uiso   1.00
O219   O     0.12975   0.57952   0.25298   0.00000  Uiso   1.00
O220   O     0.20358   0.42048   0.24701   0.00000  Uiso   1.00
O221   O     0.22613   0.57054   0.24518   0.00000  Uiso   1.00
O222   O     0.10720   0.42946   0.25481   0.00000  Uiso   1.00
O223   O     0.11847   0.50450   0.31997   0.00000  Uiso   1.00
O224   O     0.21486   0.49550   0.18002   0.00000  Uiso   1.00
O225   O     0.21485   0.49552   0.31217   0.00000  Uiso   1.00
O226   O     0.11848   0.50448   0.18782   0.00000  Uiso   1.00
Zn227  Zn    0.10231   0.50600   0.25521   0.00000  Uiso   1.00
Zn228  Zn    0.23102   0.49400   0.24479   0.00000  Uiso   1.00
O229   O     0.17152   0.40704   0.11586   0.00000  Uiso   1.00
C230   C     0.11464   0.38532   0.12458   0.00000  Uiso   1.00
H231   H     0.08628   0.41307   0.14265   0.00000  Uiso   1.00
H232   H     0.11552   0.35142   0.14676   0.00000  Uiso   1.00
H233   H     0.09579   0.37150   0.09286   0.00000  Uiso   1.00
O234   O     0.16176   0.59296   0.38413   0.00000  Uiso   1.00
C235   C     0.21863   0.61470   0.37535   0.00000  Uiso   1.00
H236   H     0.24708   0.58684   0.35748   0.00000  Uiso   1.00
H237   H     0.23739   0.62879   0.40703   0.00000  Uiso   1.00
H238   H     0.21772   0.64842   0.35293   0.00000  Uiso   1.00
O239   O     0.15650   0.59247   0.11959   0.00000  Uiso   1.00
C240   C     0.21302   0.61537   0.12209   0.00000  Uiso   1.00
H241   H     0.21160   0.64935   0.14535   0.00000  Uiso   1.00
H242   H     0.23102   0.62944   0.08857   0.00000  Uiso   1.00
H243   H     0.24237   0.58830   0.13587   0.00000  Uiso   1.00
O244   O     0.17686   0.40753   0.38041   0.00000  Uiso   1.00
C245   C     0.12034   0.38464   0.37792   0.00000  Uiso   1.00
H246   H     0.10235   0.37054   0.41144   0.00000  Uiso   1.00
H247   H     0.12175   0.35067   0.35464   0.00000  Uiso   1.00
H248   H     0.09098   0.41171   0.36417   0.00000  Uiso   1.00
C249   C     0.51532   0.59827   0.24886   0.00000  Uiso   1.00
C250   C     0.48468   0.40173   0.25114   0.00000  Uiso   1.00
C251   C     0.48193   0.59200   0.47897   0.00000  Uiso   1.00
C252   C     0.51811   0.40801   0.02103   0.00000  Uiso   1.00
C253   C     0.52332   0.65279   0.24825   0.00000  Uiso   1.00
C254   C     0.47668   0.34721   0.25174   0.00000  Uiso   1.00
C255   C     0.50079   0.50005   0.33629   0.00000  Uiso   1.00
C256   C     0.49921   0.49995   0.16371   0.00000  Uiso   1.00
C257   C     0.50237   0.45280   0.09269   0.00000  Uiso   1.00
C258   C     0.49764   0.54721   0.40731   0.00000  Uiso   1.00
C259   C     0.49748   0.49978   0.11620   0.00000  Uiso   1.00
C260   C     0.50252   0.50022   0.38380   0.00000  Uiso   1.00
C261   C     0.49290   0.54677   0.09466   0.00000  Uiso   1.00
C262   C     0.50713   0.45324   0.40534   0.00000  Uiso   1.00
C263   C     0.49056   0.54649   0.04804   0.00000  Uiso   1.00
C264   C     0.50948   0.45352   0.45196   0.00000  Uiso   1.00
C265   C     0.49930   0.49993   0.02348   0.00000  Uiso   1.00
C266   C     0.50075   0.50009   0.47652   0.00000  Uiso   1.00
C267   C     0.50666   0.45321   0.04583   0.00000  Uiso   1.00
C268   C     0.49337   0.54680   0.45417   0.00000  Uiso   1.00
C269   C     0.48044   0.59182   0.02558   0.00000  Uiso   1.00
C270   C     0.51961   0.40820   0.47441   0.00000  Uiso   1.00
H271   H     0.47111   0.62710   0.04402   0.00000  Uiso   1.00
H272   H     0.52894   0.37291   0.45598   0.00000  Uiso   1.00
H273   H     0.47364   0.62742   0.46243   0.00000  Uiso   1.00
H274   H     0.52639   0.37260   0.03757   0.00000  Uiso   1.00
H275   H     0.56733   0.33660   0.24490   0.00000  Uiso   1.00
H276   H     0.43267   0.66340   0.25510   0.00000  Uiso   1.00
H277   H     0.33791   0.46097   0.21613   0.00000  Uiso   1.00
H278   H     0.66209   0.53903   0.28387   0.00000  Uiso   1.00
N279   N     0.65011   0.48598   0.23783   0.00000  Uiso   1.00
N280   N     0.34989   0.51402   0.26217   0.00000  Uiso   1.00
O281   O     0.46308   0.57952   0.25298   0.00000  Uiso   1.00
O282   O     0.53692   0.42048   0.24701   0.00000  Uiso   1.00
O283   O     0.55946   0.57054   0.24518   0.00000  Uiso   1.00
O284   O     0.44054   0.42946   0.25481   0.00000  Uiso   1.00
O285   O     0.45181   0.50450   0.31997   0.00000  Uiso   1.00
O286   O     0.54819   0.49550   0.18002   0.00000  Uiso   1.00
O287   O     0.54819   0.49552   0.31217   0.00000  Uiso   1.00
O288   O     0.45181   0.50448   0.18782   0.00000  Uiso   1.00
Zn289  Zn    0.43565   0.50600   0.25521   0.00000  Uiso   1.00
Zn290  Zn    0.56435   0.49400   0.24479   0.00000  Uiso   1.00
O291   O     0.50486   0.40704   0.11586   0.00000  Uiso   1.00
C292   C     0.44797   0.38532   0.12458   0.00000  Uiso   1.00
H293   H     0.41961   0.41307   0.14265   0.00000  Uiso   1.00
H294   H     0.44886   0.35142   0.14676   0.00000  Uiso   1.00
H295   H     0.42913   0.37150   0.09286   0.00000  Uiso   1.00
O296   O     0.49509   0.59296   0.38413   0.00000  Uiso   1.00
C297   C     0.55196   0.61470   0.37535   0.00000  Uiso   1.00
H298   H     0.58041   0.58684   0.35748   0.00000  Uiso   1.00
H299   H     0.57072   0.62879   0.40703   0.00000  Uiso   1.00
H300   H     0.55105   0.64842   0.35293   0.00000  Uiso   1.00
O301   O     0.48983   0.59247   0.11959   0.00000  Uiso   1.00
C302   C     0.54635   0.61537   0.12209   0.00000  Uiso   1.00
H303   H     0.54493   0.64935   0.14535   0.00000  Uiso   1.00
H304   H     0.56436   0.62944   0.08857   0.00000  Uiso   1.00
H305   H     0.57570   0.58830   0.13587   0.00000  Uiso   1.00
O306   O     0.51019   0.40753   0.38041   0.00000  Uiso   1.00
C307   C     0.45368   0.38464   0.37792   0.00000  Uiso   1.00
H308   H     0.43569   0.37054   0.41144   0.00000  Uiso   1.00
H309   H     0.45508   0.35067   0.35464   0.00000  Uiso   1.00
H310   H     0.42431   0.41171   0.36417   0.00000  Uiso   1.00
C311   C     0.84865   0.59827   0.24886   0.00000  Uiso   1.00
C312   C     0.81801   0.40173   0.25114   0.00000  Uiso   1.00
C313   C     0.81526   0.59200   0.47897   0.00000  Uiso   1.00
C314   C     0.85145   0.40801   0.02103   0.00000  Uiso   1.00
C315   C     0.85665   0.65279   0.24825   0.00000  Uiso   1.00
C316   C     0.81001   0.34721   0.25174   0.00000  Uiso   1.00
C317   C     0.83413   0.50005   0.33629   0.00000  Uiso   1.00
C318   C     0.83254   0.49995   0.16371   0.00000  Uiso   1.00
C319   C     0.83570   0.45280   0.09269   0.00000  Uiso   1.00
C320   C     0.83097   0.54721   0.40731   0.00000  Uiso   1.00
C321   C     0.83082   0.49978   0.11620   0.00000  Uiso   1.00
C322   C     0.83586   0.50022   0.38380   0.00000  Uiso   1.00
C323   C     0.82624   0.54677   0.09466   0.00000  Uiso   1.00
C324   C     0.84046   0.45324   0.40534   0.00000  Uiso   1.00
C325   C     0.82389   0.54649   0.04804   0.00000  Uiso   1.00
C326   C     0.84282   0.45352   0.45196   0.00000  Uiso   1.00
C327   C     0.83263   0.49993   0.02348   0.00000  Uiso   1.00
C328   C     0.83408   0.50009   0.47652   0.00000  Uiso   1.00
C329   C     0.83999   0.45321   0.04583   0.00000  Uiso   1.00
C330   C     0.82671   0.54680   0.45417   0.00000  Uiso   1.00
C331   C     0.81377   0.59182   0.02558   0.00000  Uiso   1.00
C332   C     0.85294   0.40820   0.47441   0.00000  Uiso   1.00
H333   H     0.80445   0.62710   0.04402   0.00000  Uiso   1.00
H334   H     0.86227   0.37291   0.45598   0.00000  Uiso   1.00
H335   H     0.80698   0.62742   0.46243   0.00000  Uiso   1.00
H336   H     0.85973   0.37260   0.03757   0.00000  Uiso   1.00
H337   H     0.90066   0.33660   0.24490   0.00000  Uiso   1.00
H338   H     0.76600   0.66340   0.25510   0.00000  Uiso   1.00
H339   H     0.67124   0.46097   0.21613   0.00000  Uiso   1.00
H340   H     0.99542   0.53903   0.28387   0.00000  Uiso   1.00
N341   N     0.98344   0.48598   0.23783   0.00000  Uiso   1.00
N342   N     0.68322   0.51402   0.26217   0.00000  Uiso   1.00
O343   O     0.79642   0.57952   0.25298   0.00000  Uiso   1.00
O344   O     0.87025   0.42048   0.24701   0.00000  Uiso   1.00
O345   O     0.89280   0.57054   0.24518   0.00000  Uiso   1.00
O346   O     0.77387   0.42946   0.25481   0.00000  Uiso   1.00
O347   O     0.78514   0.50450   0.31997   0.00000  Uiso   1.00
O348   O     0.88153   0.49550   0.18002   0.00000  Uiso   1.00
O349   O     0.88152   0.49552   0.31217   0.00000  Uiso   1.00
O350   O     0.78515   0.50448   0.18782   0.00000  Uiso   1.00
Zn351  Zn    0.76898   0.50600   0.25521   0.00000  Uiso   1.00
Zn352  Zn    0.89769   0.49400   0.24479   0.00000  Uiso   1.00
O353   O     0.83819   0.40704   0.11586   0.00000  Uiso   1.00
C354   C     0.78130   0.38532   0.12458   0.00000  Uiso   1.00
H355   H     0.75295   0.41307   0.14265   0.00000  Uiso   1.00
H356   H     0.78219   0.35142   0.14676   0.00000  Uiso   1.00
H357   H     0.76246   0.37150   0.09286   0.00000  Uiso   1.00
O358   O     0.82843   0.59296   0.38413   0.00000  Uiso   1.00
C359   C     0.88530   0.61470   0.37535   0.00000  Uiso   1.00
H360   H     0.91374   0.58684   0.35748   0.00000  Uiso   1.00
H361   H     0.90405   0.62879   0.40703   0.00000  Uiso   1.00
H362   H     0.88438   0.64842   0.35293   0.00000  Uiso   1.00
O363   O     0.82317   0.59247   0.11959   0.00000  Uiso   1.00
C364   C     0.87968   0.61537   0.12209   0.00000  Uiso   1.00
H365   H     0.87826   0.64935   0.14535   0.00000  Uiso   1.00
H366   H     0.89769   0.62944   0.08857   0.00000  Uiso   1.00
H367   H     0.90903   0.58830   0.13587   0.00000  Uiso   1.00
O368   O     0.84353   0.40753   0.38041   0.00000  Uiso   1.00
C369   C     0.78701   0.38464   0.37792   0.00000  Uiso   1.00
H370   H     0.76902   0.37054   0.41144   0.00000  Uiso   1.00
H371   H     0.78842   0.35067   0.35464   0.00000  Uiso   1.00
H372   H     0.75764   0.41171   0.36417   0.00000  Uiso   1.00
C373   C     0.18199   0.93160   0.24886   0.00000  Uiso   1.00
C374   C     0.15135   0.73507   0.25114   0.00000  Uiso   1.00
C375   C     0.14860   0.92534   0.47897   0.00000  Uiso   1.00
C376   C     0.18478   0.74135   0.02103   0.00000  Uiso   1.00
C377   C     0.18999   0.98613   0.24825   0.00000  Uiso   1.00
C378   C     0.14335   0.68054   0.25174   0.00000  Uiso   1.00
C379   C     0.16746   0.83338   0.33629   0.00000  Uiso   1.00
C380   C     0.16588   0.83328   0.16371   0.00000  Uiso   1.00
C381   C     0.16904   0.78613   0.09269   0.00000  Uiso   1.00
C382   C     0.16430   0.88054   0.40731   0.00000  Uiso   1.00
C383   C     0.16415   0.83312   0.11620   0.00000  Uiso   1.00
C384   C     0.16919   0.83355   0.38380   0.00000  Uiso   1.00
C385   C     0.15957   0.88010   0.09466   0.00000  Uiso   1.00
C386   C     0.17380   0.78657   0.40534   0.00000  Uiso   1.00
C387   C     0.15723   0.87983   0.04804   0.00000  Uiso   1.00
C388   C     0.17615   0.78686   0.45196   0.00000  Uiso   1.00
C389   C     0.16596   0.83326   0.02348   0.00000  Uiso   1.00
C390   C     0.16742   0.83342   0.47652   0.00000  Uiso   1.00
C391   C     0.17333   0.78654   0.04583   0.00000  Uiso   1.00
C392   C     0.16004   0.88014   0.45417   0.00000  Uiso   1.00
C393   C     0.14711   0.92515   0.02558   0.00000  Uiso   1.00
C394   C     0.18627   0.74153   0.47441   0.00000  Uiso   1.00
H395   H     0.13778   0.96044   0.04402   0.00000  Uiso   1.00
H396   H     0.19560   0.70624   0.45598   0.00000  Uiso   1.00
H397   H     0.14031   0.96075   0.46243   0.00000  Uiso   1.00
H398   H     0.19306   0.70593   0.03757   0.00000  Uiso   1.00
H399   H     0.23400   0.66994   0.24490   0.00000  Uiso   1.00
H400   H     0.09933   0.99673   0.25510   0.00000  Uiso   1.00
H401   H     0.00458   0.79430   0.21613   0.00000  Uiso   1.00
H402   H     0.32876   0.87237   0.28387   0.00000  Uiso   1.00
N403   N     0.31678   0.81932   0.23783   0.00000  Uiso   1.00
N404   N     0.01656   0.84735   0.26217   0.00000  Uiso   1.00
O405   O     0.12975   0.91286   0.25298   0.00000  Uiso   1.00
O406   O     0.20358   0.75381   0.24701   0.00000  Uiso   1.00
O407   O     0.22613   0.90387   0.24518   0.00000  Uiso   1.00
O408   O     0.10720   0.76279   0.25481   0.00000  Uiso   1.00
O409   O     0.11847   0.83784   0.31997   0.00000  Uiso   1.00
O410   O     0.21486   0.82883   0.18002   0.00000  Uiso   1.00
O411   O     0.21485   0.82885   0.31217   0.00000  Uiso   1.00
O412   O     0.11848   0.83781   0.18782   0.00000  Uiso   1.00
Zn413  Zn    0.10231   0.83933   0.25521   0.00000  Uiso   1.00
Zn414  Zn    0.23102   0.82734   0.24479   0.00000  Uiso   1.00
O415   O     0.17152   0.74037   0.11586   0.00000  Uiso   1.00
C416   C     0.11464   0.71865   0.12458   0.00000  Uiso   1.00
H417   H     0.08628   0.74641   0.14265   0.00000  Uiso   1.00
H418   H     0.11552   0.68475   0.14676   0.00000  Uiso   1.00
H419   H     0.09579   0.70483   0.09286   0.00000  Uiso   1.00
O420   O     0.16176   0.92629   0.38413   0.00000  Uiso   1.00
C421   C     0.21863   0.94804   0.37535   0.00000  Uiso   1.00
H422   H     0.24708   0.92017   0.35748   0.00000  Uiso   1.00
H423   H     0.23739   0.96212   0.40703   0.00000  Uiso   1.00
H424   H     0.21772   0.98175   0.35293   0.00000  Uiso   1.00
O425   O     0.15650   0.92580   0.11959   0.00000  Uiso   1.00
C426   C     0.21302   0.94870   0.12209   0.00000  Uiso   1.00
H427   H     0.21160   0.98268   0.14535   0.00000  Uiso   1.00
H428   H     0.23102   0.96278   0.08857   0.00000  Uiso   1.00
H429   H     0.24237   0.92163   0.13587   0.00000  Uiso   1.00
O430   O     0.17686   0.74087   0.38041   0.00000  Uiso   1.00
C431   C     0.12034   0.71797   0.37792   0.00000  Uiso   1.00
H432   H     0.10235   0.70387   0.41144   0.00000  Uiso   1.00
H433   H     0.12175   0.68401   0.35464   0.00000  Uiso   1.00
H434   H     0.09098   0.74505   0.36417   0.00000  Uiso   1.00
C435   C     0.51532   0.93160   0.24886   0.00000  Uiso   1.00
C436   C     0.48468   0.73507   0.25114   0.00000  Uiso   1.00
C437   C     0.48193   0.92534   0.47897   0.00000  Uiso   1.00
C438   C     0.51811   0.74135   0.02103   0.00000  Uiso   1.00
C439   C     0.52332   0.98613   0.24825   0.00000  Uiso   1.00
C440   C     0.47668   0.68054   0.25174   0.00000  Uiso   1.00
C441   C     0.50079   0.83338   0.33629   0.00000  Uiso   1.00
C442   C     0.49921   0.83328   0.16371   0.00000  Uiso   1.00
C443   C     0.50237   0.78613   0.09269   0.00000  Uiso   1.00
C444   C     0.49764   0.88054   0.40731   0.00000  Uiso   1.00
C445   C     0.49748   0.83312   0.11620   0.00000  Uiso   1.00
C446   C     0.50252   0.83355   0.38380   0.00000  Uiso   1.00
C447   C     0.49290   0.88010   0.09466   0.00000  Uiso   1.00
C448   C     0.50713   0.78657   0.40534   0.00000  Uiso   1.00
C449   C     0.49056   0.87983   0.04804   0.00000  Uiso   1.00
C450   C     0.50948   0.78686   0.45196   0.00000  Uiso   1.00
C451   C     0.49930   0.83326   0.02348   0.00000  Uiso   1.00
C452   C     0.50075   0.83342   0.47652   0.00000  Uiso   1.00
C453   C     0.50666   0.78654   0.04583   0.00000  Uiso   1.00
C454   C     0.49337   0.88014   0.45417   0.00000  Uiso   1.00
C455   C     0.48044   0.92515   0.02558   0.00000  Uiso   1.00
C456   C     0.51961   0.74153   0.47441   0.00000  Uiso   1.00
H457   H     0.47111   0.96044   0.04402   0.00000  Uiso   1.00
H458   H     0.52894   0.70624   0.45598   0.00000  Uiso   1.00
H459   H     0.47364   0.96075   0.46243   0.00000  Uiso   1.00
H460   H     0.52639   0.70593   0.03757   0.00000  Uiso   1.00
H461   H     0.56733   0.66994   0.24490   0.00000  Uiso   1.00
H462   H     0.43267   0.99673   0.25510   0.00000  Uiso   1.00
H463   H     0.33791   0.79430   0.21613   0.00000  Uiso   1.00
H464   H     0.66209   0.87237   0.28387   0.00000  Uiso   1.00
N465   N     0.65011   0.81932   0.23783   0.00000  Uiso   1.00
N466   N     0.34989   0.84735   0.26217   0.00000  Uiso   1.00
O467   O     0.46308   0.91286   0.25298   0.00000  Uiso   1.00
O468   O     0.53692   0.75381   0.24701   0.00000  Uiso   1.00
O469   O     0.55946   0.90387   0.24518   0.00000  Uiso   1.00
O470   O     0.44054   0.76279   0.25481   0.00000  Uiso   1.00
O471   O     0.45181   0.83784   0.31997   0.00000  Uiso   1.00
O472   O     0.54819   0.82883   0.18002   0.00000  Uiso   1.00
O473   O     0.54819   0.82885   0.31217   0.00000  Uiso   1.00
O474   O     0.45181   0.83781   0.18782   0.00000  Uiso   1.00
Zn475  Zn    0.43565   0.83933   0.25521   0.00000  Uiso   1.00
Zn476  Zn    0.56435   0.82734   0.24479   0.00000  Uiso   1.00
O477   O     0.50486   0.74037   0.11586   0.00000  Uiso   1.00
C478   C     0.44797   0.71865   0.12458   0.00000  Uiso   1.00
H479   H     0.41961   0.74641   0.14265   0.00000  Uiso   1.00
H480   H     0.44886   0.68475   0.14676   0.00000  Uiso   1.00
H481   H     0.42913   0.70483   0.09286   0.00000  Uiso   1.00
O482   O     0.49509   0.92629   0.38413   0.00000  Uiso   1.00
C483   C     0.55196   0.94804   0.37535   0.00000  Uiso   1.00
H484   H     0.58041   0.92017   0.35748   0.00000  Uiso   1.00
H485   H     0.57072   0.96212   0.40703   0.00000  Uiso   1.00
H486   H     0.55105   0.98175   0.35293   0.00000  Uiso   1.00
O487   O     0.48983   0.92580   0.11959   0.00000  Uiso   1.00
C488   C     0.54635   0.94870   0.12209   0.00000  Uiso   1.00
H489   H     0.54493   0.98268   0.14535   0.00000  Uiso   1.00
H490   H     0.56436   0.96278   0.08857   0.00000  Uiso   1.00
H491   H     0.57570   0.92163   0.13587   0.00000  Uiso   1.00
O492   O     0.51019   0.74087   0.38041   0.00000  Uiso   1.00
C493   C     0.45368   0.71797   0.37792   0.00000  Uiso   1.00
H494   H     0.43569   0.70387   0.41144   0.00000  Uiso   1.00
H495   H     0.45508   0.68401   0.35464   0.00000  Uiso   1.00
H496   H     0.42431   0.74505   0.36417   0.00000  Uiso   1.00
C497   C     0.84865   0.93160   0.24886   0.00000  Uiso   1.00
C498   C     0.81801   0.73507   0.25114   0.00000  Uiso   1.00
C499   C     0.81526   0.92534   0.47897   0.00000  Uiso   1.00
C500   C     0.85145   0.74135   0.02103   0.00000  Uiso   1.00
C501   C     0.85665   0.98613   0.24825   0.00000  Uiso   1.00
C502   C     0.81001   0.68054   0.25174   0.00000  Uiso   1.00
C503   C     0.83413   0.83338   0.33629   0.00000  Uiso   1.00
C504   C     0.83254   0.83328   0.16371   0.00000  Uiso   1.00
C505   C     0.83570   0.78613   0.09269   0.00000  Uiso   1.00
C506   C     0.83097   0.88054   0.40731   0.00000  Uiso   1.00
C507   C     0.83082   0.83312   0.11620   0.00000  Uiso   1.00
C508   C     0.83586   0.83355   0.38380   0.00000  Uiso   1.00
C509   C     0.82624   0.88010   0.09466   0.00000  Uiso   1.00
C510   C     0.84046   0.78657   0.40534   0.00000  Uiso   1.00
C511   C     0.82389   0.87983   0.04804   0.00000  Uiso   1.00
C512   C     0.84282   0.78686   0.45196   0.00000  Uiso   1.00
C513   C     0.83263   0.83326   0.02348   0.00000  Uiso   1.00
C514   C     0.83408   0.83342   0.47652   0.00000  Uiso   1.00
C515   C     0.83999   0.78654   0.04583   0.00000  Uiso   1.00
C516   C     0.82671   0.88014   0.45417   0.00000  Uiso   1.00
C517   C     0.81377   0.92515   0.02558   0.00000  Uiso   1.00
C518   C     0.85294   0.74153   0.47441   0.00000  Uiso   1.00
H519   H     0.80445   0.96044   0.04402   0.00000  Uiso   1.00
H520   H     0.86227   0.70624   0.45598   0.00000  Uiso   1.00
H521   H     0.80698   0.96075   0.46243   0.00000  Uiso   1.00
H522   H     0.85973   0.70593   0.03757   0.00000  Uiso   1.00
H523   H     0.90066   0.66994   0.24490   0.00000  Uiso   1.00
H524   H     0.76600   0.99673   0.25510   0.00000  Uiso   1.00
H525   H     0.67124   0.79430   0.21613   0.00000  Uiso   1.00
H526   H     0.99542   0.87237   0.28387   0.00000  Uiso   1.00
N527   N     0.98344   0.81932   0.23783   0.00000  Uiso   1.00
N528   N     0.68322   0.84735   0.26217   0.00000  Uiso   1.00
O529   O     0.79642   0.91286   0.25298   0.00000  Uiso   1.00
O530   O     0.87025   0.75381   0.24701   0.00000  Uiso   1.00
O531   O     0.89280   0.90387   0.24518   0.00000  Uiso   1.00
O532   O     0.77387   0.76279   0.25481   0.00000  Uiso   1.00
O533   O     0.78514   0.83784   0.31997   0.00000  Uiso   1.00
O534   O     0.88153   0.82883   0.18002   0.00000  Uiso   1.00
O535   O     0.88152   0.82885   0.31217   0.00000  Uiso   1.00
O536   O     0.78515   0.83781   0.18782   0.00000  Uiso   1.00
Zn537  Zn    0.76898   0.83933   0.25521   0.00000  Uiso   1.00
Zn538  Zn    0.89769   0.82734   0.24479   0.00000  Uiso   1.00
O539   O     0.83819   0.74037   0.11586   0.00000  Uiso   1.00
C540   C     0.78130   0.71865   0.12458   0.00000  Uiso   1.00
H541   H     0.75295   0.74641   0.14265   0.00000  Uiso   1.00
H542   H     0.78219   0.68475   0.14676   0.00000  Uiso   1.00
H543   H     0.76246   0.70483   0.09286   0.00000  Uiso   1.00
O544   O     0.82843   0.92629   0.38413   0.00000  Uiso   1.00
C545   C     0.88530   0.94804   0.37535   0.00000  Uiso   1.00
H546   H     0.91374   0.92017   0.35748   0.00000  Uiso   1.00
H547   H     0.90405   0.96212   0.40703   0.00000  Uiso   1.00
H548   H     0.88438   0.98175   0.35293   0.00000  Uiso   1.00
O549   O     0.82317   0.92580   0.11959   0.00000  Uiso   1.00
C550   C     0.87968   0.94870   0.12209   0.00000  Uiso   1.00
H551   H     0.87826   0.98268   0.14535   0.00000  Uiso   1.00
H552   H     0.89769   0.96278   0.08857   0.00000  Uiso   1.00
H553   H     0.90903   0.92163   0.13587   0.00000  Uiso   1.00
O554   O     0.84353   0.74087   0.38041   0.00000  Uiso   1.00
C555   C     0.78701   0.71797   0.37792   0.00000  Uiso   1.00
H556   H     0.76902   0.70387   0.41144   0.00000  Uiso   1.00
H557   H     0.78842   0.68401   0.35464   0.00000  Uiso   1.00
H558   H     0.75764   0.74505   0.36417   0.00000  Uiso   1.00
C559   C     0.18199   0.26493   0.74886   0.00000  Uiso   1.00
C560   C     0.15135   0.06840   0.75114   0.00000  Uiso   1.00
C561   C     0.14860   0.25867   0.97897   0.00000  Uiso   1.00
C562   C     0.18478   0.07468   0.52103   0.00000  Uiso   1.00
C563   C     0.18999   0.31946   0.74825   0.00000  Uiso   1.00
C564   C     0.14335   0.01387   0.75174   0.00000  Uiso   1.00
C565   C     0.16746   0.16672   0.83629   0.00000  Uiso   1.00
C566   C     0.16588   0.16662   0.66371   0.00000  Uiso   1.00
C567   C     0.16904   0.11946   0.59269   0.00000  Uiso   1.00
C568   C     0.16430   0.21388   0.90731   0.00000  Uiso   1.00
C569   C     0.16415   0.16645   0.61620   0.00000  Uiso   1.00
C570   C     0.16919   0.16689   0.88380   0.00000  Uiso   1.00
C571   C     0.15957   0.21344   0.59466   0.00000  Uiso   1.00
C572   C     0.17380   0.11991   0.90534   0.00000  Uiso   1.00
C573   C     0.15723   0.21316   0.54804   0.00000  Uiso   1.00
C574   C     0.17615   0.12019   0.95196   0.00000  Uiso   1.00
C575   C     0.16596   0.16659   0.52348   0.00000  Uiso   1.00
C576   C     0.16742   0.16676   0.97652   0.00000  Uiso   1.00
C577   C     0.17333   0.11988   0.54583   0.00000  Uiso   1.00
C578   C     0.16004   0.21347   0.95417   0.00000  Uiso   1.00
C579   C     0.14711   0.25849   0.52558   0.00000  Uiso   1.00
C580   C     0.18627   0.07486   0.97441   0.00000  Uiso   1.00
H581   H     0.13778   0.29377   0.54402   0.00000  Uiso   1.00
H582   H     0.19560   0.03958   0.95598   0.00000  Uiso   1.00
H583   H     0.14031   0.29408   0.96243   0.00000  Uiso   1.00
H584   H     0.19306   0.03926   0.53757   0.00000  Uiso   1.00
H585   H     0.23400   0.00327   0.74490   0.00000  Uiso   1.00
H586   H     0.09933   0.33006   0.75510   0.00000  Uiso   1.00
H587   H     0.00458   0.12763   0.71613   0.00000  Uiso   1.00
H588   H     0.32876   0.20570   0.78387   0.00000  Uiso   1.00
N589   N     0.31678   0.15265   0.73783   0.00000  Uiso   1.00
N590   N     0.01656   0.18068   0.76217   0.00000  Uiso   1.00
O591   O     0.12975   0.24619   0.75298   0.00000  Uiso   1.00
O592   O     0.20358   0.08714   0.74701   0.00000  Uiso   1.00
O593   O     0.22613   0.23721   0.74518   0.00000  Uiso   1.00
O594   O     0.10720   0.09613   0.75481   0.00000  Uiso   1.00
O595   O     0.11847   0.17117   0.81997   0.00000  Uiso   1.00
O596   O     0.21486   0.16216   0.68002   0.00000  Uiso   1.00
O597   O     0.21485   0.16219   0.81217   0.00000  Uiso   1.00
O598   O     0.11848   0.17115   0.68782   0.00000  Uiso   1.00
Zn599  Zn    0.10231   0.17266   0.75521   0.00000  Uiso   1.00
Zn600  Zn    0.23102   0.16067   0.74479   0.00000  Uiso   1.00
O601   O     0.17152   0.07371   0.61586   0.00000  Uiso   1.00
C602   C     0.11464   0.05198   0.62458   0.00000  Uiso   1.00
H603   H     0.08628   0.07974   0.64265   0.00000  Uiso   1.00
H604   H     0.11552   0.01808   0.64676   0.00000  Uiso   1.00
H605   H     0.09579   0.03817   0.59286   0.00000  Uiso   1.00
O606   O     0.16176   0.25963   0.88413   0.00000  Uiso   1.00
C607   C     0.21863   0.28137   0.87535   0.00000  Uiso   1.00
H608   H     0.24708   0.25351   0.85748   0.00000  Uiso   1.00
H609   H     0.23739   0.29546   0.90703   0.00000  Uiso   1.00
H610   H     0.21772   0.31509   0.85293   0.00000  Uiso   1.00
O611   O     0.15650   0.25914   0.61959   0.00000  Uiso   1.00
C612   C     0.21302   0.28204   0.62209   0.00000  Uiso   1.00
H613   H     0.21160   0.31602   0.64535   0.00000  Uiso   1.00
H614   H     0.23102   0.29611   0.58857   0.00000  Uiso   1.00
H615   H     0.24237   0.25497   0.63587   0.00000  Uiso   1.00
O616   O     0.17686   0.07420   0.88041   0.00000  Uiso   1.00
C617   C     0.12034   0.05130   0.87792   0.00000  Uiso   1.00
H618   H     0.10235   0.03720   0.91144   0.00000  Uiso   1.00
H619   H     0.12175   0.01734   0.85464   0.00000  Uiso   1.00
H620   H     0.09098   0.07838   0.86417   0.00000  Uiso   1.00
C621   C     0.51532   0.26493   0.74886   0.00000  Uiso   1.00
C622   C     0.48468   0.06840   0.75114   0.00000  Uiso   1.00
C623   C     0.48193   0.25867   0.97897   0.00000  Uiso   1.00
C624   C     0.51811   0.07468   0.52103   0.00000  Uiso   1.00
C625   C     0.52332   0.31946   0.74825   0.00000  Uiso   1.00
C626   C     0.47668   0.01387   0.75174   0.00000  Uiso   1.00
C627   C     0.50079   0.16672   0.83629   0.00000  Uiso   1.00
C628   C     0.49921   0.16662   0.66371   0.00000  Uiso   1.00
C629   C     0.50237   0.11946   0.59269   0.00000  Uiso   1.00
C630   C     0.49764   0.21388   0.90731   0.00000  Uiso   1.00
C631   C     0.49748   0.16645   0.61620   0.00000  Uiso   1.00
C632   C     0.50252   0.16689   0.88380   0.00000  Uiso   1.00
C633   C     0.49290   0.21344   0.59466   0.00000  Uiso   1.00
C634   C     0.50713   0.11991   0.90534   0.00000  Uiso   1.00
C635   C     0.49056   0.21316   0.54804   0.00000  Uiso   1.00
C636   C     0.50948   0.12019   0.95196   0.00000  Uiso   1.00
C637   C     0.49930   0.16659   0.52348   0.00000  Uiso   1.00
C638   C     0.50075   0.16676   0.97652   0.00000  Uiso   1.00
C639   C     0.50666   0.11988   0.54583   0.00000  Uiso   1.00
C640   C     0.49337   0.21347   0.95417   0.00000  Uiso   1.00
C641   C     0.48044   0.25849   0.52558   0.00000  Uiso   1.00
C642   C     0.51961   0.07486   0.97441   0.00000  Uiso   1.00
H643   H     0.47111   0.29377   0.54402   0.00000  Uiso   1.00
H644   H     0.52894   0.03958   0.95598   0.00000  Uiso   1.00
H645   H     0.47364   0.29408   0.96243   0.00000  Uiso   1.00
H646   H     0.52639   0.03926   0.53757   0.00000  Uiso   1.00
H647   H     0.56733   0.00327   0.74490   0.00000  Uiso   1.00
H648   H     0.43267   0.33006   0.75510   0.00000  Uiso   1.00
H649   H     0.33791   0.12763   0.71613   0.00000  Uiso   1.00
H650   H     0.66209   0.20570   0.78387   0.00000  Uiso   1.00
N651   N     0.65011   0.15265   0.73783   0.00000  Uiso   1.00
N652   N     0.34989   0.18068   0.76217   0.00000  Uiso   1.00
O653   O     0.46308   0.24619   0.75298   0.00000  Uiso   1.00
O654   O     0.53692   0.08714   0.74701   0.00000  Uiso   1.00
O655   O     0.55946   0.23721   0.74518   0.00000  Uiso   1.00
O656   O     0.44054   0.09613   0.75481   0.00000  Uiso   1.00
O657   O     0.45181   0.17117   0.81997   0.00000  Uiso   1.00
O658   O     0.54819   0.16216   0.68002   0.00000  Uiso   1.00
O659   O     0.54819   0.16219   0.81217   0.00000  Uiso   1.00
O660   O     0.45181   0.17115   0.68782   0.00000  Uiso   1.00
Zn661  Zn    0.43565   0.17266   0.75521   0.00000  Uiso   1.00
Zn662  Zn    0.56435   0.16067   0.74479   0.00000  Uiso   1.00
O663   O     0.50486   0.07371   0.61586   0.00000  Uiso   1.00
C664   C     0.44797   0.05198   0.62458   0.00000  Uiso   1.00
H665   H     0.41961   0.07974   0.64265   0.00000  Uiso   1.00
H666   H     0.44886   0.01808   0.64676   0.00000  Uiso   1.00
H667   H     0.42913   0.03817   0.59286   0.00000  Uiso   1.00
O668   O     0.49509   0.25963   0.88413   0.00000  Uiso   1.00
C669   C     0.55196   0.28137   0.87535   0.00000  Uiso   1.00
H670   H     0.58041   0.25351   0.85748   0.00000  Uiso   1.00
H671   H     0.57072   0.29546   0.90703   0.00000  Uiso   1.00
H672   H     0.55105   0.31509   0.85293   0.00000  Uiso   1.00
O673   O     0.48983   0.25914   0.61959   0.00000  Uiso   1.00
C674   C     0.54635   0.28204   0.62209   0.00000  Uiso   1.00
H675   H     0.54493   0.31602   0.64535   0.00000  Uiso   1.00
H676   H     0.56436   0.29611   0.58857   0.00000  Uiso   1.00
H677   H     0.57570   0.25497   0.63587   0.00000  Uiso   1.00
O678   O     0.51019   0.07420   0.88041   0.00000  Uiso   1.00
C679   C     0.45368   0.05130   0.87792   0.00000  Uiso   1.00
H680   H     0.43569   0.03720   0.91144   0.00000  Uiso   1.00
H681   H     0.45508   0.01734   0.85464   0.00000  Uiso   1.00
H682   H     0.42431   0.07838   0.86417   0.00000  Uiso   1.00
C683   C     0.84865   0.26493   0.74886   0.00000  Uiso   1.00
C684   C     0.81801   0.06840   0.75114   0.00000  Uiso   1.00
C685   C     0.81526   0.25867   0.97897   0.00000  Uiso   1.00
C686   C     0.85145   0.07468   0.52103   0.00000  Uiso   1.00
C687   C     0.85665   0.31946   0.74825   0.00000  Uiso   1.00
C688   C     0.81001   0.01387   0.75174   0.00000  Uiso   1.00
C689   C     0.83413   0.16672   0.83629   0.00000  Uiso   1.00
C690   C     0.83254   0.16662   0.66371   0.00000  Uiso   1.00
C691   C     0.83570   0.11946   0.59269   0.00000  Uiso   1.00
C692   C     0.83097   0.21388   0.90731   0.00000  Uiso   1.00
C693   C     0.83082   0.16645   0.61620   0.00000  Uiso   1.00
C694   C     0.83586   0.16689   0.88380   0.00000  Uiso   1.00
C695   C     0.82624   0.21344   0.59466   0.00000  Uiso   1.00
C696   C     0.84046   0.11991   0.90534   0.00000  Uiso   1.00
C697   C     0.82389   0.21316   0.54804   0.00000  Uiso   1.00
C698   C     0.84282   0.12019   0.95196   0.00000  Uiso   1.00
C699   C     0.83263   0.16659   0.52348   0.00000  Uiso   1.00
C700   C     0.83408   0.16676   0.97652   0.00000  Uiso   1.00
C701   C     0.83999   0.11988   0.54583   0.00000  Uiso   1.00
C702   C     0.82671   0.21347   0.95417   0.00000  Uiso   1.00
C703   C     0.81377   0.25849   0.52558   0.00000  Uiso   1.00
C704   C     0.85294   0.07486   0.97441   0.00000  Uiso   1.00
H705   H     0.80445   0.29377   0.54402   0.00000  Uiso   1.00
H706   H     0.86227   0.03958   0.95598   0.00000  Uiso   1.00
H707   H     0.80698   0.29408   0.96243   0.00000  Uiso   1.00
H708   H     0.85973   0.03926   0.53757   0.00000  Uiso   1.00
H709   H     0.90066   0.00327   0.74490   0.00000  Uiso   1.00
H710   H     0.76600   0.33006   0.75510   0.00000  Uiso   1.00
H711   H     0.67124   0.12763   0.71613   0.00000  Uiso   1.00
H712   H     0.99542   0.20570   0.78387   0.00000  Uiso   1.00
N713   N     0.98344   0.15265   0.73783   0.00000  Uiso   1.00
N714   N     0.68322   0.18068   0.76217   0.00000  Uiso   1.00
O715   O     0.79642   0.24619   0.75298   0.00000  Uiso   1.00
O716   O     0.87025   0.08714   0.74701   0.00000  Uiso   1.00
O717   O     0.89280   0.23721   0.74518   0.00000  Uiso   1.00
O718   O     0.77387   0.09613   0.75481   0.00000  Uiso   1.00
O719   O     0.78514   0.17117   0.81997   0.00000  Uiso   1.00
O720   O     0.88153   0.16216   0.68002   0.00000  Uiso   1.00
O721   O     0.88152   0.16219   0.81217   0.00000  Uiso   1.00
O722   O     0.78515   0.17115   0.68782   0.00000  Uiso   1.00
Zn723  Zn    0.76898   0.17266   0.75521   0.00000  Uiso   1.00
Zn724  Zn    0.89769   0.16067   0.74479   0.00000  Uiso   1.00
O725   O     0.83819   0.07371   0.61586   0.00000  Uiso   1.00
C726   C     0.78130   0.05198   0.62458   0.00000  Uiso   1.00
H727   H     0.75295   0.07974   0.64265   0.00000  Uiso   1.00
H728   H     0.78219   0.01808   0.64676   0.00000  Uiso   1.00
H729   H     0.76246   0.03817   0.59286   0.00000  Uiso   1.00
O730   O     0.82843   0.25963   0.88413   0.00000  Uiso   1.00
C731   C     0.88530   0.28137   0.87535   0.00000  Uiso   1.00
H732   H     0.91374   0.25351   0.85748   0.00000  Uiso   1.00
H733   H     0.90405   0.29546   0.90703   0.00000  Uiso   1.00
H734   H     0.88438   0.31509   0.85293   0.00000  Uiso   1.00
O735   O     0.82317   0.25914   0.61959   0.00000  Uiso   1.00
C736   C     0.87968   0.28204   0.62209   0.00000  Uiso   1.00
H737   H     0.87826   0.31602   0.64535   0.00000  Uiso   1.00
H738   H     0.89769   0.29611   0.58857   0.00000  Uiso   1.00
H739   H     0.90903   0.25497   0.63587   0.00000  Uiso   1.00
O740   O     0.84353   0.07420   0.88041   0.00000  Uiso   1.00
C741   C     0.78701   0.05130   0.87792   0.00000  Uiso   1.00
H742   H     0.76902   0.03720   0.91144   0.00000  Uiso   1.00
H743   H     0.78842   0.01734   0.85464   0.00000  Uiso   1.00
H744   H     0.75764   0.07838   0.86417   0.00000  Uiso   1.00
C745   C     0.18199   0.59827   0.74886   0.00000  Uiso   1.00
C746   C     0.15135   0.40173   0.75114   0.00000  Uiso   1.00
C747   C     0.14860   0.59200   0.97897   0.00000  Uiso   1.00
C748   C     0.18478   0.40801   0.52103   0.00000  Uiso   1.00
C749   C     0.18999   0.65279   0.74825   0.00000  Uiso   1.00
C750   C     0.14335   0.34721   0.75174   0.00000  Uiso   1.00
C751   C     0.16746   0.50005   0.83629   0.00000  Uiso   1.00
C752   C     0.16588   0.49995   0.66371   0.00000  Uiso   1.00
C753   C     0.16904   0.45280   0.59269   0.00000  Uiso   1.00
C754   C     0.16430   0.54721   0.90731   0.00000  Uiso   1.00
C755   C     0.16415   0.49978   0.61620   0.00000  Uiso   1.00
C756   C     0.16919   0.50022   0.88380   0.00000  Uiso   1.00
C757   C     0.15957   0.54677   0.59466   0.00000  Uiso   1.00
C758   C     0.17380   0.45324   0.90534   0.00000  Uiso   1.00
C759   C     0.15723   0.54649   0.54804   0.00000  Uiso   1.00
C760   C     0.17615   0.45352   0.95196   0.00000  Uiso   1.00
C761   C     0.16596   0.49993   0.52348   0.00000  Uiso   1.00
C762   C     0.16742   0.50009   0.97652   0.00000  Uiso   1.00
C763   C     0.17333   0.45321   0.54583   0.00000  Uiso   1.00
C764   C     0.16004   0.54680   0.95417   0.00000  Uiso   1.00
C765   C     0.14711   0.59182   0.52558   0.00000  Uiso   1.00
C766   C     0.18627   0.40820   0.97441   0.00000  Uiso   1.00
H767   H     0.13778   0.62710   0.54402   0.00000  Uiso   1.00
H768   H     0.19560   0.37291   0.95598   0.00000  Uiso   1.00
H769   H     0.14031   0.62742   0.96243   0.00000  Uiso   1.00
H770   H     0.19306   0.37260   0.53757   0.00000  Uiso   1.00
H771   H     0.23400   0.33660   0.74490   0.00000  Uiso   1.00
H772   H     0.09933   0.66340   0.75510   0.00000  Uiso   1.00
H773   H     0.00458   0.46097   0.71613   0.00000  Uiso   1.00
H774   H     0.32876   0.53903   0.78387   0.00000  Uiso   1.00
N775   N     0.31678   0.48598   0.73783   0.00000  Uiso   1.00
N776   N     0.01656   0.51402   0.76217   0.00000  Uiso   1.00
O777   O     0.12975   0.57952   0.75298   0.00000  Uiso   1.00
O778   O     0.20358   0.42048   0.74701   0.00000  Uiso   1.00
O779   O     0.22613   0.57054   0.74518   0.00000  Uiso   1.00
O780   O     0.10720   0.42946   0.75481   0.00000  Uiso   1.00
O781   O     0.11847   0.50450   0.81997   0.00000  Uiso   1.00
O782   O     0.21486   0.49550   0.68002   0.00000  Uiso   1.00
O783   O     0.21485   0.49552   0.81217   0.00000  Uiso   1.00
O784   O     0.11848   0.50448   0.68782   0.00000  Uiso   1.00
Zn785  Zn    0.10231   0.50600   0.75521   0.00000  Uiso   1.00
Zn786  Zn    0.23102   0.49400   0.74479   0.00000  Uiso   1.00
O787   O     0.17152   0.40704   0.61586   0.00000  Uiso   1.00
C788   C     0.11464   0.38532   0.62458   0.00000  Uiso   1.00
H789   H     0.08628   0.41307   0.64265   0.00000  Uiso   1.00
H790   H     0.11552   0.35142   0.64676   0.00000  Uiso   1.00
H791   H     0.09579   0.37150   0.59286   0.00000  Uiso   1.00
O792   O     0.16176   0.59296   0.88413   0.00000  Uiso   1.00
C793   C     0.21863   0.61470   0.87535   0.00000  Uiso   1.00
H794   H     0.24708   0.58684   0.85748   0.00000  Uiso   1.00
H795   H     0.23739   0.62879   0.90703   0.00000  Uiso   1.00
H796   H     0.21772   0.64842   0.85293   0.00000  Uiso   1.00
O797   O     0.15650   0.59247   0.61959   0.00000  Uiso   1.00
C798   C     0.21302   0.61537   0.62209   0.00000  Uiso   1.00
H799   H     0.21160   0.64935   0.64535   0.00000  Uiso   1.00
H800   H     0.23102   0.62944   0.58857   0.00000  Uiso   1.00
H801   H     0.24237   0.58830   0.63587   0.00000  Uiso   1.00
O802   O     0.17686   0.40753   0.88041   0.00000  Uiso   1.00
C803   C     0.12034   0.38464   0.87792   0.00000  Uiso   1.00
H804   H     0.10235   0.37054   0.91144   0.00000  Uiso   1.00
H805   H     0.12175   0.35067   0.85464   0.00000  Uiso   1.00
H806   H     0.09098   0.41171   0.86417   0.00000  Uiso   1.00
C807   C     0.51532   0.59827   0.74886   0.00000  Uiso   1.00
C808   C     0.48468   0.40173   0.75114   0.00000  Uiso   1.00
C809   C     0.48193   0.59200   0.97897   0.00000  Uiso   1.00
C810   C     0.51811   0.40801   0.52103   0.00000  Uiso   1.00
C811   C     0.52332   0.65279   0.74825   0.00000  Uiso   1.00
C812   C     0.47668   0.34721   0.75174   0.00000  Uiso   1.00
C813   C     0.50079   0.50005   0.83629   0.00000  Uiso   1.00
C814   C     0.49921   0.49995   0.66371   0.00000  Uiso   1.00
C815   C     0.50237   0.45280   0.59269   0.00000  Uiso   1.00
C816   C     0.49764   0.54721   0.90731   0.00000  Uiso   1.00
C817   C     0.49748   0.49978   0.61620   0.00000  Uiso   1.00
C818   C     0.50252   0.50022   0.88380   0.00000  Uiso   1.00
C819   C     0.49290   0.54677   0.59466   0.00000  Uiso   1.00
C820   C     0.50713   0.45324   0.90534   0.00000  Uiso   1.00
C821   C     0.49056   0.54649   0.54804   0.00000  Uiso   1.00
C822   C     0.50948   0.45352   0.95196   0.00000  Uiso   1.00
C823   C     0.49930   0.49993   0.52348   0.00000  Uiso   1.00
C824   C     0.50075   0.50009   0.97652   0.00000  Uiso   1.00
C825   C     0.50666   0.45321   0.54583   0.00000  Uiso   1.00
C826   C     0.49337   0.54680   0.95417   0.00000  Uiso   1.00
C827   C     0.48044   0.59182   0.52558   0.00000  Uiso   1.00
C828   C     0.51961   0.40820   0.97441   0.00000  Uiso   1.00
H829   H     0.47111   0.62710   0.54402   0.00000  Uiso   1.00
H830   H     0.52894   0.37291   0.95598   0.00000  Uiso   1.00
H831   H     0.47364   0.62742   0.96243   0.00000  Uiso   1.00
H832   H     0.52639   0.37260   0.53757   0.00000  Uiso   1.00
H833   H     0.56733   0.33660   0.74490   0.00000  Uiso   1.00
H834   H     0.43267   0.66340   0.75510   0.00000  Uiso   1.00
H835   H     0.33791   0.46097   0.71613   0.00000  Uiso   1.00
H836   H     0.66209   0.53903   0.78387   0.00000  Uiso   1.00
N837   N     0.65011   0.48598   0.73783   0.00000  Uiso   1.00
N838   N     0.34989   0.51402   0.76217   0.00000  Uiso   1.00
O839   O     0.46308   0.57952   0.75298   0.00000  Uiso   1.00
O840   O     0.53692   0.42048   0.74701   0.00000  Uiso   1.00
O841   O     0.55946   0.57054   0.74518   0.00000  Uiso   1.00
O842   O     0.44054   0.42946   0.75481   0.00000  Uiso   1.00
O843   O     0.45181   0.50450   0.81997   0.00000  Uiso   1.00
O844   O     0.54819   0.49550   0.68002   0.00000  Uiso   1.00
O845   O     0.54819   0.49552   0.81217   0.00000  Uiso   1.00
O846   O     0.45181   0.50448   0.68782   0.00000  Uiso   1.00
Zn847  Zn    0.43565   0.50600   0.75521   0.00000  Uiso   1.00
Zn848  Zn    0.56435   0.49400   0.74479   0.00000  Uiso   1.00
O849   O     0.50486   0.40704   0.61586   0.00000  Uiso   1.00
C850   C     0.44797   0.38532   0.62458   0.00000  Uiso   1.00
H851   H     0.41961   0.41307   0.64265   0.00000  Uiso   1.00
H852   H     0.44886   0.35142   0.64676   0.00000  Uiso   1.00
H853   H     0.42913   0.37150   0.59286   0.00000  Uiso   1.00
O854   O     0.49509   0.59296   0.88413   0.00000  Uiso   1.00
C855   C     0.55196   0.61470   0.87535   0.00000  Uiso   1.00
H856   H     0.58041   0.58684   0.85748   0.00000  Uiso   1.00
H857   H     0.57072   0.62879   0.90703   0.00000  Uiso   1.00
H858   H     0.55105   0.64842   0.85293   0.00000  Uiso   1.00
O859   O     0.48983   0.59247   0.61959   0.00000  Uiso   1.00
C860   C     0.54635   0.61537   0.62209   0.00000  Uiso   1.00
H861   H     0.54493   0.64935   0.64535   0.00000  Uiso   1.00
H862   H     0.56436   0.62944   0.58857   0.00000  Uiso   1.00
H863   H     0.57570   0.58830   0.63587   0.00000  Uiso   1.00
O864   O     0.51019   0.40753   0.88041   0.00000  Uiso   1.00
C865   C     0.45368   0.38464   0.87792   0.00000  Uiso   1.00
H866   H     0.43569   0.37054   0.91144   0.00000  Uiso   1.00
H867   H     0.45508   0.35067   0.85464   0.00000  Uiso   1.00
H868   H     0.42431   0.41171   0.86417   0.00000  Uiso   1.00
C869   C     0.84865   0.59827   0.74886   0.00000  Uiso   1.00
C870   C     0.81801   0.40173   0.75114   0.00000  Uiso   1.00
C871   C     0.81526   0.59200   0.97897   0.00000  Uiso   1.00
C872   C     0.85145   0.40801   0.52103   0.00000  Uiso   1.00
C873   C     0.85665   0.65279   0.74825   0.00000  Uiso   1.00
C874   C     0.81001   0.34721   0.75174   0.00000  Uiso   1.00
C875   C     0.83413   0.50005   0.83629   0.00000  Uiso   1.00
C876   C     0.83254   0.49995   0.66371   0.00000  Uiso   1.00
C877   C     0.83570   0.45280   0.59269   0.00000  Uiso   1.00
C878   C     0.83097   0.54721   0.90731   0.00000  Uiso   1.00
C879   C     0.83082   0.49978   0.61620   0.00000  Uiso   1.00
C880   C     0.83586   0.50022   0.88380   0.00000  Uiso   1.00
C881   C     0.82624   0.54677   0.59466   0.00000  Uiso   1.00
C882   C     0.84046   0.45324   0.90534   0.00000  Uiso   1.00
C883   C     0.82389   0.54649   0.54804   0.00000  Uiso   1.00
C884   C     0.84282   0.45352   0.95196   0.00000  Uiso   1.00
C885   C     0.83263   0.49993   0.52348   0.00000  Uiso   1.00
C886   C     0.83408   0.50009   0.97652   0.00000  Uiso   1.00
C887   C     0.83999   0.45321   0.54583   0.00000  Uiso   1.00
C888   C     0.82671   0.54680   0.95417   0.00000  Uiso   1.00
C889   C     0.81377   0.59182   0.52558   0.00000  Uiso   1.00
C890   C     0.85294   0.40820   0.97441   0.00000  Uiso   1.00
H891   H     0.80445   0.62710   0.54402   0.00000  Uiso   1.00
H892   H     0.86227   0.37291   0.95598   0.00000  Uiso   1.00
H893   H     0.80698   0.62742   0.96243   0.00000  Uiso   1.00
H894   H     0.85973   0.37260   0.53757   0.00000  Uiso   1.00
H895   H     0.90066   0.33660   0.74490   0.00000  Uiso   1.00
H896   H     0.76600   0.66340   0.75510   0.00000  Uiso   1.00
H897   H     0.67124   0.46097   0.71613   0.00000  Uiso   1.00
H898   H     0.99542   0.53903   0.78387   0.00000  Uiso   1.00
N899   N     0.98344   0.48598   0.73783   0.00000  Uiso   1.00
N900   N     0.68322   0.51402   0.76217   0.00000  Uiso   1.00
O901   O     0.79642   0.57952   0.75298   0.00000  Uiso   1.00
O902   O     0.87025   0.42048   0.74701   0.00000  Uiso   1.00
O903   O     0.89280   0.57054   0.74518   0.00000  Uiso   1.00
O904   O     0.77387   0.42946   0.75481   0.00000  Uiso   1.00
O905   O     0.78514   0.50450   0.81997   0.00000  Uiso   1.00
O906   O     0.88153   0.49550   0.68002   0.00000  Uiso   1.00
O907   O     0.88152   0.49552   0.81217   0.00000  Uiso   1.00
O908   O     0.78515   0.50448   0.68782   0.00000  Uiso   1.00
Zn909  Zn    0.76898   0.50600   0.75521   0.00000  Uiso   1.00
Zn910  Zn    0.89769   0.49400   0.74479   0.00000  Uiso   1.00
O911   O     0.83819   0.40704   0.61586   0.00000  Uiso   1.00
C912   C     0.78130   0.38532   0.62458   0.00000  Uiso   1.00
H913   H     0.75295   0.41307   0.64265   0.00000  Uiso   1.00
H914   H     0.78219   0.35142   0.64676   0.00000  Uiso   1.00
H915   H     0.76246   0.37150   0.59286   0.00000  Uiso   1.00
O916   O     0.82843   0.59296   0.88413   0.00000  Uiso   1.00
C917   C     0.88530   0.61470   0.87535   0.00000  Uiso   1.00
H918   H     0.91374   0.58684   0.85748   0.00000  Uiso   1.00
H919   H     0.90405   0.62879   0.90703   0.00000  Uiso   1.00
H920   H     0.88438   0.64842   0.85293   0.00000  Uiso   1.00
O921   O     0.82317   0.59247   0.61959   0.00000  Uiso   1.00
C922   C     0.87968   0.61537   0.62209   0.00000  Uiso   1.00
H923   H     0.87826   0.64935   0.64535   0.00000  Uiso   1.00
H924   H     0.89769   0.62944   0.58857   0.00000  Uiso   1.00
H925   H     0.90903   0.58830   0.63587   0.00000  Uiso   1.00
O926   O     0.84353   0.40753   0.88041   0.00000  Uiso   1.00
C927   C     0.78701   0.38464   0.87792   0.00000  Uiso   1.00
H928   H     0.76902   0.37054   0.91144   0.00000  Uiso   1.00
H929   H     0.78842   0.35067   0.85464   0.00000  Uiso   1.00
H930   H     0.75764   0.41171   0.86417   0.00000  Uiso   1.00
C931   C     0.18199   0.93160   0.74886   0.00000  Uiso   1.00
C932   C     0.15135   0.73507   0.75114   0.00000  Uiso   1.00
C933   C     0.14860   0.92534   0.97897   0.00000  Uiso   1.00
C934   C     0.18478   0.74135   0.52103   0.00000  Uiso   1.00
C935   C     0.18999   0.98613   0.74825   0.00000  Uiso   1.00
C936   C     0.14335   0.68054   0.75174   0.00000  Uiso   1.00
C937   C     0.16746   0.83338   0.83629   0.00000  Uiso   1.00
C938   C     0.16588   0.83328   0.66371   0.00000  Uiso   1.00
C939   C     0.16904   0.78613   0.59269   0.00000  Uiso   1.00
C940   C     0.16430   0.88054   0.90731   0.00000  Uiso   1.00
C941   C     0.16415   0.83312   0.61620   0.00000  Uiso   1.00
C942   C     0.16919   0.83355   0.88380   0.00000  Uiso   1.00
C943   C     0.15957   0.88010   0.59466   0.00000  Uiso   1.00
C944   C     0.17380   0.78657   0.90534   0.00000  Uiso   1.00
C945   C     0.15723   0.87983   0.54804   0.00000  Uiso   1.00
C946   C     0.17615   0.78686   0.95196   0.00000  Uiso   1.00
C947   C     0.16596   0.83326   0.52348   0.00000  Uiso   1.00
C948   C     0.16742   0.83342   0.97652   0.00000  Uiso   1.00
C949   C     0.17333   0.78654   0.54583   0.00000  Uiso   1.00
C950   C     0.16004   0.88014   0.95417   0.00000  Uiso   1.00
C951   C     0.14711   0.92515   0.52558   0.00000  Uiso   1.00
C952   C     0.18627   0.74153   0.97441   0.00000  Uiso   1.00
H953   H     0.13778   0.96044   0.54402   0.00000  Uiso   1.00
H954   H     0.19560   0.70624   0.95598   0.00000  Uiso   1.00
H955   H     0.14031   0.96075   0.96243   0.00000  Uiso   1.00
H956   H     0.19306   0.70593   0.53757   0.00000  Uiso   1.00
H957   H     0.23400   0.66994   0.74490   0.00000  Uiso   1.00
H958   H     0.09933   0.99673   0.75510   0.00000  Uiso   1.00
H959   H     0.00458   0.79430   0.71613   0.00000  Uiso   1.00
H960   H     0.32876   0.87237   0.78387   0.00000  Uiso   1.00
N961   N     0.31678   0.81932   0.73783   0.00000  Uiso   1.00
N962   N     0.01656   0.84735   0.76217   0.00000  Uiso   1.00
O963   O     0.12975   0.91286   0.75298   0.00000  Uiso   1.00
O964   O     0.20358   0.75381   0.74701   0.00000  Uiso   1.00
O965   O     0.22613   0.90387   0.74518   0.00000  Uiso   1.00
O966   O     0.10720   0.76279   0.75481   0.00000  Uiso   1.00
O967   O     0.11847   0.83784   0.81997   0.00000  Uiso   1.00
O968   O     0.21486   0.82883   0.68002   0.00000  Uiso   1.00
O969   O     0.21485   0.82885   0.81217   0.00000  Uiso   1.00
O970   O     0.11848   0.83781   0.68782   0.00000  Uiso   1.00
Zn971  Zn    0.10231   0.83933   0.75521   0.00000  Uiso   1.00
Zn972  Zn    0.23102   0.82734   0.74479   0.00000  Uiso   1.00
O973   O     0.17152   0.74037   0.61586   0.00000  Uiso   1.00
C974   C     0.11464   0.71865   0.62458   0.00000  Uiso   1.00
H975   H     0.08628   0.74641   0.64265   0.00000  Uiso   1.00
H976   H     0.11552   0.68475   0.64676   0.00000  Uiso   1.00
H977   H     0.09579   0.70483   0.59286   0.00000  Uiso   1.00
O978   O     0.16176   0.92629   0.88413   0.00000  Uiso   1.00
C979   C     0.21863   0.94804   0.87535   0.00000  Uiso   1.00
H980   H     0.24708   0.92017   0.85748   0.00000  Uiso   1.00
H981   H     0.23739   0.96212   0.90703   0.00000  Uiso   1.00
H982   H     0.21772   0.98175   0.85293   0.00000  Uiso   1.00
O983   O     0.15650   0.92580   0.61959   0.00000  Uiso   1.00
C984   C     0.21302   0.94870   0.62209   0.00000  Uiso   1.00
H985   H     0.21160   0.98268   0.64535   0.00000  Uiso   1.00
H986   H     0.23102   0.96278   0.58857   0.00000  Uiso   1.00
H987   H     0.24237   0.92163   0.63587   0.00000  Uiso   1.00
O988   O     0.17686   0.74087   0.88041   0.00000  Uiso   1.00
C989   C     0.12034   0.71797   0.87792   0.00000  Uiso   1.00
H990   H     0.10235   0.70387   0.91144   0.00000  Uiso   1.00
H991   H     0.12175   0.68401   0.85464   0.00000  Uiso   1.00
H992   H     0.09098   0.74505   0.86417   0.00000  Uiso   1.00
C993   C     0.51532   0.93160   0.74886   0.00000  Uiso   1.00
C994   C     0.48468   0.73507   0.75114   0.00000  Uiso   1.00
C995   C     0.48193   0.92534   0.97897   0.00000  Uiso   1.00
C996   C     0.51811   0.74135   0.52103   0.00000  Uiso   1.00
C997   C     0.52332   0.98613   0.74825   0.00000  Uiso   1.00
C998   C     0.47668   0.68054   0.75174   0.00000  Uiso   1.00
C999   C     0.50079   0.83338   0.83629   0.00000  Uiso   1.00
C1000  C     0.49921   0.83328   0.66371   0.00000  Uiso   1.00
C1001  C     0.50237   0.78613   0.59269   0.00000  Uiso   1.00
C1002  C     0.49764   0.88054   0.90731   0.00000  Uiso   1.00
C1003  C     0.49748   0.83312   0.61620   0.00000  Uiso   1.00
C1004  C     0.50252   0.83355   0.88380   0.00000  Uiso   1.00
C1005  C     0.49290   0.88010   0.59466   0.00000  Uiso   1.00
C1006  C     0.50713   0.78657   0.90534   0.00000  Uiso   1.00
C1007  C     0.49056   0.87983   0.54804   0.00000  Uiso   1.00
C1008  C     0.50948   0.78686   0.95196   0.00000  Uiso   1.00
C1009  C     0.49930   0.83326   0.52348   0.00000  Uiso   1.00
C1010  C     0.50075   0.83342   0.97652   0.00000  Uiso   1.00
C1011  C     0.50666   0.78654   0.54583   0.00000  Uiso   1.00
C1012  C     0.49337   0.88014   0.95417   0.00000  Uiso   1.00
C1013  C     0.48044   0.92515   0.52558   0.00000  Uiso   1.00
C1014  C     0.51961   0.74153   0.97441   0.00000  Uiso   1.00
H1015  H     0.47111   0.96044   0.54402   0.00000  Uiso   1.00
H1016  H     0.52894   0.70624   0.95598   0.00000  Uiso   1.00
H1017  H     0.47364   0.96075   0.96243   0.00000  Uiso   1.00
H1018  H     0.52639   0.70593   0.53757   0.00000  Uiso   1.00
H1019  H     0.56733   0.66994   0.74490   0.00000  Uiso   1.00
H1020  H     0.43267   0.99673   0.75510   0.00000  Uiso   1.00
H1021  H     0.33791   0.79430   0.71613   0.00000  Uiso   1.00
H1022  H     0.66209   0.87237   0.78387   0.00000  Uiso   1.00
N1023  N     0.65011   0.81932   0.73783   0.00000  Uiso   1.00
N1024  N     0.34989   0.84735   0.76217   0.00000  Uiso   1.00
O1025  O     0.46308   0.91286   0.75298   0.00000  Uiso   1.00
O1026  O     0.53692   0.75381   0.74701   0.00000  Uiso   1.00
O1027  O     0.55946   0.90387   0.74518   0.00000  Uiso   1.00
O1028  O     0.44054   0.76279   0.75481   0.00000  Uiso   1.00
O1029  O     0.45181   0.83784   0.81997   0.00000  Uiso   1.00
O1030  O     0.54819   0.82883   0.68002   0.00000  Uiso   1.00
O1031  O     0.54819   0.82885   0.81217   0.00000  Uiso   1.00
O1032  O     0.45181   0.83781   0.68782   0.00000  Uiso   1.00
Zn1033 Zn    0.43565   0.83933   0.75521   0.00000  Uiso   1.00
Zn1034 Zn    0.56435   0.82734   0.74479   0.00000  Uiso   1.00
O1035  O     0.50486   0.74037   0.61586   0.00000  Uiso   1.00
C1036  C     0.44797   0.71865   0.62458   0.00000  Uiso   1.00
H1037  H     0.41961   0.74641   0.64265   0.00000  Uiso   1.00
H1038  H     0.44886   0.68475   0.64676   0.00000  Uiso   1.00
H1039  H     0.42913   0.70483   0.59286   0.00000  Uiso   1.00
O1040  O     0.49509   0.92629   0.88413   0.00000  Uiso   1.00
C1041  C     0.55196   0.94804   0.87535   0.00000  Uiso   1.00
H1042  H     0.58041   0.92017   0.85748   0.00000  Uiso   1.00
H1043  H     0.57072   0.96212   0.90703   0.00000  Uiso   1.00
H1044  H     0.55105   0.98175   0.85293   0.00000  Uiso   1.00
O1045  O     0.48983   0.92580   0.61959   0.00000  Uiso   1.00
C1046  C     0.54635   0.94870   0.62209   0.00000  Uiso   1.00
H1047  H     0.54493   0.98268   0.64535   0.00000  Uiso   1.00
H1048  H     0.56436   0.96278   0.58857   0.00000  Uiso   1.00
H1049  H     0.57570   0.92163   0.63587   0.00000  Uiso   1.00
O1050  O     0.51019   0.74087   0.88041   0.00000  Uiso   1.00
C1051  C     0.45368   0.71797   0.87792   0.00000  Uiso   1.00
H1052  H     0.43569   0.70387   0.91144   0.00000  Uiso   1.00
H1053  H     0.45508   0.68401   0.85464   0.00000  Uiso   1.00
H1054  H     0.42431   0.74505   0.86417   0.00000  Uiso   1.00
C1055  C     0.84865   0.93160   0.74886   0.00000  Uiso   1.00
C1056  C     0.81801   0.73507   0.75114   0.00000  Uiso   1.00
C1057  C     0.81526   0.92534   0.97897   0.00000  Uiso   1.00
C1058  C     0.85145   0.74135   0.52103   0.00000  Uiso   1.00
C1059  C     0.85665   0.98613   0.74825   0.00000  Uiso   1.00
C1060  C     0.81001   0.68054   0.75174   0.00000  Uiso   1.00
C1061  C     0.83413   0.83338   0.83629   0.00000  Uiso   1.00
C1062  C     0.83254   0.83328   0.66371   0.00000  Uiso   1.00
C1063  C     0.83570   0.78613   0.59269   0.00000  Uiso   1.00
C1064  C     0.83097   0.88054   0.90731   0.00000  Uiso   1.00
C1065  C     0.83082   0.83312   0.61620   0.00000  Uiso   1.00
C1066  C     0.83586   0.83355   0.88380   0.00000  Uiso   1.00
C1067  C     0.82624   0.88010   0.59466   0.00000  Uiso   1.00
C1068  C     0.84046   0.78657   0.90534   0.00000  Uiso   1.00
C1069  C     0.82389   0.87983   0.54804   0.00000  Uiso   1.00
C1070  C     0.84282   0.78686   0.95196   0.00000  Uiso   1.00
C1071  C     0.83263   0.83326   0.52348   0.00000  Uiso   1.00
C1072  C     0.83408   0.83342   0.97652   0.00000  Uiso   1.00
C1073  C     0.83999   0.78654   0.54583   0.00000  Uiso   1.00
C1074  C     0.82671   0.88014   0.95417   0.00000  Uiso   1.00
C1075  C     0.81377   0.92515   0.52558   0.00000  Uiso   1.00
C1076  C     0.85294   0.74153   0.97441   0.00000  Uiso   1.00
H1077  H     0.80445   0.96044   0.54402   0.00000  Uiso   1.00
H1078  H     0.86227   0.70624   0.95598   0.00000  Uiso   1.00
H1079  H     0.80698   0.96075   0.96243   0.00000  Uiso   1.00
H1080  H     0.85973   0.70593   0.53757   0.00000  Uiso   1.00
H1081  H     0.90066   0.66994   0.74490   0.00000  Uiso   1.00
H1082  H     0.76600   0.99673   0.75510   0.00000  Uiso   1.00
H1083  H     0.67124   0.79430   0.71613   0.00000  Uiso   1.00
H1084  H     0.99542   0.87237   0.78387   0.00000  Uiso   1.00
N1085  N     0.98344   0.81932   0.73783   0.00000  Uiso   1.00
N1086  N     0.68322   0.84735   0.76217   0.00000  Uiso   1.00
O1087  O     0.79642   0.91286   0.75298   0.00000  Uiso   1.00
O1088  O     0.87025   0.75381   0.74701   0.00000  Uiso   1.00
O1089  O     0.89280   0.90387   0.74518   0.00000  Uiso   1.00
O1090  O     0.77387   0.76279   0.75481   0.00000  Uiso   1.00
O1091  O     0.78514   0.83784   0.81997   0.00000  Uiso   1.00
O1092  O     0.88153   0.82883   0.68002   0.00000  Uiso   1.00
O1093  O     0.88152   0.82885   0.81217   0.00000  Uiso   1.00
O1094  O     0.78515   0.83781   0.68782   0.00000  Uiso   1.00
Zn1095 Zn    0.76898   0.83933   0.75521   0.00000  Uiso   1.00
Zn1096 Zn    0.89769   0.82734   0.74479   0.00000  Uiso   1.00
O1097  O     0.83819   0.74037   0.61586   0.00000  Uiso   1.00
C1098  C     0.78130   0.71865   0.62458   0.00000  Uiso   1.00
H1099  H     0.75295   0.74641   0.64265   0.00000  Uiso   1.00
H1100  H     0.78219   0.68475   0.64676   0.00000  Uiso   1.00
H1101  H     0.76246   0.70483   0.59286   0.00000  Uiso   1.00
O1102  O     0.82843   0.92629   0.88413   0.00000  Uiso   1.00
C1103  C     0.88530   0.94804   0.87535   0.00000  Uiso   1.00
H1104  H     0.91374   0.92017   0.85748   0.00000  Uiso   1.00
H1105  H     0.90405   0.96212   0.90703   0.00000  Uiso   1.00
H1106  H     0.88438   0.98175   0.85293   0.00000  Uiso   1.00
O1107  O     0.82317   0.92580   0.61959   0.00000  Uiso   1.00
C1108  C     0.87968   0.94870   0.62209   0.00000  Uiso   1.00
H1109  H     0.87826   0.98268   0.64535   0.00000  Uiso   1.00
H1110  H     0.89769   0.96278   0.58857   0.00000  Uiso   1.00
H1111  H     0.90903   0.92163   0.63587   0.00000  Uiso   1.00
O1112  O     0.84353   0.74087   0.88041   0.00000  Uiso   1.00
C1113  C     0.78701   0.71797   0.87792   0.00000  Uiso   1.00
H1114  H     0.76902   0.70387   0.91144   0.00000  Uiso   1.00
H1115  H     0.78842   0.68401   0.85464   0.00000  Uiso   1.00
H1116  H     0.75764   0.74505   0.86417   0.00000  Uiso   1.00
loop_
_geom_bond_atom_site_label_1
_geom_bond_atom_site_label_2
_geom_bond_distance
_geom_bond_site_symmetry_2
_ccdc_geom_bond_type
C1     O33     1.277   .     A
C1     C5      1.407   .     S
C1     O35     1.290   .     A
C2     O34     1.277   .     A
C2     C6      1.407   .     S
C2     O36     1.290   .     A
C3     C20     1.400   .     A
C3     H25     1.081   .     S
C3     C579    1.386   .     S
C4     H26     1.081   .     S
C4     C19     1.400   .     A
C4     C580    1.386   1_554 S
C5     C192    1.338   .     S
C5     H213    1.088   .     S
C6     C377    1.338   1_545 S
C6     H400    1.088   1_545 S
C7     O37     1.284   .     A
C7     C12     1.418   .     S
C7     O39     1.285   .     A
C8     O38     1.284   .     A
C8     C11     1.418   .     S
C8     O40     1.285   .     A
C9     C11     1.396   .     A
C9     O43     1.385   .     S
C9     C19     1.392   .     A
C10    O48     1.385   .     S
C10    C12     1.396   .     A
C10    C20     1.392   .     A
C11    C13     1.396   .     A
C12    C14     1.396   .     A
C13    C15     1.392   .     A
C13    O53     1.385   .     S
C14    O58     1.385   .     S
C14    C16     1.392   .     A
C15    C21     1.400   .     A
C15    C17     1.414   .     A
C16    C18     1.414   .     A
C16    C22     1.400   .     A
C17    C19     1.414   .     A
C17    C576    1.396   1_554 S
C18    C20     1.414   .     A
C18    C575    1.396   .     S
C21    H23     1.081   .     S
C21    C561    1.386   1_554 S
C22    H24     1.081   .     S
C22    C562    1.386   .     S
H27    C377    1.088   1_545 S
H28    C192    1.088   .     S
H29    N155    1.029   1_455 S
H30    N94     1.029   .     S
N31    Zn42    2.018   .     S
N31    H91     1.029   .     S
N31    N94     1.276   .     S
N32    Zn41    2.018   .     S
N32    H154    1.029   1_455 S
N32    N155    1.276   1_455 S
O33    Zn41    1.962   .     S
O34    Zn42    1.962   .     S
O35    Zn42    1.986   .     S
O36    Zn41    1.986   .     S
O37    Zn41    1.992   .     S
O38    Zn42    1.992   .     S
O39    Zn42    2.015   .     S
O40    Zn41    2.015   .     S
O43    C44     1.412   .     S
C44    H47     1.112   .     S
C44    H45     1.113   .     S
C44    H46     1.108   .     S
O48    C49     1.412   .     S
C49    H52     1.109   .     S
C49    H50     1.114   .     S
C49    H51     1.112   .     S
O53    C54     1.412   .     S
C54    H56     1.112   .     S
C54    H55     1.108   .     S
C54    H57     1.113   .     S
O58    C59     1.413   .     S
C59    H60     1.112   .     S
C59    H61     1.108   .     S
C59    H62     1.113   .     S
C63    O95     1.277   .     A
C63    C67     1.407   .     S
C63    O97     1.290   .     A
C64    O96     1.277   .     A
C64    C68     1.407   .     S
C64    O98     1.290   .     A
C65    C82     1.400   .     A
C65    H87     1.081   .     S
C65    C641    1.386   .     S
C66    H88     1.081   .     S
C66    C81     1.400   .     A
C66    C642    1.386   1_554 S
C67    C254    1.338   .     S
C67    H275    1.088   .     S
C68    C439    1.338   1_545 S
C68    H462    1.088   1_545 S
C69    O99     1.284   .     A
C69    C74     1.418   .     S
C69    O101    1.285   .     A
C70    O100    1.284   .     A
C70    C73     1.418   .     S
C70    O102    1.285   .     A
C71    C73     1.396   .     A
C71    O105    1.385   .     S
C71    C81     1.392   .     A
C72    O110    1.385   .     S
C72    C74     1.396   .     A
C72    C82     1.392   .     A
C73    C75     1.396   .     A
C74    C76     1.396   .     A
C75    C77     1.392   .     A
C75    O115    1.385   .     S
C76    O120    1.385   .     S
C76    C78     1.392   .     A
C77    C83     1.400   .     A
C77    C79     1.414   .     A
C78    C80     1.414   .     A
C78    C84     1.400   .     A
C79    C81     1.414   .     A
C79    C638    1.396   1_554 S
C80    C82     1.414   .     A
C80    C637    1.396   .     S
C83    H85     1.081   .     S
C83    C623    1.386   1_554 S
C84    H86     1.081   .     S
C84    C624    1.386   .     S
H89    C439    1.088   1_545 S
H90    C254    1.088   .     S
H92    N156    1.029   .     S
N93    Zn104   2.018   .     S
N93    H153    1.029   .     S
N93    N156    1.276   .     S
N94    Zn103   2.018   .     S
O95    Zn103   1.962   .     S
O96    Zn104   1.962   .     S
O97    Zn104   1.986   .     S
O98    Zn103   1.986   .     S
O99    Zn103   1.992   .     S
O100   Zn104   1.992   .     S
O101   Zn104   2.015   .     S
O102   Zn103   2.015   .     S
O105   C106    1.412   .     S
C106   H109    1.112   .     S
C106   H107    1.113   .     S
C106   H108    1.108   .     S
O110   C111    1.412   .     S
C111   H114    1.109   .     S
C111   H112    1.114   .     S
C111   H113    1.112   .     S
O115   C116    1.412   .     S
C116   H118    1.112   .     S
C116   H117    1.108   .     S
C116   H119    1.113   .     S
O120   C121    1.413   .     S
C121   H122    1.112   .     S
C121   H123    1.108   .     S
C121   H124    1.113   .     S
C125   O157    1.277   .     A
C125   C129    1.407   .     S
C125   O159    1.290   .     A
C126   O158    1.277   .     A
C126   C130    1.407   .     S
C126   O160    1.290   .     A
C127   C144    1.400   .     A
C127   H149    1.081   .     S
C127   C703    1.386   .     S
C128   H150    1.081   .     S
C128   C143    1.400   .     A
C128   C704    1.386   1_554 S
C129   C316    1.338   .     S
C129   H337    1.088   .     S
C130   C501    1.338   1_545 S
C130   H524    1.088   1_545 S
C131   O161    1.284   .     A
C131   C136    1.418   .     S
C131   O163    1.285   .     A
C132   O162    1.284   .     A
C132   C135    1.418   .     S
C132   O164    1.285   .     A
C133   C135    1.396   .     A
C133   O167    1.385   .     S
C133   C143    1.392   .     A
C134   O172    1.385   .     S
C134   C136    1.396   .     A
C134   C144    1.392   .     A
C135   C137    1.396   .     A
C136   C138    1.396   .     A
C137   C139    1.392   .     A
C137   O177    1.385   .     S
C138   O182    1.385   .     S
C138   C140    1.392   .     A
C139   C145    1.400   .     A
C139   C141    1.414   .     A
C140   C142    1.414   .     A
C140   C146    1.400   .     A
C141   C143    1.414   .     A
C141   C700    1.396   1_554 S
C142   C144    1.414   .     A
C142   C699    1.396   .     S
C145   H147    1.081   .     S
C145   C685    1.386   1_554 S
C146   H148    1.081   .     S
C146   C686    1.386   .     S
H151   C501    1.088   1_545 S
H152   C316    1.088   .     S
H154   N32     1.029   1_655 S
N155   Zn166   2.018   .     S
N155   H29     1.029   1_655 S
N155   N32     1.276   1_655 S
N156   Zn165   2.018   .     S
O157   Zn165   1.962   .     S
O158   Zn166   1.962   .     S
O159   Zn166   1.986   .     S
O160   Zn165   1.986   .     S
O161   Zn165   1.992   .     S
O162   Zn166   1.992   .     S
O163   Zn166   2.015   .     S
O164   Zn165   2.015   .     S
O167   C168    1.412   .     S
C168   H171    1.112   .     S
C168   H169    1.113   .     S
C168   H170    1.108   .     S
O172   C173    1.412   .     S
C173   H176    1.109   .     S
C173   H174    1.114   .     S
C173   H175    1.112   .     S
O177   C178    1.412   .     S
C178   H180    1.112   .     S
C178   H179    1.108   .     S
C178   H181    1.113   .     S
O182   C183    1.413   .     S
C183   H184    1.112   .     S
C183   H185    1.108   .     S
C183   H186    1.113   .     S
C187   O219    1.277   .     A
C187   C191    1.407   .     S
C187   O221    1.290   .     A
C188   O220    1.277   .     A
C188   C192    1.407   .     S
C188   O222    1.290   .     A
C189   C206    1.400   .     A
C189   H211    1.081   .     S
C189   C765    1.386   .     S
C190   H212    1.081   .     S
C190   C205    1.400   .     A
C190   C766    1.386   1_554 S
C191   C378    1.338   .     S
C191   H399    1.088   .     S
C193   O223    1.284   .     A
C193   C198    1.418   .     S
C193   O225    1.285   .     A
C194   O224    1.284   .     A
C194   C197    1.418   .     S
C194   O226    1.285   .     A
C195   C197    1.396   .     A
C195   O229    1.385   .     S
C195   C205    1.392   .     A
C196   O234    1.385   .     S
C196   C198    1.396   .     A
C196   C206    1.392   .     A
C197   C199    1.396   .     A
C198   C200    1.396   .     A
C199   C201    1.392   .     A
C199   O239    1.385   .     S
C200   O244    1.385   .     S
C200   C202    1.392   .     A
C201   C207    1.400   .     A
C201   C203    1.414   .     A
C202   C204    1.414   .     A
C202   C208    1.400   .     A
C203   C205    1.414   .     A
C203   C762    1.396   1_554 S
C204   C206    1.414   .     A
C204   C761    1.396   .     S
C207   H209    1.081   .     S
C207   C747    1.386   1_554 S
C208   H210    1.081   .     S
C208   C748    1.386   .     S
H214   C378    1.088   .     S
H215   N341    1.029   1_455 S
H216   N280    1.029   .     S
N217   Zn228   2.018   .     S
N217   H277    1.029   .     S
N217   N280    1.276   .     S
N218   Zn227   2.018   .     S
N218   H340    1.029   1_455 S
N218   N341    1.276   1_455 S
O219   Zn227   1.962   .     S
O220   Zn228   1.962   .     S
O221   Zn228   1.986   .     S
O222   Zn227   1.986   .     S
O223   Zn227   1.992   .     S
O224   Zn228   1.992   .     S
O225   Zn228   2.015   .     S
O226   Zn227   2.015   .     S
O229   C230    1.412   .     S
C230   H233    1.112   .     S
C230   H231    1.113   .     S
C230   H232    1.108   .     S
O234   C235    1.412   .     S
C235   H238    1.109   .     S
C235   H236    1.114   .     S
C235   H237    1.112   .     S
O239   C240    1.412   .     S
C240   H242    1.112   .     S
C240   H241    1.108   .     S
C240   H243    1.113   .     S
O244   C245    1.413   .     S
C245   H246    1.112   .     S
C245   H247    1.108   .     S
C245   H248    1.113   .     S
C249   O281    1.277   .     A
C249   C253    1.407   .     S
C249   O283    1.290   .     A
C250   O282    1.277   .     A
C250   C254    1.407   .     S
C250   O284    1.290   .     A
C251   C268    1.400   .     A
C251   H273    1.081   .     S
C251   C827    1.386   .     S
C252   H274    1.081   .     S
C252   C267    1.400   .     A
C252   C828    1.386   1_554 S
C253   C440    1.338   .     S
C253   H461    1.088   .     S
C255   O285    1.284   .     A
C255   C260    1.418   .     S
C255   O287    1.285   .     A
C256   O286    1.284   .     A
C256   C259    1.418   .     S
C256   O288    1.285   .     A
C257   C259    1.396   .     A
C257   O291    1.385   .     S
C257   C267    1.392   .     A
C258   O296    1.385   .     S
C258   C260    1.396   .     A
C258   C268    1.392   .     A
C259   C261    1.396   .     A
C260   C262    1.396   .     A
C261   C263    1.392   .     A
C261   O301    1.385   .     S
C262   O306    1.385   .     S
C262   C264    1.392   .     A
C263   C269    1.400   .     A
C263   C265    1.414   .     A
C264   C266    1.414   .     A
C264   C270    1.400   .     A
C265   C267    1.414   .     A
C265   C824    1.396   1_554 S
C266   C268    1.414   .     A
C266   C823    1.396   .     S
C269   H271    1.081   .     S
C269   C809    1.386   1_554 S
C270   H272    1.081   .     S
C270   C810    1.386   .     S
H276   C440    1.088   .     S
H278   N342    1.029   .     S
N279   Zn290   2.018   .     S
N279   H339    1.029   .     S
N279   N342    1.276   .     S
N280   Zn289   2.018   .     S
O281   Zn289   1.962   .     S
O282   Zn290   1.962   .     S
O283   Zn290   1.986   .     S
O284   Zn289   1.986   .     S
O285   Zn289   1.992   .     S
O286   Zn290   1.992   .     S
O287   Zn290   2.015   .     S
O288   Zn289   2.015   .     S
O291   C292    1.412   .     S
C292   H295    1.112   .     S
C292   H293    1.113   .     S
C292   H294    1.108   .     S
O296   C297    1.412   .     S
C297   H300    1.109   .     S
C297   H298    1.114   .     S
C297   H299    1.112   .     S
O301   C302    1.412   .     S
C302   H304    1.112   .     S
C302   H303    1.108   .     S
C302   H305    1.113   .     S
O306   C307    1.413   .     S
C307   H308    1.112   .     S
C307   H309    1.108   .     S
C307   H310    1.113   .     S
C311   O343    1.277   .     A
C311   C315    1.407   .     S
C311   O345    1.290   .     A
C312   O344    1.277   .     A
C312   C316    1.407   .     S
C312   O346    1.290   .     A
C313   C330    1.400   .     A
C313   H335    1.081   .     S
C313   C889    1.386   .     S
C314   H336    1.081   .     S
C314   C329    1.400   .     A
C314   C890    1.386   1_554 S
C315   C502    1.338   .     S
C315   H523    1.088   .     S
C317   O347    1.284   .     A
C317   C322    1.418   .     S
C317   O349    1.285   .     A
C318   O348    1.284   .     A
C318   C321    1.418   .     S
C318   O350    1.285   .     A
C319   C321    1.396   .     A
C319   O353    1.385   .     S
C319   C329    1.392   .     A
C320   O358    1.385   .     S
C320   C322    1.396   .     A
C320   C330    1.392   .     A
C321   C323    1.396   .     A
C322   C324    1.396   .     A
C323   C325    1.392   .     A
C323   O363    1.385   .     S
C324   O368    1.385   .     S
C324   C326    1.392   .     A
C325   C331    1.400   .     A
C325   C327    1.414   .     A
C326   C328    1.414   .     A
C326   C332    1.400   .     A
C327   C329    1.414   .     A
C327   C886    1.396   1_554 S
C328   C330    1.414   .     A
C328   C885    1.396   .     S
C331   H333    1.081   .     S
C331   C871    1.386   1_554 S
C332   H334    1.081   .     S
C332   C872    1.386   .     S
H338   C502    1.088   .     S
H340   N218    1.029   1_655 S
N341   Zn352   2.018   .     S
N341   H215    1.029   1_655 S
N341   N218    1.276   1_655 S
N342   Zn351   2.018   .     S
O343   Zn351   1.962   .     S
O344   Zn352   1.962   .     S
O345   Zn352   1.986   .     S
O346   Zn351   1.986   .     S
O347   Zn351   1.992   .     S
O348   Zn352   1.992   .     S
O349   Zn352   2.015   .     S
O350   Zn351   2.015   .     S
O353   C354    1.412   .     S
C354   H357    1.112   .     S
C354   H355    1.113   .     S
C354   H356    1.108   .     S
O358   C359    1.412   .     S
C359   H362    1.109   .     S
C359   H360    1.114   .     S
C359   H361    1.112   .     S
O363   C364    1.412   .     S
C364   H366    1.112   .     S
C364   H365    1.108   .     S
C364   H367    1.113   .     S
O368   C369    1.413   .     S
C369   H370    1.112   .     S
C369   H371    1.108   .     S
C369   H372    1.113   .     S
C373   O405    1.277   .     A
C373   C377    1.407   .     S
C373   O407    1.290   .     A
C374   O406    1.277   .     A
C374   C378    1.407   .     S
C374   O408    1.290   .     A
C375   C392    1.400   .     A
C375   H397    1.081   .     S
C375   C951    1.386   .     S
C376   H398    1.081   .     S
C376   C391    1.400   .     A
C376   C952    1.386   1_554 S
C377   C6      1.338   1_565 S
C377   H27     1.088   1_565 S
C379   O409    1.284   .     A
C379   C384    1.418   .     S
C379   O411    1.285   .     A
C380   O410    1.284   .     A
C380   C383    1.418   .     S
C380   O412    1.285   .     A
C381   C383    1.396   .     A
C381   O415    1.385   .     S
C381   C391    1.392   .     A
C382   O420    1.385   .     S
C382   C384    1.396   .     A
C382   C392    1.392   .     A
C383   C385    1.396   .     A
C384   C386    1.396   .     A
C385   C387    1.392   .     A
C385   O425    1.385   .     S
C386   O430    1.385   .     S
C386   C388    1.392   .     A
C387   C393    1.400   .     A
C387   C389    1.414   .     A
C388   C390    1.414   .     A
C388   C394    1.400   .     A
C389   C391    1.414   .     A
C389   C948    1.396   1_554 S
C390   C392    1.414   .     A
C390   C947    1.396   .     S
C393   H395    1.081   .     S
C393   C933    1.386   1_554 S
C394   H396    1.081   .     S
C394   C934    1.386   .     S
H400   C6      1.088   1_565 S
H401   N527    1.029   1_455 S
H402   N466    1.029   .     S
N403   Zn414   2.018   .     S
N403   H463    1.029   .     S
N403   N466    1.276   .     S
N404   Zn413   2.018   .     S
N404   H526    1.029   1_455 S
N404   N527    1.276   1_455 S
O405   Zn413   1.962   .     S
O406   Zn414   1.962   .     S
O407   Zn414   1.986   .     S
O408   Zn413   1.986   .     S
O409   Zn413   1.992   .     S
O410   Zn414   1.992   .     S
O411   Zn414   2.015   .     S
O412   Zn413   2.015   .     S
O415   C416    1.412   .     S
C416   H419    1.112   .     S
C416   H417    1.113   .     S
C416   H418    1.108   .     S
O420   C421    1.412   .     S
C421   H424    1.109   .     S
C421   H422    1.114   .     S
C421   H423    1.112   .     S
O425   C426    1.412   .     S
C426   H428    1.112   .     S
C426   H427    1.108   .     S
C426   H429    1.113   .     S
O430   C431    1.413   .     S
C431   H432    1.112   .     S
C431   H433    1.108   .     S
C431   H434    1.113   .     S
C435   O467    1.277   .     A
C435   C439    1.407   .     S
C435   O469    1.290   .     A
C436   O468    1.277   .     A
C436   C440    1.407   .     S
C436   O470    1.290   .     A
C437   C454    1.400   .     A
C437   H459    1.081   .     S
C437   C1013   1.386   .     S
C438   H460    1.081   .     S
C438   C453    1.400   .     A
C438   C1014   1.386   1_554 S
C439   C68     1.338   1_565 S
C439   H89     1.088   1_565 S
C441   O471    1.284   .     A
C441   C446    1.418   .     S
C441   O473    1.285   .     A
C442   O472    1.284   .     A
C442   C445    1.418   .     S
C442   O474    1.285   .     A
C443   C445    1.396   .     A
C443   O477    1.385   .     S
C443   C453    1.392   .     A
C444   O482    1.385   .     S
C444   C446    1.396   .     A
C444   C454    1.392   .     A
C445   C447    1.396   .     A
C446   C448    1.396   .     A
C447   C449    1.392   .     A
C447   O487    1.385   .     S
C448   O492    1.385   .     S
C448   C450    1.392   .     A
C449   C455    1.400   .     A
C449   C451    1.414   .     A
C450   C452    1.414   .     A
C450   C456    1.400   .     A
C451   C453    1.414   .     A
C451   C1010   1.396   1_554 S
C452   C454    1.414   .     A
C452   C1009   1.396   .     S
C455   H457    1.081   .     S
C455   C995    1.386   1_554 S
C456   H458    1.081   .     S
C456   C996    1.386   .     S
H462   C68     1.088   1_565 S
H464   N528    1.029   .     S
N465   Zn476   2.018   .     S
N465   H525    1.029   .     S
N465   N528    1.276   .     S
N466   Zn475   2.018   .     S
O467   Zn475   1.962   .     S
O468   Zn476   1.962   .     S
O469   Zn476   1.986   .     S
O470   Zn475   1.986   .     S
O471   Zn475   1.992   .     S
O472   Zn476   1.992   .     S
O473   Zn476   2.015   .     S
O474   Zn475   2.015   .     S
O477   C478    1.412   .     S
C478   H481    1.112   .     S
C478   H479    1.113   .     S
C478   H480    1.108   .     S
O482   C483    1.412   .     S
C483   H486    1.109   .     S
C483   H484    1.114   .     S
C483   H485    1.112   .     S
O487   C488    1.412   .     S
C488   H490    1.112   .     S
C488   H489    1.108   .     S
C488   H491    1.113   .     S
O492   C493    1.413   .     S
C493   H494    1.112   .     S
C493   H495    1.108   .     S
C493   H496    1.113   .     S
C497   O529    1.277   .     A
C497   C501    1.407   .     S
C497   O531    1.290   .     A
C498   O530    1.277   .     A
C498   C502    1.407   .     S
C498   O532    1.290   .     A
C499   C516    1.400   .     A
C499   H521    1.081   .     S
C499   C1075   1.386   .     S
C500   H522    1.081   .     S
C500   C515    1.400   .     A
C500   C1076   1.386   1_554 S
C501   C130    1.338   1_565 S
C501   H151    1.088   1_565 S
C503   O533    1.284   .     A
C503   C508    1.418   .     S
C503   O535    1.285   .     A
C504   O534    1.284   .     A
C504   C507    1.418   .     S
C504   O536    1.285   .     A
C505   C507    1.396   .     A
C505   O539    1.385   .     S
C505   C515    1.392   .     A
C506   O544    1.385   .     S
C506   C508    1.396   .     A
C506   C516    1.392   .     A
C507   C509    1.396   .     A
C508   C510    1.396   .     A
C509   C511    1.392   .     A
C509   O549    1.385   .     S
C510   O554    1.385   .     S
C510   C512    1.392   .     A
C511   C517    1.400   .     A
C511   C513    1.414   .     A
C512   C514    1.414   .     A
C512   C518    1.400   .     A
C513   C515    1.414   .     A
C513   C1072   1.396   1_554 S
C514   C516    1.414   .     A
C514   C1071   1.396   .     S
C517   H519    1.081   .     S
C517   C1057   1.386   1_554 S
C518   H520    1.081   .     S
C518   C1058   1.386   .     S
H524   C130    1.088   1_565 S
H526   N404    1.029   1_655 S
N527   Zn538   2.018   .     S
N527   H401    1.029   1_655 S
N527   N404    1.276   1_655 S
N528   Zn537   2.018   .     S
O529   Zn537   1.962   .     S
O530   Zn538   1.962   .     S
O531   Zn538   1.986   .     S
O532   Zn537   1.986   .     S
O533   Zn537   1.992   .     S
O534   Zn538   1.992   .     S
O535   Zn538   2.015   .     S
O536   Zn537   2.015   .     S
O539   C540    1.412   .     S
C540   H543    1.112   .     S
C540   H541    1.113   .     S
C540   H542    1.108   .     S
O544   C545    1.412   .     S
C545   H548    1.109   .     S
C545   H546    1.114   .     S
C545   H547    1.112   .     S
O549   C550    1.412   .     S
C550   H552    1.112   .     S
C550   H551    1.108   .     S
C550   H553    1.113   .     S
O554   C555    1.413   .     S
C555   H556    1.112   .     S
C555   H557    1.108   .     S
C555   H558    1.113   .     S
C559   O591    1.277   .     A
C559   C563    1.407   .     S
C559   O593    1.290   .     A
C560   O592    1.277   .     A
C560   C564    1.407   .     S
C560   O594    1.290   .     A
C561   C578    1.400   .     A
C561   H583    1.081   .     S
C561   C21     1.386   1_556 S
C562   H584    1.081   .     S
C562   C577    1.400   .     A
C563   C750    1.338   .     S
C563   H771    1.088   .     S
C564   C935    1.338   1_545 S
C564   H958    1.088   1_545 S
C565   O595    1.284   .     A
C565   C570    1.418   .     S
C565   O597    1.285   .     A
C566   O596    1.284   .     A
C566   C569    1.418   .     S
C566   O598    1.285   .     A
C567   C569    1.396   .     A
C567   O601    1.385   .     S
C567   C577    1.392   .     A
C568   O606    1.385   .     S
C568   C570    1.396   .     A
C568   C578    1.392   .     A
C569   C571    1.396   .     A
C570   C572    1.396   .     A
C571   C573    1.392   .     A
C571   O611    1.385   .     S
C572   O616    1.385   .     S
C572   C574    1.392   .     A
C573   C579    1.400   .     A
C573   C575    1.414   .     A
C574   C576    1.414   .     A
C574   C580    1.400   .     A
C575   C577    1.414   .     A
C576   C578    1.414   .     A
C576   C17     1.396   1_556 S
C579   H581    1.081   .     S
C580   H582    1.081   .     S
C580   C4      1.386   1_556 S
H585   C935    1.088   1_545 S
H586   C750    1.088   .     S
H587   N713    1.029   1_455 S
H588   N652    1.029   .     S
N589   Zn600   2.018   .     S
N589   H649    1.029   .     S
N589   N652    1.276   .     S
N590   Zn599   2.018   .     S
N590   H712    1.029   1_455 S
N590   N713    1.276   1_455 S
O591   Zn599   1.962   .     S
O592   Zn600   1.962   .     S
O593   Zn600   1.986   .     S
O594   Zn599   1.986   .     S
O595   Zn599   1.992   .     S
O596   Zn600   1.992   .     S
O597   Zn600   2.015   .     S
O598   Zn599   2.015   .     S
O601   C602    1.412   .     S
C602   H605    1.112   .     S
C602   H603    1.113   .     S
C602   H604    1.108   .     S
O606   C607    1.412   .     S
C607   H610    1.109   .     S
C607   H608    1.114   .     S
C607   H609    1.112   .     S
O611   C612    1.412   .     S
C612   H614    1.112   .     S
C612   H613    1.108   .     S
C612   H615    1.113   .     S
O616   C617    1.413   .     S
C617   H618    1.112   .     S
C617   H619    1.108   .     S
C617   H620    1.113   .     S
C621   O653    1.277   .     A
C621   C625    1.407   .     S
C621   O655    1.290   .     A
C622   O654    1.277   .     A
C622   C626    1.407   .     S
C622   O656    1.290   .     A
C623   C640    1.400   .     A
C623   H645    1.081   .     S
C623   C83     1.386   1_556 S
C624   H646    1.081   .     S
C624   C639    1.400   .     A
C625   C812    1.338   .     S
C625   H833    1.088   .     S
C626   C997    1.338   1_545 S
C626   H1020   1.088   1_545 S
C627   O657    1.284   .     A
C627   C632    1.418   .     S
C627   O659    1.285   .     A
C628   O658    1.284   .     A
C628   C631    1.418   .     S
C628   O660    1.285   .     A
C629   C631    1.396   .     A
C629   O663    1.385   .     S
C629   C639    1.392   .     A
C630   O668    1.385   .     S
C630   C632    1.396   .     A
C630   C640    1.392   .     A
C631   C633    1.396   .     A
C632   C634    1.396   .     A
C633   C635    1.392   .     A
C633   O673    1.385   .     S
C634   O678    1.385   .     S
C634   C636    1.392   .     A
C635   C641    1.400   .     A
C635   C637    1.414   .     A
C636   C638    1.414   .     A
C636   C642    1.400   .     A
C637   C639    1.414   .     A
C638   C640    1.414   .     A
C638   C79     1.396   1_556 S
C641   H643    1.081   .     S
C642   H644    1.081   .     S
C642   C66     1.386   1_556 S
H647   C997    1.088   1_545 S
H648   C812    1.088   .     S
H650   N714    1.029   .     S
N651   Zn662   2.018   .     S
N651   H711    1.029   .     S
N651   N714    1.276   .     S
N652   Zn661   2.018   .     S
O653   Zn661   1.962   .     S
O654   Zn662   1.962   .     S
O655   Zn662   1.986   .     S
O656   Zn661   1.986   .     S
O657   Zn661   1.992   .     S
O658   Zn662   1.992   .     S
O659   Zn662   2.015   .     S
O660   Zn661   2.015   .     S
O663   C664    1.412   .     S
C664   H667    1.112   .     S
C664   H665    1.113   .     S
C664   H666    1.108   .     S
O668   C669    1.412   .     S
C669   H672    1.109   .     S
C669   H670    1.114   .     S
C669   H671    1.112   .     S
O673   C674    1.412   .     S
C674   H676    1.112   .     S
C674   H675    1.108   .     S
C674   H677    1.113   .     S
O678   C679    1.413   .     S
C679   H680    1.112   .     S
C679   H681    1.108   .     S
C679   H682    1.113   .     S
C683   O715    1.277   .     A
C683   C687    1.407   .     S
C683   O717    1.290   .     A
C684   O716    1.277   .     A
C684   C688    1.407   .     S
C684   O718    1.290   .     A
C685   C702    1.400   .     A
C685   H707    1.081   .     S
C685   C145    1.386   1_556 S
C686   H708    1.081   .     S
C686   C701    1.400   .     A
C687   C874    1.338   .     S
C687   H895    1.088   .     S
C688   C1059   1.338   1_545 S
C688   H1082   1.088   1_545 S
C689   O719    1.284   .     A
C689   C694    1.418   .     S
C689   O721    1.285   .     A
C690   O720    1.284   .     A
C690   C693    1.418   .     S
C690   O722    1.285   .     A
C691   C693    1.396   .     A
C691   O725    1.385   .     S
C691   C701    1.392   .     A
C692   O730    1.385   .     S
C692   C694    1.396   .     A
C692   C702    1.392   .     A
C693   C695    1.396   .     A
C694   C696    1.396   .     A
C695   C697    1.392   .     A
C695   O735    1.385   .     S
C696   O740    1.385   .     S
C696   C698    1.392   .     A
C697   C703    1.400   .     A
C697   C699    1.414   .     A
C698   C700    1.414   .     A
C698   C704    1.400   .     A
C699   C701    1.414   .     A
C700   C702    1.414   .     A
C700   C141    1.396   1_556 S
C703   H705    1.081   .     S
C704   H706    1.081   .     S
C704   C128    1.386   1_556 S
H709   C1059   1.088   1_545 S
H710   C874    1.088   .     S
H712   N590    1.029   1_655 S
N713   Zn724   2.018   .     S
N713   H587    1.029   1_655 S
N713   N590    1.276   1_655 S
N714   Zn723   2.018   .     S
O715   Zn723   1.962   .     S
O716   Zn724   1.962   .     S
O717   Zn724   1.986   .     S
O718   Zn723   1.986   .     S
O719   Zn723   1.992   .     S
O720   Zn724   1.992   .     S
O721   Zn724   2.015   .     S
O722   Zn723   2.015   .     S
O725   C726    1.412   .     S
C726   H729    1.112   .     S
C726   H727    1.113   .     S
C726   H728    1.108   .     S
O730   C731    1.412   .     S
C731   H734    1.109   .     S
C731   H732    1.114   .     S
C731   H733    1.112   .     S
O735   C736    1.412   .     S
C736   H738    1.112   .     S
C736   H737    1.108   .     S
C736   H739    1.113   .     S
O740   C741    1.413   .     S
C741   H742    1.112   .     S
C741   H743    1.108   .     S
C741   H744    1.113   .     S
C745   O777    1.277   .     A
C745   C749    1.407   .     S
C745   O779    1.290   .     A
C746   O778    1.277   .     A
C746   C750    1.407   .     S
C746   O780    1.290   .     A
C747   C764    1.400   .     A
C747   H769    1.081   .     S
C747   C207    1.386   1_556 S
C748   H770    1.081   .     S
C748   C763    1.400   .     A
C749   C936    1.338   .     S
C749   H957    1.088   .     S
C751   O781    1.284   .     A
C751   C756    1.418   .     S
C751   O783    1.285   .     A
C752   O782    1.284   .     A
C752   C755    1.418   .     S
C752   O784    1.285   .     A
C753   C755    1.396   .     A
C753   O787    1.385   .     S
C753   C763    1.392   .     A
C754   O792    1.385   .     S
C754   C756    1.396   .     A
C754   C764    1.392   .     A
C755   C757    1.396   .     A
C756   C758    1.396   .     A
C757   C759    1.392   .     A
C757   O797    1.385   .     S
C758   O802    1.385   .     S
C758   C760    1.392   .     A
C759   C765    1.400   .     A
C759   C761    1.414   .     A
C760   C762    1.414   .     A
C760   C766    1.400   .     A
C761   C763    1.414   .     A
C762   C764    1.414   .     A
C762   C203    1.396   1_556 S
C765   H767    1.081   .     S
C766   H768    1.081   .     S
C766   C190    1.386   1_556 S
H772   C936    1.088   .     S
H773   N899    1.029   1_455 S
H774   N838    1.029   .     S
N775   Zn786   2.018   .     S
N775   H835    1.029   .     S
N775   N838    1.276   .     S
N776   Zn785   2.018   .     S
N776   H898    1.029   1_455 S
N776   N899    1.276   1_455 S
O777   Zn785   1.962   .     S
O778   Zn786   1.962   .     S
O779   Zn786   1.986   .     S
O780   Zn785   1.986   .     S
O781   Zn785   1.992   .     S
O782   Zn786   1.992   .     S
O783   Zn786   2.015   .     S
O784   Zn785   2.015   .     S
O787   C788    1.412   .     S
C788   H791    1.112   .     S
C788   H789    1.113   .     S
C788   H790    1.108   .     S
O792   C793    1.412   .     S
C793   H796    1.109   .     S
C793   H794    1.114   .     S
C793   H795    1.112   .     S
O797   C798    1.412   .     S
C798   H800    1.112   .     S
C798   H799    1.108   .     S
C798   H801    1.113   .     S
O802   C803    1.413   .     S
C803   H804    1.112   .     S
C803   H805    1.108   .     S
C803   H806    1.113   .     S
C807   O839    1.277   .     A
C807   C811    1.407   .     S
C807   O841    1.290   .     A
C808   O840    1.277   .     A
C808   C812    1.407   .     S
C808   O842    1.290   .     A
C809   C826    1.400   .     A
C809   H831    1.081   .     S
C809   C269    1.386   1_556 S
C810   H832    1.081   .     S
C810   C825    1.400   .     A
C811   C998    1.338   .     S
C811   H1019   1.088   .     S
C813   O843    1.284   .     A
C813   C818    1.418   .     S
C813   O845    1.285   .     A
C814   O844    1.284   .     A
C814   C817    1.418   .     S
C814   O846    1.285   .     A
C815   C817    1.396   .     A
C815   O849    1.385   .     S
C815   C825    1.392   .     A
C816   O854    1.385   .     S
C816   C818    1.396   .     A
C816   C826    1.392   .     A
C817   C819    1.396   .     A
C818   C820    1.396   .     A
C819   C821    1.392   .     A
C819   O859    1.385   .     S
C820   O864    1.385   .     S
C820   C822    1.392   .     A
C821   C827    1.400   .     A
C821   C823    1.414   .     A
C822   C824    1.414   .     A
C822   C828    1.400   .     A
C823   C825    1.414   .     A
C824   C826    1.414   .     A
C824   C265    1.396   1_556 S
C827   H829    1.081   .     S
C828   H830    1.081   .     S
C828   C252    1.386   1_556 S
H834   C998    1.088   .     S
H836   N900    1.029   .     S
N837   Zn848   2.018   .     S
N837   H897    1.029   .     S
N837   N900    1.276   .     S
N838   Zn847   2.018   .     S
O839   Zn847   1.962   .     S
O840   Zn848   1.962   .     S
O841   Zn848   1.986   .     S
O842   Zn847   1.986   .     S
O843   Zn847   1.992   .     S
O844   Zn848   1.992   .     S
O845   Zn848   2.015   .     S
O846   Zn847   2.015   .     S
O849   C850    1.412   .     S
C850   H853    1.112   .     S
C850   H851    1.113   .     S
C850   H852    1.108   .     S
O854   C855    1.412   .     S
C855   H858    1.109   .     S
C855   H856    1.114   .     S
C855   H857    1.112   .     S
O859   C860    1.412   .     S
C860   H862    1.112   .     S
C860   H861    1.108   .     S
C860   H863    1.113   .     S
O864   C865    1.413   .     S
C865   H866    1.112   .     S
C865   H867    1.108   .     S
C865   H868    1.113   .     S
C869   O901    1.277   .     A
C869   C873    1.407   .     S
C869   O903    1.290   .     A
C870   O902    1.277   .     A
C870   C874    1.407   .     S
C870   O904    1.290   .     A
C871   C888    1.400   .     A
C871   H893    1.081   .     S
C871   C331    1.386   1_556 S
C872   H894    1.081   .     S
C872   C887    1.400   .     A
C873   C1060   1.338   .     S
C873   H1081   1.088   .     S
C875   O905    1.284   .     A
C875   C880    1.418   .     S
C875   O907    1.285   .     A
C876   O906    1.284   .     A
C876   C879    1.418   .     S
C876   O908    1.285   .     A
C877   C879    1.396   .     A
C877   O911    1.385   .     S
C877   C887    1.392   .     A
C878   O916    1.385   .     S
C878   C880    1.396   .     A
C878   C888    1.392   .     A
C879   C881    1.396   .     A
C880   C882    1.396   .     A
C881   C883    1.392   .     A
C881   O921    1.385   .     S
C882   O926    1.385   .     S
C882   C884    1.392   .     A
C883   C889    1.400   .     A
C883   C885    1.414   .     A
C884   C886    1.414   .     A
C884   C890    1.400   .     A
C885   C887    1.414   .     A
C886   C888    1.414   .     A
C886   C327    1.396   1_556 S
C889   H891    1.081   .     S
C890   H892    1.081   .     S
C890   C314    1.386   1_556 S
H896   C1060   1.088   .     S
H898   N776    1.029   1_655 S
N899   Zn910   2.018   .     S
N899   H773    1.029   1_655 S
N899   N776    1.276   1_655 S
N900   Zn909   2.018   .     S
O901   Zn909   1.962   .     S
O902   Zn910   1.962   .     S
O903   Zn910   1.986   .     S
O904   Zn909   1.986   .     S
O905   Zn909   1.992   .     S
O906   Zn910   1.992   .     S
O907   Zn910   2.015   .     S
O908   Zn909   2.015   .     S
O911   C912    1.412   .     S
C912   H915    1.112   .     S
C912   H913    1.113   .     S
C912   H914    1.108   .     S
O916   C917    1.412   .     S
C917   H920    1.109   .     S
C917   H918    1.114   .     S
C917   H919    1.112   .     S
O921   C922    1.412   .     S
C922   H924    1.112   .     S
C922   H923    1.108   .     S
C922   H925    1.113   .     S
O926   C927    1.413   .     S
C927   H928    1.112   .     S
C927   H929    1.108   .     S
C927   H930    1.113   .     S
C931   O963    1.277   .     A
C931   C935    1.407   .     S
C931   O965    1.290   .     A
C932   O964    1.277   .     A
C932   C936    1.407   .     S
C932   O966    1.290   .     A
C933   C950    1.400   .     A
C933   H955    1.081   .     S
C933   C393    1.386   1_556 S
C934   H956    1.081   .     S
C934   C949    1.400   .     A
C935   C564    1.338   1_565 S
C935   H585    1.088   1_565 S
C937   O967    1.284   .     A
C937   C942    1.418   .     S
C937   O969    1.285   .     A
C938   O968    1.284   .     A
C938   C941    1.418   .     S
C938   O970    1.285   .     A
C939   C941    1.396   .     A
C939   O973    1.385   .     S
C939   C949    1.392   .     A
C940   O978    1.385   .     S
C940   C942    1.396   .     A
C940   C950    1.392   .     A
C941   C943    1.396   .     A
C942   C944    1.396   .     A
C943   C945    1.392   .     A
C943   O983    1.385   .     S
C944   O988    1.385   .     S
C944   C946    1.392   .     A
C945   C951    1.400   .     A
C945   C947    1.414   .     A
C946   C948    1.414   .     A
C946   C952    1.400   .     A
C947   C949    1.414   .     A
C948   C950    1.414   .     A
C948   C389    1.396   1_556 S
C951   H953    1.081   .     S
C952   H954    1.081   .     S
C952   C376    1.386   1_556 S
H958   C564    1.088   1_565 S
H959   N1085   1.029   1_455 S
H960   N1024   1.029   .     S
N961   Zn972   2.018   .     S
N961   H1021   1.029   .     S
N961   N1024   1.276   .     S
N962   Zn971   2.018   .     S
N962   H1084   1.029   1_455 S
N962   N1085   1.276   1_455 S
O963   Zn971   1.962   .     S
O964   Zn972   1.962   .     S
O965   Zn972   1.986   .     S
O966   Zn971   1.986   .     S
O967   Zn971   1.992   .     S
O968   Zn972   1.992   .     S
O969   Zn972   2.015   .     S
O970   Zn971   2.015   .     S
O973   C974    1.412   .     S
C974   H977    1.112   .     S
C974   H975    1.113   .     S
C974   H976    1.108   .     S
O978   C979    1.412   .     S
C979   H982    1.109   .     S
C979   H980    1.114   .     S
C979   H981    1.112   .     S
O983   C984    1.412   .     S
C984   H986    1.112   .     S
C984   H985    1.108   .     S
C984   H987    1.113   .     S
O988   C989    1.413   .     S
C989   H990    1.112   .     S
C989   H991    1.108   .     S
C989   H992    1.113   .     S
C993   O1025   1.277   .     A
C993   C997    1.407   .     S
C993   O1027   1.290   .     A
C994   O1026   1.277   .     A
C994   C998    1.407   .     S
C994   O1028   1.290   .     A
C995   C1012   1.400   .     A
C995   H1017   1.081   .     S
C995   C455    1.386   1_556 S
C996   H1018   1.081   .     S
C996   C1011   1.400   .     A
C997   C626    1.338   1_565 S
C997   H647    1.088   1_565 S
C999   O1029   1.284   .     A
C999   C1004   1.418   .     S
C999   O1031   1.285   .     A
C1000  O1030   1.284   .     A
C1000  C1003   1.418   .     S
C1000  O1032   1.285   .     A
C1001  C1003   1.396   .     A
C1001  O1035   1.385   .     S
C1001  C1011   1.392   .     A
C1002  O1040   1.385   .     S
C1002  C1004   1.396   .     A
C1002  C1012   1.392   .     A
C1003  C1005   1.396   .     A
C1004  C1006   1.396   .     A
C1005  C1007   1.392   .     A
C1005  O1045   1.385   .     S
C1006  O1050   1.385   .     S
C1006  C1008   1.392   .     A
C1007  C1013   1.400   .     A
C1007  C1009   1.414   .     A
C1008  C1010   1.414   .     A
C1008  C1014   1.400   .     A
C1009  C1011   1.414   .     A
C1010  C1012   1.414   .     A
C1010  C451    1.396   1_556 S
C1013  H1015   1.081   .     S
C1014  H1016   1.081   .     S
C1014  C438    1.386   1_556 S
H1020  C626    1.088   1_565 S
H1022  N1086   1.029   .     S
N1023  Zn1034  2.018   .     S
N1023  H1083   1.029   .     S
N1023  N1086   1.276   .     S
N1024  Zn1033  2.018   .     S
O1025  Zn1033  1.962   .     S
O1026  Zn1034  1.962   .     S
O1027  Zn1034  1.986   .     S
O1028  Zn1033  1.986   .     S
O1029  Zn1033  1.992   .     S
O1030  Zn1034  1.992   .     S
O1031  Zn1034  2.015   .     S
O1032  Zn1033  2.015   .     S
O1035  C1036   1.412   .     S
C1036  H1039   1.112   .     S
C1036  H1037   1.113   .     S
C1036  H1038   1.108   .     S
O1040  C1041   1.412   .     S
C1041  H1044   1.109   .     S
C1041  H1042   1.114   .     S
C1041  H1043   1.112   .     S
O1045  C1046   1.412   .     S
C1046  H1048   1.112   .     S
C1046  H1047   1.108   .     S
C1046  H1049   1.113   .     S
O1050  C1051   1.413   .     S
C1051  H1052   1.112   .     S
C1051  H1053   1.108   .     S
C1051  H1054   1.113   .     S
C1055  O1087   1.277   .     A
C1055  C1059   1.407   .     S
C1055  O1089   1.290   .     A
C1056  O1088   1.277   .     A
C1056  C1060   1.407   .     S
C1056  O1090   1.290   .     A
C1057  C1074   1.400   .     A
C1057  H1079   1.081   .     S
C1057  C517    1.386   1_556 S
C1058  H1080   1.081   .     S
C1058  C1073   1.400   .     A
C1059  C688    1.338   1_565 S
C1059  H709    1.088   1_565 S
C1061  O1091   1.284   .     A
C1061  C1066   1.418   .     S
C1061  O1093   1.285   .     A
C1062  O1092   1.284   .     A
C1062  C1065   1.418   .     S
C1062  O1094   1.285   .     A
C1063  C1065   1.396   .     A
C1063  O1097   1.385   .     S
C1063  C1073   1.392   .     A
C1064  O1102   1.385   .     S
C1064  C1066   1.396   .     A
C1064  C1074   1.392   .     A
C1065  C1067   1.396   .     A
C1066  C1068   1.396   .     A
C1067  C1069   1.392   .     A
C1067  O1107   1.385   .     S
C1068  O1112   1.385   .     S
C1068  C1070   1.392   .     A
C1069  C1075   1.400   .     A
C1069  C1071   1.414   .     A
C1070  C1072   1.414   .     A
C1070  C1076   1.400   .     A
C1071  C1073   1.414   .     A
C1072  C1074   1.414   .     A
C1072  C513    1.396   1_556 S
C1075  H1077   1.081   .     S
C1076  H1078   1.081   .     S
C1076  C500    1.386   1_556 S
H1082  C688    1.088   1_565 S
H1084  N962    1.029   1_655 S
N1085  Zn1096  2.018   .     S
N1085  H959    1.029   1_655 S
N1085  N962    1.276   1_655 S
N1086  Zn1095  2.018   .     S
O1087  Zn1095  1.962   .     S
O1088  Zn1096  1.962   .     S
O1089  Zn1096  1.986   .     S
O1090  Zn1095  1.986   .     S
O1091  Zn1095  1.992   .     S
O1092  Zn1096  1.992   .     S
O1093  Zn1096  2.015   .     S
O1094  Zn1095  2.015   .     S
O1097  C1098   1.412   .     S
C1098  H1101   1.112   .     S
C1098  H1099   1.113   .     S
C1098  H1100   1.108   .     S
O1102  C1103   1.412   .     S
C1103  H1106   1.109   .     S
C1103  H1104   1.114   .     S
C1103  H1105   1.112   .     S
O1107  C1108   1.412   .     S
C1108  H1110   1.112   .     S
C1108  H1109   1.108   .     S
C1108  H1111   1.113   .     S
O1112  C1113   1.413   .     S
C1113  H1114   1.112   .     S
C1113  H1115   1.108   .     S
C1113  H1116   1.113   .     S
