data_str_m3_o1_o16_pcu_sym.224
_audit_creation_date              2020-01-03
_audit_creation_method            'Materials Studio'
_symmetry_space_group_name_H-M    'P1'
_symmetry_Int_Tables_number       1
_symmetry_cell_setting            triclinic
loop_
_symmetry_equiv_pos_as_xyz
  x,y,z
_cell_length_a                    29.7595
_cell_length_b                    31.8607
_cell_length_c                    26.4664
_cell_angle_alpha                 91.3041
_cell_angle_beta                  70.0137
_cell_angle_gamma                 90.4624
loop_
_atom_site_label
_atom_site_type_symbol
_atom_site_fract_x
_atom_site_fract_y
_atom_site_fract_z
_atom_site_U_iso_or_equiv
_atom_site_adp_type
_atom_site_occupancy
C1     C     0.16651   0.24645   0.25108   0.00000  Uiso   1.00
C2     C     0.14838   0.17312   0.48851   0.00000  Uiso   1.00
C3     C     0.15521   0.15508   0.43726   0.00000  Uiso   1.00
C4     C     0.18403   0.16552   0.01150   0.00000  Uiso   1.00
C5     C     0.22876   0.14776   0.48044   0.00000  Uiso   1.00
C6     C     0.23424   0.12889   0.43055   0.00000  Uiso   1.00
C7     C     0.19559   0.12939   0.41201   0.00000  Uiso   1.00
C8     C     0.17434   0.17059   0.06613   0.00000  Uiso   1.00
C9     C     0.25759   0.15875   0.05524   0.00000  Uiso   1.00
C10    C     0.12324   0.16524   0.41048   0.00000  Uiso   1.00
C11    C     0.19703   0.31079   0.20926   0.00000  Uiso   1.00
C12    C     0.14008   0.16475   0.35180   0.00000  Uiso   1.00
C13    C     0.19669   0.02071   0.20791   0.00000  Uiso   1.00
C14    C     0.16562   0.04270   0.25231   0.00000  Uiso   1.00
C15    C     0.13464   0.02241   0.29806   0.00000  Uiso   1.00
C16    C     0.13470   0.31240   0.29858   0.00000  Uiso   1.00
C17    C     0.16612   0.29054   0.25366   0.00000  Uiso   1.00
C18    C     0.31939   0.14121   0.21534   0.00000  Uiso   1.00
C19    C     0.03367   0.14101   0.21500   0.00000  Uiso   1.00
C20    C     0.01393   0.19227   0.28448   0.00000  Uiso   1.00
C21    C     0.29960   0.19254   0.28439   0.00000  Uiso   1.00
C22    C     0.16641   0.08685   0.25028   0.00000  Uiso   1.00
C23    C     0.19342   0.16731   0.14790   0.00000  Uiso   1.00
C24    C     0.26596   0.14672   0.00179   0.00000  Uiso   1.00
C25    C     0.20991   0.16691   0.08900   0.00000  Uiso   1.00
C26    C     0.07993   0.18526   0.43837   0.00000  Uiso   1.00
C27    C     0.07212   0.20208   0.48936   0.00000  Uiso   1.00
C28    C     0.10738   0.19936   0.01286   0.00000  Uiso   1.00
H29    H     0.02399   0.21281   0.31197   0.00000  Uiso   1.00
H30    H     0.30147   0.13626   0.47735   0.00000  Uiso   1.00
H31    H     0.13753   0.17351   0.09174   0.00000  Uiso   1.00
H32    H     0.05451   0.19224   0.41859   0.00000  Uiso   1.00
H33    H     0.04058   0.22113   0.00820   0.00000  Uiso   1.00
H34    H     0.19816   0.11087   0.37632   0.00000  Uiso   1.00
H35    H     0.22042   0.29277   0.17528   0.00000  Uiso   1.00
N36    N     0.04760   0.16668   0.25001   0.00000  Uiso   1.00
N37    N     0.28573   0.16665   0.25001   0.00000  Uiso   1.00
O38    O     0.12846   0.22775   0.25000   0.00000  Uiso   1.00
O39    O     0.20490   0.22774   0.25000   0.00000  Uiso   1.00
O40    O     0.10947   0.16666   0.32681   0.00000  Uiso   1.00
O41    O     0.18591   0.16665   0.32681   0.00000  Uiso   1.00
O42    O     0.12843   0.10559   0.24999   0.00000  Uiso   1.00
O43    O     0.20488   0.10558   0.25000   0.00000  Uiso   1.00
O44    O     0.14742   0.16668   0.17319   0.00000  Uiso   1.00
O45    O     0.22387   0.16667   0.17319   0.00000  Uiso   1.00
Zn46   Zn    0.11562   0.16667   0.25000   0.00000  Uiso   1.00
Zn47   Zn    0.21771   0.16666   0.25000   0.00000  Uiso   1.00
O48    O     0.29594   0.15963   0.07306   0.00000  Uiso   1.00
H49    H     0.29116   0.18349   0.09897   0.00000  Uiso   1.00
O50    O     0.22520   0.04218   0.16353   0.00000  Uiso   1.00
H51    H     0.24470   0.02178   0.13607   0.00000  Uiso   1.00
O52    O     0.10467   0.04342   0.34325   0.00000  Uiso   1.00
H53    H     0.11300   0.07355   0.34224   0.00000  Uiso   1.00
O54    O     0.10461   0.29297   0.34398   0.00000  Uiso   1.00
H55    H     0.11273   0.26288   0.34318   0.00000  Uiso   1.00
Cl56   Cl    0.30388   0.10762   0.17043   0.00000  Uiso   1.00
O57    O     0.06485   0.11442   0.17794   0.00000  Uiso   1.00
H58    H     0.09412   0.11200   0.18647   0.00000  Uiso   1.00
Cl59   Cl    0.25911   0.22756   0.32890   0.00000  Uiso   1.00
O60    O     0.27635   0.10837   0.40203   0.00000  Uiso   1.00
H61    H     0.27446   0.09768   0.36731   0.00000  Uiso   1.00
Cl62   Cl    0.10159   0.23659   0.06533   0.00000  Uiso   1.00
C63    C     0.49984   0.24645   0.25108   0.00000  Uiso   1.00
C64    C     0.48171   0.17312   0.48851   0.00000  Uiso   1.00
C65    C     0.48855   0.15508   0.43726   0.00000  Uiso   1.00
C66    C     0.51736   0.16552   0.01150   0.00000  Uiso   1.00
C67    C     0.56209   0.14776   0.48044   0.00000  Uiso   1.00
C68    C     0.56757   0.12889   0.43055   0.00000  Uiso   1.00
C69    C     0.52892   0.12939   0.41201   0.00000  Uiso   1.00
C70    C     0.50768   0.17059   0.06613   0.00000  Uiso   1.00
C71    C     0.59092   0.15875   0.05524   0.00000  Uiso   1.00
C72    C     0.45657   0.16524   0.41048   0.00000  Uiso   1.00
C73    C     0.53036   0.31079   0.20926   0.00000  Uiso   1.00
C74    C     0.47341   0.16475   0.35180   0.00000  Uiso   1.00
C75    C     0.53002   0.02071   0.20791   0.00000  Uiso   1.00
C76    C     0.49896   0.04270   0.25231   0.00000  Uiso   1.00
C77    C     0.46797   0.02241   0.29806   0.00000  Uiso   1.00
C78    C     0.46804   0.31240   0.29858   0.00000  Uiso   1.00
C79    C     0.49945   0.29054   0.25366   0.00000  Uiso   1.00
C80    C     0.65272   0.14121   0.21534   0.00000  Uiso   1.00
C81    C     0.36700   0.14101   0.21500   0.00000  Uiso   1.00
C82    C     0.34726   0.19227   0.28448   0.00000  Uiso   1.00
C83    C     0.63293   0.19254   0.28439   0.00000  Uiso   1.00
C84    C     0.49975   0.08685   0.25028   0.00000  Uiso   1.00
C85    C     0.52675   0.16731   0.14790   0.00000  Uiso   1.00
C86    C     0.59929   0.14672   0.00179   0.00000  Uiso   1.00
C87    C     0.54324   0.16691   0.08900   0.00000  Uiso   1.00
C88    C     0.41326   0.18526   0.43837   0.00000  Uiso   1.00
C89    C     0.40546   0.20208   0.48936   0.00000  Uiso   1.00
C90    C     0.44071   0.19936   0.01286   0.00000  Uiso   1.00
H91    H     0.35732   0.21281   0.31197   0.00000  Uiso   1.00
H92    H     0.63480   0.13626   0.47735   0.00000  Uiso   1.00
H93    H     0.47087   0.17351   0.09174   0.00000  Uiso   1.00
H94    H     0.38785   0.19224   0.41859   0.00000  Uiso   1.00
H95    H     0.37392   0.22113   0.00820   0.00000  Uiso   1.00
H96    H     0.53150   0.11087   0.37632   0.00000  Uiso   1.00
H97    H     0.55375   0.29277   0.17528   0.00000  Uiso   1.00
N98    N     0.38093   0.16668   0.25001   0.00000  Uiso   1.00
N99    N     0.61906   0.16665   0.25001   0.00000  Uiso   1.00
O100   O     0.46179   0.22775   0.25000   0.00000  Uiso   1.00
O101   O     0.53823   0.22774   0.25000   0.00000  Uiso   1.00
O102   O     0.44280   0.16666   0.32681   0.00000  Uiso   1.00
O103   O     0.51924   0.16665   0.32681   0.00000  Uiso   1.00
O104   O     0.46177   0.10559   0.24999   0.00000  Uiso   1.00
O105   O     0.53821   0.10558   0.25000   0.00000  Uiso   1.00
O106   O     0.48076   0.16668   0.17319   0.00000  Uiso   1.00
O107   O     0.55720   0.16667   0.17319   0.00000  Uiso   1.00
Zn108  Zn    0.44896   0.16667   0.25000   0.00000  Uiso   1.00
Zn109  Zn    0.55104   0.16666   0.25000   0.00000  Uiso   1.00
O110   O     0.62927   0.15963   0.07306   0.00000  Uiso   1.00
H111   H     0.62450   0.18349   0.09897   0.00000  Uiso   1.00
O112   O     0.55854   0.04218   0.16353   0.00000  Uiso   1.00
H113   H     0.57803   0.02178   0.13607   0.00000  Uiso   1.00
O114   O     0.43800   0.04342   0.34325   0.00000  Uiso   1.00
H115   H     0.44633   0.07355   0.34224   0.00000  Uiso   1.00
O116   O     0.43794   0.29297   0.34398   0.00000  Uiso   1.00
H117   H     0.44607   0.26288   0.34318   0.00000  Uiso   1.00
Cl118  Cl    0.63722   0.10762   0.17043   0.00000  Uiso   1.00
O119   O     0.39818   0.11442   0.17794   0.00000  Uiso   1.00
H120   H     0.42745   0.11200   0.18647   0.00000  Uiso   1.00
Cl121  Cl    0.59244   0.22756   0.32890   0.00000  Uiso   1.00
O122   O     0.60968   0.10837   0.40203   0.00000  Uiso   1.00
H123   H     0.60779   0.09768   0.36731   0.00000  Uiso   1.00
Cl124  Cl    0.43492   0.23659   0.06533   0.00000  Uiso   1.00
C125   C     0.83318   0.24645   0.25108   0.00000  Uiso   1.00
C126   C     0.81504   0.17312   0.48851   0.00000  Uiso   1.00
C127   C     0.82188   0.15508   0.43726   0.00000  Uiso   1.00
C128   C     0.85070   0.16552   0.01150   0.00000  Uiso   1.00
C129   C     0.89542   0.14776   0.48044   0.00000  Uiso   1.00
C130   C     0.90091   0.12889   0.43055   0.00000  Uiso   1.00
C131   C     0.86225   0.12939   0.41201   0.00000  Uiso   1.00
C132   C     0.84101   0.17059   0.06613   0.00000  Uiso   1.00
C133   C     0.92425   0.15875   0.05524   0.00000  Uiso   1.00
C134   C     0.78990   0.16524   0.41048   0.00000  Uiso   1.00
C135   C     0.86369   0.31079   0.20926   0.00000  Uiso   1.00
C136   C     0.80675   0.16475   0.35180   0.00000  Uiso   1.00
C137   C     0.86335   0.02071   0.20791   0.00000  Uiso   1.00
C138   C     0.83229   0.04270   0.25231   0.00000  Uiso   1.00
C139   C     0.80131   0.02241   0.29806   0.00000  Uiso   1.00
C140   C     0.80137   0.31240   0.29858   0.00000  Uiso   1.00
C141   C     0.83279   0.29054   0.25366   0.00000  Uiso   1.00
C142   C     0.98606   0.14121   0.21534   0.00000  Uiso   1.00
C143   C     0.70033   0.14101   0.21500   0.00000  Uiso   1.00
C144   C     0.68059   0.19227   0.28448   0.00000  Uiso   1.00
C145   C     0.96627   0.19254   0.28439   0.00000  Uiso   1.00
C146   C     0.83308   0.08685   0.25028   0.00000  Uiso   1.00
C147   C     0.86008   0.16731   0.14790   0.00000  Uiso   1.00
C148   C     0.93263   0.14672   0.00179   0.00000  Uiso   1.00
C149   C     0.87657   0.16691   0.08900   0.00000  Uiso   1.00
C150   C     0.74659   0.18526   0.43837   0.00000  Uiso   1.00
C151   C     0.73879   0.20208   0.48936   0.00000  Uiso   1.00
C152   C     0.77404   0.19936   0.01286   0.00000  Uiso   1.00
H153   H     0.69065   0.21281   0.31197   0.00000  Uiso   1.00
H154   H     0.96813   0.13626   0.47735   0.00000  Uiso   1.00
H155   H     0.80420   0.17351   0.09174   0.00000  Uiso   1.00
H156   H     0.72118   0.19224   0.41859   0.00000  Uiso   1.00
H157   H     0.70725   0.22113   0.00820   0.00000  Uiso   1.00
H158   H     0.86483   0.11087   0.37632   0.00000  Uiso   1.00
H159   H     0.88708   0.29277   0.17528   0.00000  Uiso   1.00
N160   N     0.71426   0.16668   0.25001   0.00000  Uiso   1.00
N161   N     0.95239   0.16665   0.25001   0.00000  Uiso   1.00
O162   O     0.79512   0.22775   0.25000   0.00000  Uiso   1.00
O163   O     0.87157   0.22774   0.25000   0.00000  Uiso   1.00
O164   O     0.77613   0.16666   0.32681   0.00000  Uiso   1.00
O165   O     0.85258   0.16665   0.32681   0.00000  Uiso   1.00
O166   O     0.79510   0.10559   0.24999   0.00000  Uiso   1.00
O167   O     0.87154   0.10558   0.25000   0.00000  Uiso   1.00
O168   O     0.81409   0.16668   0.17319   0.00000  Uiso   1.00
O169   O     0.89053   0.16667   0.17319   0.00000  Uiso   1.00
Zn170  Zn    0.78229   0.16667   0.25000   0.00000  Uiso   1.00
Zn171  Zn    0.88438   0.16666   0.25000   0.00000  Uiso   1.00
O172   O     0.96260   0.15963   0.07306   0.00000  Uiso   1.00
H173   H     0.95783   0.18349   0.09897   0.00000  Uiso   1.00
O174   O     0.89187   0.04218   0.16353   0.00000  Uiso   1.00
H175   H     0.91136   0.02178   0.13607   0.00000  Uiso   1.00
O176   O     0.77134   0.04342   0.34325   0.00000  Uiso   1.00
H177   H     0.77967   0.07355   0.34224   0.00000  Uiso   1.00
O178   O     0.77127   0.29297   0.34398   0.00000  Uiso   1.00
H179   H     0.77940   0.26288   0.34318   0.00000  Uiso   1.00
Cl180  Cl    0.97055   0.10762   0.17043   0.00000  Uiso   1.00
O181   O     0.73152   0.11442   0.17794   0.00000  Uiso   1.00
H182   H     0.76078   0.11200   0.18647   0.00000  Uiso   1.00
Cl183  Cl    0.92577   0.22756   0.32890   0.00000  Uiso   1.00
O184   O     0.94302   0.10837   0.40203   0.00000  Uiso   1.00
H185   H     0.94113   0.09768   0.36731   0.00000  Uiso   1.00
Cl186  Cl    0.76826   0.23659   0.06533   0.00000  Uiso   1.00
C187   C     0.16651   0.57979   0.25108   0.00000  Uiso   1.00
C188   C     0.14838   0.50645   0.48851   0.00000  Uiso   1.00
C189   C     0.15521   0.48841   0.43726   0.00000  Uiso   1.00
C190   C     0.18403   0.49886   0.01150   0.00000  Uiso   1.00
C191   C     0.22876   0.48110   0.48044   0.00000  Uiso   1.00
C192   C     0.23424   0.46223   0.43055   0.00000  Uiso   1.00
C193   C     0.19559   0.46272   0.41201   0.00000  Uiso   1.00
C194   C     0.17434   0.50392   0.06613   0.00000  Uiso   1.00
C195   C     0.25759   0.49208   0.05524   0.00000  Uiso   1.00
C196   C     0.12324   0.49857   0.41048   0.00000  Uiso   1.00
C197   C     0.19703   0.64413   0.20926   0.00000  Uiso   1.00
C198   C     0.14008   0.49809   0.35180   0.00000  Uiso   1.00
C199   C     0.19669   0.35405   0.20791   0.00000  Uiso   1.00
C200   C     0.16562   0.37603   0.25231   0.00000  Uiso   1.00
C201   C     0.13464   0.35574   0.29806   0.00000  Uiso   1.00
C202   C     0.13470   0.64573   0.29858   0.00000  Uiso   1.00
C203   C     0.16612   0.62388   0.25366   0.00000  Uiso   1.00
C204   C     0.31939   0.47455   0.21534   0.00000  Uiso   1.00
C205   C     0.03367   0.47434   0.21500   0.00000  Uiso   1.00
C206   C     0.01393   0.52561   0.28448   0.00000  Uiso   1.00
C207   C     0.29960   0.52587   0.28439   0.00000  Uiso   1.00
C208   C     0.16641   0.42019   0.25028   0.00000  Uiso   1.00
C209   C     0.19342   0.50064   0.14790   0.00000  Uiso   1.00
C210   C     0.26596   0.48006   0.00179   0.00000  Uiso   1.00
C211   C     0.20991   0.50024   0.08900   0.00000  Uiso   1.00
C212   C     0.07993   0.51859   0.43837   0.00000  Uiso   1.00
C213   C     0.07212   0.53542   0.48936   0.00000  Uiso   1.00
C214   C     0.10738   0.53270   0.01286   0.00000  Uiso   1.00
H215   H     0.02399   0.54614   0.31197   0.00000  Uiso   1.00
H216   H     0.30147   0.46960   0.47735   0.00000  Uiso   1.00
H217   H     0.13753   0.50684   0.09174   0.00000  Uiso   1.00
H218   H     0.05451   0.52557   0.41859   0.00000  Uiso   1.00
H219   H     0.04058   0.55447   0.00820   0.00000  Uiso   1.00
H220   H     0.19816   0.44420   0.37632   0.00000  Uiso   1.00
H221   H     0.22042   0.62611   0.17528   0.00000  Uiso   1.00
N222   N     0.04760   0.50001   0.25001   0.00000  Uiso   1.00
N223   N     0.28573   0.49998   0.25001   0.00000  Uiso   1.00
O224   O     0.12846   0.56108   0.25000   0.00000  Uiso   1.00
O225   O     0.20490   0.56107   0.25000   0.00000  Uiso   1.00
O226   O     0.10947   0.50000   0.32681   0.00000  Uiso   1.00
O227   O     0.18591   0.49999   0.32681   0.00000  Uiso   1.00
O228   O     0.12843   0.43893   0.24999   0.00000  Uiso   1.00
O229   O     0.20488   0.43892   0.25000   0.00000  Uiso   1.00
O230   O     0.14742   0.50001   0.17319   0.00000  Uiso   1.00
O231   O     0.22387   0.50000   0.17319   0.00000  Uiso   1.00
Zn232  Zn    0.11562   0.50001   0.25000   0.00000  Uiso   1.00
Zn233  Zn    0.21771   0.49999   0.25000   0.00000  Uiso   1.00
O234   O     0.29594   0.49296   0.07306   0.00000  Uiso   1.00
H235   H     0.29116   0.51682   0.09897   0.00000  Uiso   1.00
O236   O     0.22520   0.37551   0.16353   0.00000  Uiso   1.00
H237   H     0.24470   0.35511   0.13607   0.00000  Uiso   1.00
O238   O     0.10467   0.37676   0.34325   0.00000  Uiso   1.00
H239   H     0.11300   0.40688   0.34224   0.00000  Uiso   1.00
O240   O     0.10461   0.62630   0.34398   0.00000  Uiso   1.00
H241   H     0.11273   0.59621   0.34318   0.00000  Uiso   1.00
Cl242  Cl    0.30388   0.44095   0.17043   0.00000  Uiso   1.00
O243   O     0.06485   0.44775   0.17794   0.00000  Uiso   1.00
H244   H     0.09412   0.44534   0.18647   0.00000  Uiso   1.00
Cl245  Cl    0.25911   0.56090   0.32890   0.00000  Uiso   1.00
O246   O     0.27635   0.44170   0.40203   0.00000  Uiso   1.00
H247   H     0.27446   0.43102   0.36731   0.00000  Uiso   1.00
Cl248  Cl    0.10159   0.56993   0.06533   0.00000  Uiso   1.00
C249   C     0.49984   0.57979   0.25108   0.00000  Uiso   1.00
C250   C     0.48171   0.50645   0.48851   0.00000  Uiso   1.00
C251   C     0.48855   0.48841   0.43726   0.00000  Uiso   1.00
C252   C     0.51736   0.49886   0.01150   0.00000  Uiso   1.00
C253   C     0.56209   0.48110   0.48044   0.00000  Uiso   1.00
C254   C     0.56757   0.46223   0.43055   0.00000  Uiso   1.00
C255   C     0.52892   0.46272   0.41201   0.00000  Uiso   1.00
C256   C     0.50768   0.50392   0.06613   0.00000  Uiso   1.00
C257   C     0.59092   0.49208   0.05524   0.00000  Uiso   1.00
C258   C     0.45657   0.49857   0.41048   0.00000  Uiso   1.00
C259   C     0.53036   0.64413   0.20926   0.00000  Uiso   1.00
C260   C     0.47341   0.49809   0.35180   0.00000  Uiso   1.00
C261   C     0.53002   0.35405   0.20791   0.00000  Uiso   1.00
C262   C     0.49896   0.37603   0.25231   0.00000  Uiso   1.00
C263   C     0.46797   0.35574   0.29806   0.00000  Uiso   1.00
C264   C     0.46804   0.64573   0.29858   0.00000  Uiso   1.00
C265   C     0.49945   0.62388   0.25366   0.00000  Uiso   1.00
C266   C     0.65272   0.47455   0.21534   0.00000  Uiso   1.00
C267   C     0.36700   0.47434   0.21500   0.00000  Uiso   1.00
C268   C     0.34726   0.52561   0.28448   0.00000  Uiso   1.00
C269   C     0.63293   0.52587   0.28439   0.00000  Uiso   1.00
C270   C     0.49975   0.42019   0.25028   0.00000  Uiso   1.00
C271   C     0.52675   0.50064   0.14790   0.00000  Uiso   1.00
C272   C     0.59929   0.48006   0.00179   0.00000  Uiso   1.00
C273   C     0.54324   0.50024   0.08900   0.00000  Uiso   1.00
C274   C     0.41326   0.51859   0.43837   0.00000  Uiso   1.00
C275   C     0.40546   0.53542   0.48936   0.00000  Uiso   1.00
C276   C     0.44071   0.53270   0.01286   0.00000  Uiso   1.00
H277   H     0.35732   0.54614   0.31197   0.00000  Uiso   1.00
H278   H     0.63480   0.46960   0.47735   0.00000  Uiso   1.00
H279   H     0.47087   0.50684   0.09174   0.00000  Uiso   1.00
H280   H     0.38785   0.52557   0.41859   0.00000  Uiso   1.00
H281   H     0.37392   0.55447   0.00820   0.00000  Uiso   1.00
H282   H     0.53150   0.44420   0.37632   0.00000  Uiso   1.00
H283   H     0.55375   0.62611   0.17528   0.00000  Uiso   1.00
N284   N     0.38093   0.50001   0.25001   0.00000  Uiso   1.00
N285   N     0.61906   0.49998   0.25001   0.00000  Uiso   1.00
O286   O     0.46179   0.56108   0.25000   0.00000  Uiso   1.00
O287   O     0.53823   0.56107   0.25000   0.00000  Uiso   1.00
O288   O     0.44280   0.50000   0.32681   0.00000  Uiso   1.00
O289   O     0.51924   0.49999   0.32681   0.00000  Uiso   1.00
O290   O     0.46177   0.43893   0.24999   0.00000  Uiso   1.00
O291   O     0.53821   0.43892   0.25000   0.00000  Uiso   1.00
O292   O     0.48076   0.50001   0.17319   0.00000  Uiso   1.00
O293   O     0.55720   0.50000   0.17319   0.00000  Uiso   1.00
Zn294  Zn    0.44896   0.50001   0.25000   0.00000  Uiso   1.00
Zn295  Zn    0.55104   0.49999   0.25000   0.00000  Uiso   1.00
O296   O     0.62927   0.49296   0.07306   0.00000  Uiso   1.00
H297   H     0.62450   0.51682   0.09897   0.00000  Uiso   1.00
O298   O     0.55854   0.37551   0.16353   0.00000  Uiso   1.00
H299   H     0.57803   0.35511   0.13607   0.00000  Uiso   1.00
O300   O     0.43800   0.37676   0.34325   0.00000  Uiso   1.00
H301   H     0.44633   0.40688   0.34224   0.00000  Uiso   1.00
O302   O     0.43794   0.62630   0.34398   0.00000  Uiso   1.00
H303   H     0.44607   0.59621   0.34318   0.00000  Uiso   1.00
Cl304  Cl    0.63722   0.44095   0.17043   0.00000  Uiso   1.00
O305   O     0.39818   0.44775   0.17794   0.00000  Uiso   1.00
H306   H     0.42745   0.44534   0.18647   0.00000  Uiso   1.00
Cl307  Cl    0.59244   0.56090   0.32890   0.00000  Uiso   1.00
O308   O     0.60968   0.44170   0.40203   0.00000  Uiso   1.00
H309   H     0.60779   0.43102   0.36731   0.00000  Uiso   1.00
Cl310  Cl    0.43492   0.56993   0.06533   0.00000  Uiso   1.00
C311   C     0.83318   0.57979   0.25108   0.00000  Uiso   1.00
C312   C     0.81504   0.50645   0.48851   0.00000  Uiso   1.00
C313   C     0.82188   0.48841   0.43726   0.00000  Uiso   1.00
C314   C     0.85070   0.49886   0.01150   0.00000  Uiso   1.00
C315   C     0.89542   0.48110   0.48044   0.00000  Uiso   1.00
C316   C     0.90091   0.46223   0.43055   0.00000  Uiso   1.00
C317   C     0.86225   0.46272   0.41201   0.00000  Uiso   1.00
C318   C     0.84101   0.50392   0.06613   0.00000  Uiso   1.00
C319   C     0.92425   0.49208   0.05524   0.00000  Uiso   1.00
C320   C     0.78990   0.49857   0.41048   0.00000  Uiso   1.00
C321   C     0.86369   0.64413   0.20926   0.00000  Uiso   1.00
C322   C     0.80675   0.49809   0.35180   0.00000  Uiso   1.00
C323   C     0.86335   0.35405   0.20791   0.00000  Uiso   1.00
C324   C     0.83229   0.37603   0.25231   0.00000  Uiso   1.00
C325   C     0.80131   0.35574   0.29806   0.00000  Uiso   1.00
C326   C     0.80137   0.64573   0.29858   0.00000  Uiso   1.00
C327   C     0.83279   0.62388   0.25366   0.00000  Uiso   1.00
C328   C     0.98606   0.47455   0.21534   0.00000  Uiso   1.00
C329   C     0.70033   0.47434   0.21500   0.00000  Uiso   1.00
C330   C     0.68059   0.52561   0.28448   0.00000  Uiso   1.00
C331   C     0.96627   0.52587   0.28439   0.00000  Uiso   1.00
C332   C     0.83308   0.42019   0.25028   0.00000  Uiso   1.00
C333   C     0.86008   0.50064   0.14790   0.00000  Uiso   1.00
C334   C     0.93263   0.48006   0.00179   0.00000  Uiso   1.00
C335   C     0.87657   0.50024   0.08900   0.00000  Uiso   1.00
C336   C     0.74659   0.51859   0.43837   0.00000  Uiso   1.00
C337   C     0.73879   0.53542   0.48936   0.00000  Uiso   1.00
C338   C     0.77404   0.53270   0.01286   0.00000  Uiso   1.00
H339   H     0.69065   0.54614   0.31197   0.00000  Uiso   1.00
H340   H     0.96813   0.46960   0.47735   0.00000  Uiso   1.00
H341   H     0.80420   0.50684   0.09174   0.00000  Uiso   1.00
H342   H     0.72118   0.52557   0.41859   0.00000  Uiso   1.00
H343   H     0.70725   0.55447   0.00820   0.00000  Uiso   1.00
H344   H     0.86483   0.44420   0.37632   0.00000  Uiso   1.00
H345   H     0.88708   0.62611   0.17528   0.00000  Uiso   1.00
N346   N     0.71426   0.50001   0.25001   0.00000  Uiso   1.00
N347   N     0.95239   0.49998   0.25001   0.00000  Uiso   1.00
O348   O     0.79512   0.56108   0.25000   0.00000  Uiso   1.00
O349   O     0.87157   0.56107   0.25000   0.00000  Uiso   1.00
O350   O     0.77613   0.50000   0.32681   0.00000  Uiso   1.00
O351   O     0.85258   0.49999   0.32681   0.00000  Uiso   1.00
O352   O     0.79510   0.43893   0.24999   0.00000  Uiso   1.00
O353   O     0.87154   0.43892   0.25000   0.00000  Uiso   1.00
O354   O     0.81409   0.50001   0.17319   0.00000  Uiso   1.00
O355   O     0.89053   0.50000   0.17319   0.00000  Uiso   1.00
Zn356  Zn    0.78229   0.50001   0.25000   0.00000  Uiso   1.00
Zn357  Zn    0.88438   0.49999   0.25000   0.00000  Uiso   1.00
O358   O     0.96260   0.49296   0.07306   0.00000  Uiso   1.00
H359   H     0.95783   0.51682   0.09897   0.00000  Uiso   1.00
O360   O     0.89187   0.37551   0.16353   0.00000  Uiso   1.00
H361   H     0.91136   0.35511   0.13607   0.00000  Uiso   1.00
O362   O     0.77134   0.37676   0.34325   0.00000  Uiso   1.00
H363   H     0.77967   0.40688   0.34224   0.00000  Uiso   1.00
O364   O     0.77127   0.62630   0.34398   0.00000  Uiso   1.00
H365   H     0.77940   0.59621   0.34318   0.00000  Uiso   1.00
Cl366  Cl    0.97055   0.44095   0.17043   0.00000  Uiso   1.00
O367   O     0.73152   0.44775   0.17794   0.00000  Uiso   1.00
H368   H     0.76078   0.44534   0.18647   0.00000  Uiso   1.00
Cl369  Cl    0.92577   0.56090   0.32890   0.00000  Uiso   1.00
O370   O     0.94302   0.44170   0.40203   0.00000  Uiso   1.00
H371   H     0.94113   0.43102   0.36731   0.00000  Uiso   1.00
Cl372  Cl    0.76826   0.56993   0.06533   0.00000  Uiso   1.00
C373   C     0.16651   0.91312   0.25108   0.00000  Uiso   1.00
C374   C     0.14838   0.83979   0.48851   0.00000  Uiso   1.00
C375   C     0.15521   0.82174   0.43726   0.00000  Uiso   1.00
C376   C     0.18403   0.83219   0.01150   0.00000  Uiso   1.00
C377   C     0.22876   0.81443   0.48044   0.00000  Uiso   1.00
C378   C     0.23424   0.79556   0.43055   0.00000  Uiso   1.00
C379   C     0.19559   0.79606   0.41201   0.00000  Uiso   1.00
C380   C     0.17434   0.83726   0.06613   0.00000  Uiso   1.00
C381   C     0.25759   0.82542   0.05524   0.00000  Uiso   1.00
C382   C     0.12324   0.83191   0.41048   0.00000  Uiso   1.00
C383   C     0.19703   0.97746   0.20926   0.00000  Uiso   1.00
C384   C     0.14008   0.83142   0.35180   0.00000  Uiso   1.00
C385   C     0.19669   0.68738   0.20791   0.00000  Uiso   1.00
C386   C     0.16562   0.70937   0.25231   0.00000  Uiso   1.00
C387   C     0.13464   0.68908   0.29806   0.00000  Uiso   1.00
C388   C     0.13470   0.97907   0.29858   0.00000  Uiso   1.00
C389   C     0.16612   0.95721   0.25366   0.00000  Uiso   1.00
C390   C     0.31939   0.80788   0.21534   0.00000  Uiso   1.00
C391   C     0.03367   0.80767   0.21500   0.00000  Uiso   1.00
C392   C     0.01393   0.85894   0.28448   0.00000  Uiso   1.00
C393   C     0.29960   0.85920   0.28439   0.00000  Uiso   1.00
C394   C     0.16641   0.75352   0.25028   0.00000  Uiso   1.00
C395   C     0.19342   0.83397   0.14790   0.00000  Uiso   1.00
C396   C     0.26596   0.81339   0.00179   0.00000  Uiso   1.00
C397   C     0.20991   0.83358   0.08900   0.00000  Uiso   1.00
C398   C     0.07993   0.85193   0.43837   0.00000  Uiso   1.00
C399   C     0.07212   0.86875   0.48936   0.00000  Uiso   1.00
C400   C     0.10738   0.86603   0.01286   0.00000  Uiso   1.00
H401   H     0.02399   0.87947   0.31197   0.00000  Uiso   1.00
H402   H     0.30147   0.80293   0.47735   0.00000  Uiso   1.00
H403   H     0.13753   0.84018   0.09174   0.00000  Uiso   1.00
H404   H     0.05451   0.85891   0.41859   0.00000  Uiso   1.00
H405   H     0.04058   0.88780   0.00820   0.00000  Uiso   1.00
H406   H     0.19816   0.77754   0.37632   0.00000  Uiso   1.00
H407   H     0.22042   0.95944   0.17528   0.00000  Uiso   1.00
N408   N     0.04760   0.83334   0.25001   0.00000  Uiso   1.00
N409   N     0.28573   0.83331   0.25001   0.00000  Uiso   1.00
O410   O     0.12846   0.89442   0.25000   0.00000  Uiso   1.00
O411   O     0.20490   0.89441   0.25000   0.00000  Uiso   1.00
O412   O     0.10947   0.83333   0.32681   0.00000  Uiso   1.00
O413   O     0.18591   0.83332   0.32681   0.00000  Uiso   1.00
O414   O     0.12843   0.77226   0.24999   0.00000  Uiso   1.00
O415   O     0.20488   0.77225   0.25000   0.00000  Uiso   1.00
O416   O     0.14742   0.83335   0.17319   0.00000  Uiso   1.00
O417   O     0.22387   0.83334   0.17319   0.00000  Uiso   1.00
Zn418  Zn    0.11562   0.83334   0.25000   0.00000  Uiso   1.00
Zn419  Zn    0.21771   0.83333   0.25000   0.00000  Uiso   1.00
O420   O     0.29594   0.82630   0.07306   0.00000  Uiso   1.00
H421   H     0.29116   0.85016   0.09897   0.00000  Uiso   1.00
O422   O     0.22520   0.70885   0.16353   0.00000  Uiso   1.00
H423   H     0.24470   0.68845   0.13607   0.00000  Uiso   1.00
O424   O     0.10467   0.71009   0.34325   0.00000  Uiso   1.00
H425   H     0.11300   0.74022   0.34224   0.00000  Uiso   1.00
O426   O     0.10461   0.95964   0.34398   0.00000  Uiso   1.00
H427   H     0.11273   0.92954   0.34318   0.00000  Uiso   1.00
Cl428  Cl    0.30388   0.77428   0.17043   0.00000  Uiso   1.00
O429   O     0.06485   0.78109   0.17794   0.00000  Uiso   1.00
H430   H     0.09412   0.77867   0.18647   0.00000  Uiso   1.00
Cl431  Cl    0.25911   0.89423   0.32890   0.00000  Uiso   1.00
O432   O     0.27635   0.77503   0.40203   0.00000  Uiso   1.00
H433   H     0.27446   0.76435   0.36731   0.00000  Uiso   1.00
Cl434  Cl    0.10159   0.90326   0.06533   0.00000  Uiso   1.00
C435   C     0.49984   0.91312   0.25108   0.00000  Uiso   1.00
C436   C     0.48171   0.83979   0.48851   0.00000  Uiso   1.00
C437   C     0.48855   0.82174   0.43726   0.00000  Uiso   1.00
C438   C     0.51736   0.83219   0.01150   0.00000  Uiso   1.00
C439   C     0.56209   0.81443   0.48044   0.00000  Uiso   1.00
C440   C     0.56757   0.79556   0.43055   0.00000  Uiso   1.00
C441   C     0.52892   0.79606   0.41201   0.00000  Uiso   1.00
C442   C     0.50768   0.83726   0.06613   0.00000  Uiso   1.00
C443   C     0.59092   0.82542   0.05524   0.00000  Uiso   1.00
C444   C     0.45657   0.83191   0.41048   0.00000  Uiso   1.00
C445   C     0.53036   0.97746   0.20926   0.00000  Uiso   1.00
C446   C     0.47341   0.83142   0.35180   0.00000  Uiso   1.00
C447   C     0.53002   0.68738   0.20791   0.00000  Uiso   1.00
C448   C     0.49896   0.70937   0.25231   0.00000  Uiso   1.00
C449   C     0.46797   0.68908   0.29806   0.00000  Uiso   1.00
C450   C     0.46804   0.97907   0.29858   0.00000  Uiso   1.00
C451   C     0.49945   0.95721   0.25366   0.00000  Uiso   1.00
C452   C     0.65272   0.80788   0.21534   0.00000  Uiso   1.00
C453   C     0.36700   0.80767   0.21500   0.00000  Uiso   1.00
C454   C     0.34726   0.85894   0.28448   0.00000  Uiso   1.00
C455   C     0.63293   0.85920   0.28439   0.00000  Uiso   1.00
C456   C     0.49975   0.75352   0.25028   0.00000  Uiso   1.00
C457   C     0.52675   0.83397   0.14790   0.00000  Uiso   1.00
C458   C     0.59929   0.81339   0.00179   0.00000  Uiso   1.00
C459   C     0.54324   0.83358   0.08900   0.00000  Uiso   1.00
C460   C     0.41326   0.85193   0.43837   0.00000  Uiso   1.00
C461   C     0.40546   0.86875   0.48936   0.00000  Uiso   1.00
C462   C     0.44071   0.86603   0.01286   0.00000  Uiso   1.00
H463   H     0.35732   0.87947   0.31197   0.00000  Uiso   1.00
H464   H     0.63480   0.80293   0.47735   0.00000  Uiso   1.00
H465   H     0.47087   0.84018   0.09174   0.00000  Uiso   1.00
H466   H     0.38785   0.85891   0.41859   0.00000  Uiso   1.00
H467   H     0.37392   0.88780   0.00820   0.00000  Uiso   1.00
H468   H     0.53150   0.77754   0.37632   0.00000  Uiso   1.00
H469   H     0.55375   0.95944   0.17528   0.00000  Uiso   1.00
N470   N     0.38093   0.83334   0.25001   0.00000  Uiso   1.00
N471   N     0.61906   0.83331   0.25001   0.00000  Uiso   1.00
O472   O     0.46179   0.89442   0.25000   0.00000  Uiso   1.00
O473   O     0.53823   0.89441   0.25000   0.00000  Uiso   1.00
O474   O     0.44280   0.83333   0.32681   0.00000  Uiso   1.00
O475   O     0.51924   0.83332   0.32681   0.00000  Uiso   1.00
O476   O     0.46177   0.77226   0.24999   0.00000  Uiso   1.00
O477   O     0.53821   0.77225   0.25000   0.00000  Uiso   1.00
O478   O     0.48076   0.83335   0.17319   0.00000  Uiso   1.00
O479   O     0.55720   0.83334   0.17319   0.00000  Uiso   1.00
Zn480  Zn    0.44896   0.83334   0.25000   0.00000  Uiso   1.00
Zn481  Zn    0.55104   0.83333   0.25000   0.00000  Uiso   1.00
O482   O     0.62927   0.82630   0.07306   0.00000  Uiso   1.00
H483   H     0.62450   0.85016   0.09897   0.00000  Uiso   1.00
O484   O     0.55854   0.70885   0.16353   0.00000  Uiso   1.00
H485   H     0.57803   0.68845   0.13607   0.00000  Uiso   1.00
O486   O     0.43800   0.71009   0.34325   0.00000  Uiso   1.00
H487   H     0.44633   0.74022   0.34224   0.00000  Uiso   1.00
O488   O     0.43794   0.95964   0.34398   0.00000  Uiso   1.00
H489   H     0.44607   0.92954   0.34318   0.00000  Uiso   1.00
Cl490  Cl    0.63722   0.77428   0.17043   0.00000  Uiso   1.00
O491   O     0.39818   0.78109   0.17794   0.00000  Uiso   1.00
H492   H     0.42745   0.77867   0.18647   0.00000  Uiso   1.00
Cl493  Cl    0.59244   0.89423   0.32890   0.00000  Uiso   1.00
O494   O     0.60968   0.77503   0.40203   0.00000  Uiso   1.00
H495   H     0.60779   0.76435   0.36731   0.00000  Uiso   1.00
Cl496  Cl    0.43492   0.90326   0.06533   0.00000  Uiso   1.00
C497   C     0.83318   0.91312   0.25108   0.00000  Uiso   1.00
C498   C     0.81504   0.83979   0.48851   0.00000  Uiso   1.00
C499   C     0.82188   0.82174   0.43726   0.00000  Uiso   1.00
C500   C     0.85070   0.83219   0.01150   0.00000  Uiso   1.00
C501   C     0.89542   0.81443   0.48044   0.00000  Uiso   1.00
C502   C     0.90091   0.79556   0.43055   0.00000  Uiso   1.00
C503   C     0.86225   0.79606   0.41201   0.00000  Uiso   1.00
C504   C     0.84101   0.83726   0.06613   0.00000  Uiso   1.00
C505   C     0.92425   0.82542   0.05524   0.00000  Uiso   1.00
C506   C     0.78990   0.83191   0.41048   0.00000  Uiso   1.00
C507   C     0.86369   0.97746   0.20926   0.00000  Uiso   1.00
C508   C     0.80675   0.83142   0.35180   0.00000  Uiso   1.00
C509   C     0.86335   0.68738   0.20791   0.00000  Uiso   1.00
C510   C     0.83229   0.70937   0.25231   0.00000  Uiso   1.00
C511   C     0.80131   0.68908   0.29806   0.00000  Uiso   1.00
C512   C     0.80137   0.97907   0.29858   0.00000  Uiso   1.00
C513   C     0.83279   0.95721   0.25366   0.00000  Uiso   1.00
C514   C     0.98606   0.80788   0.21534   0.00000  Uiso   1.00
C515   C     0.70033   0.80767   0.21500   0.00000  Uiso   1.00
C516   C     0.68059   0.85894   0.28448   0.00000  Uiso   1.00
C517   C     0.96627   0.85920   0.28439   0.00000  Uiso   1.00
C518   C     0.83308   0.75352   0.25028   0.00000  Uiso   1.00
C519   C     0.86008   0.83397   0.14790   0.00000  Uiso   1.00
C520   C     0.93263   0.81339   0.00179   0.00000  Uiso   1.00
C521   C     0.87657   0.83358   0.08900   0.00000  Uiso   1.00
C522   C     0.74659   0.85193   0.43837   0.00000  Uiso   1.00
C523   C     0.73879   0.86875   0.48936   0.00000  Uiso   1.00
C524   C     0.77404   0.86603   0.01286   0.00000  Uiso   1.00
H525   H     0.69065   0.87947   0.31197   0.00000  Uiso   1.00
H526   H     0.96813   0.80293   0.47735   0.00000  Uiso   1.00
H527   H     0.80420   0.84018   0.09174   0.00000  Uiso   1.00
H528   H     0.72118   0.85891   0.41859   0.00000  Uiso   1.00
H529   H     0.70725   0.88780   0.00820   0.00000  Uiso   1.00
H530   H     0.86483   0.77754   0.37632   0.00000  Uiso   1.00
H531   H     0.88708   0.95944   0.17528   0.00000  Uiso   1.00
N532   N     0.71426   0.83334   0.25001   0.00000  Uiso   1.00
N533   N     0.95239   0.83331   0.25001   0.00000  Uiso   1.00
O534   O     0.79512   0.89442   0.25000   0.00000  Uiso   1.00
O535   O     0.87157   0.89441   0.25000   0.00000  Uiso   1.00
O536   O     0.77613   0.83333   0.32681   0.00000  Uiso   1.00
O537   O     0.85258   0.83332   0.32681   0.00000  Uiso   1.00
O538   O     0.79510   0.77226   0.24999   0.00000  Uiso   1.00
O539   O     0.87154   0.77225   0.25000   0.00000  Uiso   1.00
O540   O     0.81409   0.83335   0.17319   0.00000  Uiso   1.00
O541   O     0.89053   0.83334   0.17319   0.00000  Uiso   1.00
Zn542  Zn    0.78229   0.83334   0.25000   0.00000  Uiso   1.00
Zn543  Zn    0.88438   0.83333   0.25000   0.00000  Uiso   1.00
O544   O     0.96260   0.82630   0.07306   0.00000  Uiso   1.00
H545   H     0.95783   0.85016   0.09897   0.00000  Uiso   1.00
O546   O     0.89187   0.70885   0.16353   0.00000  Uiso   1.00
H547   H     0.91136   0.68845   0.13607   0.00000  Uiso   1.00
O548   O     0.77134   0.71009   0.34325   0.00000  Uiso   1.00
H549   H     0.77967   0.74022   0.34224   0.00000  Uiso   1.00
O550   O     0.77127   0.95964   0.34398   0.00000  Uiso   1.00
H551   H     0.77940   0.92954   0.34318   0.00000  Uiso   1.00
Cl552  Cl    0.97055   0.77428   0.17043   0.00000  Uiso   1.00
O553   O     0.73152   0.78109   0.17794   0.00000  Uiso   1.00
H554   H     0.76078   0.77867   0.18647   0.00000  Uiso   1.00
Cl555  Cl    0.92577   0.89423   0.32890   0.00000  Uiso   1.00
O556   O     0.94302   0.77503   0.40203   0.00000  Uiso   1.00
H557   H     0.94113   0.76435   0.36731   0.00000  Uiso   1.00
Cl558  Cl    0.76826   0.90326   0.06533   0.00000  Uiso   1.00
C559   C     0.16651   0.24645   0.75108   0.00000  Uiso   1.00
C560   C     0.14838   0.17312   0.98851   0.00000  Uiso   1.00
C561   C     0.15521   0.15508   0.93726   0.00000  Uiso   1.00
C562   C     0.18403   0.16552   0.51150   0.00000  Uiso   1.00
C563   C     0.22876   0.14776   0.98044   0.00000  Uiso   1.00
C564   C     0.23424   0.12889   0.93055   0.00000  Uiso   1.00
C565   C     0.19559   0.12939   0.91201   0.00000  Uiso   1.00
C566   C     0.17434   0.17059   0.56613   0.00000  Uiso   1.00
C567   C     0.25759   0.15875   0.55524   0.00000  Uiso   1.00
C568   C     0.12324   0.16524   0.91048   0.00000  Uiso   1.00
C569   C     0.19703   0.31079   0.70926   0.00000  Uiso   1.00
C570   C     0.14008   0.16475   0.85180   0.00000  Uiso   1.00
C571   C     0.19669   0.02071   0.70791   0.00000  Uiso   1.00
C572   C     0.16562   0.04270   0.75231   0.00000  Uiso   1.00
C573   C     0.13464   0.02241   0.79806   0.00000  Uiso   1.00
C574   C     0.13470   0.31240   0.79858   0.00000  Uiso   1.00
C575   C     0.16612   0.29054   0.75366   0.00000  Uiso   1.00
C576   C     0.31939   0.14121   0.71534   0.00000  Uiso   1.00
C577   C     0.03367   0.14101   0.71500   0.00000  Uiso   1.00
C578   C     0.01393   0.19227   0.78448   0.00000  Uiso   1.00
C579   C     0.29960   0.19254   0.78439   0.00000  Uiso   1.00
C580   C     0.16641   0.08685   0.75028   0.00000  Uiso   1.00
C581   C     0.19342   0.16731   0.64790   0.00000  Uiso   1.00
C582   C     0.26596   0.14672   0.50179   0.00000  Uiso   1.00
C583   C     0.20991   0.16691   0.58900   0.00000  Uiso   1.00
C584   C     0.07993   0.18526   0.93837   0.00000  Uiso   1.00
C585   C     0.07212   0.20208   0.98936   0.00000  Uiso   1.00
C586   C     0.10738   0.19936   0.51286   0.00000  Uiso   1.00
H587   H     0.02399   0.21281   0.81197   0.00000  Uiso   1.00
H588   H     0.30147   0.13626   0.97735   0.00000  Uiso   1.00
H589   H     0.13753   0.17351   0.59174   0.00000  Uiso   1.00
H590   H     0.05451   0.19224   0.91859   0.00000  Uiso   1.00
H591   H     0.04058   0.22113   0.50820   0.00000  Uiso   1.00
H592   H     0.19816   0.11087   0.87632   0.00000  Uiso   1.00
H593   H     0.22042   0.29277   0.67528   0.00000  Uiso   1.00
N594   N     0.04760   0.16668   0.75001   0.00000  Uiso   1.00
N595   N     0.28573   0.16665   0.75001   0.00000  Uiso   1.00
O596   O     0.12846   0.22775   0.75000   0.00000  Uiso   1.00
O597   O     0.20490   0.22774   0.75000   0.00000  Uiso   1.00
O598   O     0.10947   0.16666   0.82681   0.00000  Uiso   1.00
O599   O     0.18591   0.16665   0.82681   0.00000  Uiso   1.00
O600   O     0.12843   0.10559   0.74999   0.00000  Uiso   1.00
O601   O     0.20488   0.10558   0.75000   0.00000  Uiso   1.00
O602   O     0.14742   0.16668   0.67319   0.00000  Uiso   1.00
O603   O     0.22387   0.16667   0.67319   0.00000  Uiso   1.00
Zn604  Zn    0.11562   0.16667   0.75000   0.00000  Uiso   1.00
Zn605  Zn    0.21771   0.16666   0.75000   0.00000  Uiso   1.00
O606   O     0.29594   0.15963   0.57306   0.00000  Uiso   1.00
H607   H     0.29116   0.18349   0.59897   0.00000  Uiso   1.00
O608   O     0.22520   0.04218   0.66353   0.00000  Uiso   1.00
H609   H     0.24470   0.02178   0.63607   0.00000  Uiso   1.00
O610   O     0.10467   0.04342   0.84325   0.00000  Uiso   1.00
H611   H     0.11300   0.07355   0.84224   0.00000  Uiso   1.00
O612   O     0.10461   0.29297   0.84398   0.00000  Uiso   1.00
H613   H     0.11273   0.26288   0.84318   0.00000  Uiso   1.00
Cl614  Cl    0.30388   0.10762   0.67043   0.00000  Uiso   1.00
O615   O     0.06485   0.11442   0.67794   0.00000  Uiso   1.00
H616   H     0.09412   0.11200   0.68647   0.00000  Uiso   1.00
Cl617  Cl    0.25911   0.22756   0.82890   0.00000  Uiso   1.00
O618   O     0.27635   0.10837   0.90203   0.00000  Uiso   1.00
H619   H     0.27446   0.09768   0.86731   0.00000  Uiso   1.00
Cl620  Cl    0.10159   0.23659   0.56533   0.00000  Uiso   1.00
C621   C     0.49984   0.24645   0.75108   0.00000  Uiso   1.00
C622   C     0.48171   0.17312   0.98851   0.00000  Uiso   1.00
C623   C     0.48855   0.15508   0.93726   0.00000  Uiso   1.00
C624   C     0.51736   0.16552   0.51150   0.00000  Uiso   1.00
C625   C     0.56209   0.14776   0.98044   0.00000  Uiso   1.00
C626   C     0.56757   0.12889   0.93055   0.00000  Uiso   1.00
C627   C     0.52892   0.12939   0.91201   0.00000  Uiso   1.00
C628   C     0.50768   0.17059   0.56613   0.00000  Uiso   1.00
C629   C     0.59092   0.15875   0.55524   0.00000  Uiso   1.00
C630   C     0.45657   0.16524   0.91048   0.00000  Uiso   1.00
C631   C     0.53036   0.31079   0.70926   0.00000  Uiso   1.00
C632   C     0.47341   0.16475   0.85180   0.00000  Uiso   1.00
C633   C     0.53002   0.02071   0.70791   0.00000  Uiso   1.00
C634   C     0.49896   0.04270   0.75231   0.00000  Uiso   1.00
C635   C     0.46797   0.02241   0.79806   0.00000  Uiso   1.00
C636   C     0.46804   0.31240   0.79858   0.00000  Uiso   1.00
C637   C     0.49945   0.29054   0.75366   0.00000  Uiso   1.00
C638   C     0.65272   0.14121   0.71534   0.00000  Uiso   1.00
C639   C     0.36700   0.14101   0.71500   0.00000  Uiso   1.00
C640   C     0.34726   0.19227   0.78448   0.00000  Uiso   1.00
C641   C     0.63293   0.19254   0.78439   0.00000  Uiso   1.00
C642   C     0.49975   0.08685   0.75028   0.00000  Uiso   1.00
C643   C     0.52675   0.16731   0.64790   0.00000  Uiso   1.00
C644   C     0.59929   0.14672   0.50179   0.00000  Uiso   1.00
C645   C     0.54324   0.16691   0.58900   0.00000  Uiso   1.00
C646   C     0.41326   0.18526   0.93837   0.00000  Uiso   1.00
C647   C     0.40546   0.20208   0.98936   0.00000  Uiso   1.00
C648   C     0.44071   0.19936   0.51286   0.00000  Uiso   1.00
H649   H     0.35732   0.21281   0.81197   0.00000  Uiso   1.00
H650   H     0.63480   0.13626   0.97735   0.00000  Uiso   1.00
H651   H     0.47087   0.17351   0.59174   0.00000  Uiso   1.00
H652   H     0.38785   0.19224   0.91859   0.00000  Uiso   1.00
H653   H     0.37392   0.22113   0.50820   0.00000  Uiso   1.00
H654   H     0.53150   0.11087   0.87632   0.00000  Uiso   1.00
H655   H     0.55375   0.29277   0.67528   0.00000  Uiso   1.00
N656   N     0.38093   0.16668   0.75001   0.00000  Uiso   1.00
N657   N     0.61906   0.16665   0.75001   0.00000  Uiso   1.00
O658   O     0.46179   0.22775   0.75000   0.00000  Uiso   1.00
O659   O     0.53823   0.22774   0.75000   0.00000  Uiso   1.00
O660   O     0.44280   0.16666   0.82681   0.00000  Uiso   1.00
O661   O     0.51924   0.16665   0.82681   0.00000  Uiso   1.00
O662   O     0.46177   0.10559   0.74999   0.00000  Uiso   1.00
O663   O     0.53821   0.10558   0.75000   0.00000  Uiso   1.00
O664   O     0.48076   0.16668   0.67319   0.00000  Uiso   1.00
O665   O     0.55720   0.16667   0.67319   0.00000  Uiso   1.00
Zn666  Zn    0.44896   0.16667   0.75000   0.00000  Uiso   1.00
Zn667  Zn    0.55104   0.16666   0.75000   0.00000  Uiso   1.00
O668   O     0.62927   0.15963   0.57306   0.00000  Uiso   1.00
H669   H     0.62450   0.18349   0.59897   0.00000  Uiso   1.00
O670   O     0.55854   0.04218   0.66353   0.00000  Uiso   1.00
H671   H     0.57803   0.02178   0.63607   0.00000  Uiso   1.00
O672   O     0.43800   0.04342   0.84325   0.00000  Uiso   1.00
H673   H     0.44633   0.07355   0.84224   0.00000  Uiso   1.00
O674   O     0.43794   0.29297   0.84398   0.00000  Uiso   1.00
H675   H     0.44607   0.26288   0.84318   0.00000  Uiso   1.00
Cl676  Cl    0.63722   0.10762   0.67043   0.00000  Uiso   1.00
O677   O     0.39818   0.11442   0.67794   0.00000  Uiso   1.00
H678   H     0.42745   0.11200   0.68647   0.00000  Uiso   1.00
Cl679  Cl    0.59244   0.22756   0.82890   0.00000  Uiso   1.00
O680   O     0.60968   0.10837   0.90203   0.00000  Uiso   1.00
H681   H     0.60779   0.09768   0.86731   0.00000  Uiso   1.00
Cl682  Cl    0.43492   0.23659   0.56533   0.00000  Uiso   1.00
C683   C     0.83318   0.24645   0.75108   0.00000  Uiso   1.00
C684   C     0.81504   0.17312   0.98851   0.00000  Uiso   1.00
C685   C     0.82188   0.15508   0.93726   0.00000  Uiso   1.00
C686   C     0.85070   0.16552   0.51150   0.00000  Uiso   1.00
C687   C     0.89542   0.14776   0.98044   0.00000  Uiso   1.00
C688   C     0.90091   0.12889   0.93055   0.00000  Uiso   1.00
C689   C     0.86225   0.12939   0.91201   0.00000  Uiso   1.00
C690   C     0.84101   0.17059   0.56613   0.00000  Uiso   1.00
C691   C     0.92425   0.15875   0.55524   0.00000  Uiso   1.00
C692   C     0.78990   0.16524   0.91048   0.00000  Uiso   1.00
C693   C     0.86369   0.31079   0.70926   0.00000  Uiso   1.00
C694   C     0.80675   0.16475   0.85180   0.00000  Uiso   1.00
C695   C     0.86335   0.02071   0.70791   0.00000  Uiso   1.00
C696   C     0.83229   0.04270   0.75231   0.00000  Uiso   1.00
C697   C     0.80131   0.02241   0.79806   0.00000  Uiso   1.00
C698   C     0.80137   0.31240   0.79858   0.00000  Uiso   1.00
C699   C     0.83279   0.29054   0.75366   0.00000  Uiso   1.00
C700   C     0.98606   0.14121   0.71534   0.00000  Uiso   1.00
C701   C     0.70033   0.14101   0.71500   0.00000  Uiso   1.00
C702   C     0.68059   0.19227   0.78448   0.00000  Uiso   1.00
C703   C     0.96627   0.19254   0.78439   0.00000  Uiso   1.00
C704   C     0.83308   0.08685   0.75028   0.00000  Uiso   1.00
C705   C     0.86008   0.16731   0.64790   0.00000  Uiso   1.00
C706   C     0.93263   0.14672   0.50179   0.00000  Uiso   1.00
C707   C     0.87657   0.16691   0.58900   0.00000  Uiso   1.00
C708   C     0.74659   0.18526   0.93837   0.00000  Uiso   1.00
C709   C     0.73879   0.20208   0.98936   0.00000  Uiso   1.00
C710   C     0.77404   0.19936   0.51286   0.00000  Uiso   1.00
H711   H     0.69065   0.21281   0.81197   0.00000  Uiso   1.00
H712   H     0.96813   0.13626   0.97735   0.00000  Uiso   1.00
H713   H     0.80420   0.17351   0.59174   0.00000  Uiso   1.00
H714   H     0.72118   0.19224   0.91859   0.00000  Uiso   1.00
H715   H     0.70725   0.22113   0.50820   0.00000  Uiso   1.00
H716   H     0.86483   0.11087   0.87632   0.00000  Uiso   1.00
H717   H     0.88708   0.29277   0.67528   0.00000  Uiso   1.00
N718   N     0.71426   0.16668   0.75001   0.00000  Uiso   1.00
N719   N     0.95239   0.16665   0.75001   0.00000  Uiso   1.00
O720   O     0.79512   0.22775   0.75000   0.00000  Uiso   1.00
O721   O     0.87157   0.22774   0.75000   0.00000  Uiso   1.00
O722   O     0.77613   0.16666   0.82681   0.00000  Uiso   1.00
O723   O     0.85258   0.16665   0.82681   0.00000  Uiso   1.00
O724   O     0.79510   0.10559   0.74999   0.00000  Uiso   1.00
O725   O     0.87154   0.10558   0.75000   0.00000  Uiso   1.00
O726   O     0.81409   0.16668   0.67319   0.00000  Uiso   1.00
O727   O     0.89053   0.16667   0.67319   0.00000  Uiso   1.00
Zn728  Zn    0.78229   0.16667   0.75000   0.00000  Uiso   1.00
Zn729  Zn    0.88438   0.16666   0.75000   0.00000  Uiso   1.00
O730   O     0.96260   0.15963   0.57306   0.00000  Uiso   1.00
H731   H     0.95783   0.18349   0.59897   0.00000  Uiso   1.00
O732   O     0.89187   0.04218   0.66353   0.00000  Uiso   1.00
H733   H     0.91136   0.02178   0.63607   0.00000  Uiso   1.00
O734   O     0.77134   0.04342   0.84325   0.00000  Uiso   1.00
H735   H     0.77967   0.07355   0.84224   0.00000  Uiso   1.00
O736   O     0.77127   0.29297   0.84398   0.00000  Uiso   1.00
H737   H     0.77940   0.26288   0.84318   0.00000  Uiso   1.00
Cl738  Cl    0.97055   0.10762   0.67043   0.00000  Uiso   1.00
O739   O     0.73152   0.11442   0.67794   0.00000  Uiso   1.00
H740   H     0.76078   0.11200   0.68647   0.00000  Uiso   1.00
Cl741  Cl    0.92577   0.22756   0.82890   0.00000  Uiso   1.00
O742   O     0.94302   0.10837   0.90203   0.00000  Uiso   1.00
H743   H     0.94113   0.09768   0.86731   0.00000  Uiso   1.00
Cl744  Cl    0.76826   0.23659   0.56533   0.00000  Uiso   1.00
C745   C     0.16651   0.57979   0.75108   0.00000  Uiso   1.00
C746   C     0.14838   0.50645   0.98851   0.00000  Uiso   1.00
C747   C     0.15521   0.48841   0.93726   0.00000  Uiso   1.00
C748   C     0.18403   0.49886   0.51150   0.00000  Uiso   1.00
C749   C     0.22876   0.48110   0.98044   0.00000  Uiso   1.00
C750   C     0.23424   0.46223   0.93055   0.00000  Uiso   1.00
C751   C     0.19559   0.46272   0.91201   0.00000  Uiso   1.00
C752   C     0.17434   0.50392   0.56613   0.00000  Uiso   1.00
C753   C     0.25759   0.49208   0.55524   0.00000  Uiso   1.00
C754   C     0.12324   0.49857   0.91048   0.00000  Uiso   1.00
C755   C     0.19703   0.64413   0.70926   0.00000  Uiso   1.00
C756   C     0.14008   0.49809   0.85180   0.00000  Uiso   1.00
C757   C     0.19669   0.35405   0.70791   0.00000  Uiso   1.00
C758   C     0.16562   0.37603   0.75231   0.00000  Uiso   1.00
C759   C     0.13464   0.35574   0.79806   0.00000  Uiso   1.00
C760   C     0.13470   0.64573   0.79858   0.00000  Uiso   1.00
C761   C     0.16612   0.62388   0.75366   0.00000  Uiso   1.00
C762   C     0.31939   0.47455   0.71534   0.00000  Uiso   1.00
C763   C     0.03367   0.47434   0.71500   0.00000  Uiso   1.00
C764   C     0.01393   0.52561   0.78448   0.00000  Uiso   1.00
C765   C     0.29960   0.52587   0.78439   0.00000  Uiso   1.00
C766   C     0.16641   0.42019   0.75028   0.00000  Uiso   1.00
C767   C     0.19342   0.50064   0.64790   0.00000  Uiso   1.00
C768   C     0.26596   0.48006   0.50179   0.00000  Uiso   1.00
C769   C     0.20991   0.50024   0.58900   0.00000  Uiso   1.00
C770   C     0.07993   0.51859   0.93837   0.00000  Uiso   1.00
C771   C     0.07212   0.53542   0.98936   0.00000  Uiso   1.00
C772   C     0.10738   0.53270   0.51286   0.00000  Uiso   1.00
H773   H     0.02399   0.54614   0.81197   0.00000  Uiso   1.00
H774   H     0.30147   0.46960   0.97735   0.00000  Uiso   1.00
H775   H     0.13753   0.50684   0.59174   0.00000  Uiso   1.00
H776   H     0.05451   0.52557   0.91859   0.00000  Uiso   1.00
H777   H     0.04058   0.55447   0.50820   0.00000  Uiso   1.00
H778   H     0.19816   0.44420   0.87632   0.00000  Uiso   1.00
H779   H     0.22042   0.62611   0.67528   0.00000  Uiso   1.00
N780   N     0.04760   0.50001   0.75001   0.00000  Uiso   1.00
N781   N     0.28573   0.49998   0.75001   0.00000  Uiso   1.00
O782   O     0.12846   0.56108   0.75000   0.00000  Uiso   1.00
O783   O     0.20490   0.56107   0.75000   0.00000  Uiso   1.00
O784   O     0.10947   0.50000   0.82681   0.00000  Uiso   1.00
O785   O     0.18591   0.49999   0.82681   0.00000  Uiso   1.00
O786   O     0.12843   0.43893   0.74999   0.00000  Uiso   1.00
O787   O     0.20488   0.43892   0.75000   0.00000  Uiso   1.00
O788   O     0.14742   0.50001   0.67319   0.00000  Uiso   1.00
O789   O     0.22387   0.50000   0.67319   0.00000  Uiso   1.00
Zn790  Zn    0.11562   0.50001   0.75000   0.00000  Uiso   1.00
Zn791  Zn    0.21771   0.49999   0.75000   0.00000  Uiso   1.00
O792   O     0.29594   0.49296   0.57306   0.00000  Uiso   1.00
H793   H     0.29116   0.51682   0.59897   0.00000  Uiso   1.00
O794   O     0.22520   0.37551   0.66353   0.00000  Uiso   1.00
H795   H     0.24470   0.35511   0.63607   0.00000  Uiso   1.00
O796   O     0.10467   0.37676   0.84325   0.00000  Uiso   1.00
H797   H     0.11300   0.40688   0.84224   0.00000  Uiso   1.00
O798   O     0.10461   0.62630   0.84398   0.00000  Uiso   1.00
H799   H     0.11273   0.59621   0.84318   0.00000  Uiso   1.00
Cl800  Cl    0.30388   0.44095   0.67043   0.00000  Uiso   1.00
O801   O     0.06485   0.44775   0.67794   0.00000  Uiso   1.00
H802   H     0.09412   0.44534   0.68647   0.00000  Uiso   1.00
Cl803  Cl    0.25911   0.56090   0.82890   0.00000  Uiso   1.00
O804   O     0.27635   0.44170   0.90203   0.00000  Uiso   1.00
H805   H     0.27446   0.43102   0.86731   0.00000  Uiso   1.00
Cl806  Cl    0.10159   0.56993   0.56533   0.00000  Uiso   1.00
C807   C     0.49984   0.57979   0.75108   0.00000  Uiso   1.00
C808   C     0.48171   0.50645   0.98851   0.00000  Uiso   1.00
C809   C     0.48855   0.48841   0.93726   0.00000  Uiso   1.00
C810   C     0.51736   0.49886   0.51150   0.00000  Uiso   1.00
C811   C     0.56209   0.48110   0.98044   0.00000  Uiso   1.00
C812   C     0.56757   0.46223   0.93055   0.00000  Uiso   1.00
C813   C     0.52892   0.46272   0.91201   0.00000  Uiso   1.00
C814   C     0.50768   0.50392   0.56613   0.00000  Uiso   1.00
C815   C     0.59092   0.49208   0.55524   0.00000  Uiso   1.00
C816   C     0.45657   0.49857   0.91048   0.00000  Uiso   1.00
C817   C     0.53036   0.64413   0.70926   0.00000  Uiso   1.00
C818   C     0.47341   0.49809   0.85180   0.00000  Uiso   1.00
C819   C     0.53002   0.35405   0.70791   0.00000  Uiso   1.00
C820   C     0.49896   0.37603   0.75231   0.00000  Uiso   1.00
C821   C     0.46797   0.35574   0.79806   0.00000  Uiso   1.00
C822   C     0.46804   0.64573   0.79858   0.00000  Uiso   1.00
C823   C     0.49945   0.62388   0.75366   0.00000  Uiso   1.00
C824   C     0.65272   0.47455   0.71534   0.00000  Uiso   1.00
C825   C     0.36700   0.47434   0.71500   0.00000  Uiso   1.00
C826   C     0.34726   0.52561   0.78448   0.00000  Uiso   1.00
C827   C     0.63293   0.52587   0.78439   0.00000  Uiso   1.00
C828   C     0.49975   0.42019   0.75028   0.00000  Uiso   1.00
C829   C     0.52675   0.50064   0.64790   0.00000  Uiso   1.00
C830   C     0.59929   0.48006   0.50179   0.00000  Uiso   1.00
C831   C     0.54324   0.50024   0.58900   0.00000  Uiso   1.00
C832   C     0.41326   0.51859   0.93837   0.00000  Uiso   1.00
C833   C     0.40546   0.53542   0.98936   0.00000  Uiso   1.00
C834   C     0.44071   0.53270   0.51286   0.00000  Uiso   1.00
H835   H     0.35732   0.54614   0.81197   0.00000  Uiso   1.00
H836   H     0.63480   0.46960   0.97735   0.00000  Uiso   1.00
H837   H     0.47087   0.50684   0.59174   0.00000  Uiso   1.00
H838   H     0.38785   0.52557   0.91859   0.00000  Uiso   1.00
H839   H     0.37392   0.55447   0.50820   0.00000  Uiso   1.00
H840   H     0.53150   0.44420   0.87632   0.00000  Uiso   1.00
H841   H     0.55375   0.62611   0.67528   0.00000  Uiso   1.00
N842   N     0.38093   0.50001   0.75001   0.00000  Uiso   1.00
N843   N     0.61906   0.49998   0.75001   0.00000  Uiso   1.00
O844   O     0.46179   0.56108   0.75000   0.00000  Uiso   1.00
O845   O     0.53823   0.56107   0.75000   0.00000  Uiso   1.00
O846   O     0.44280   0.50000   0.82681   0.00000  Uiso   1.00
O847   O     0.51924   0.49999   0.82681   0.00000  Uiso   1.00
O848   O     0.46177   0.43893   0.74999   0.00000  Uiso   1.00
O849   O     0.53821   0.43892   0.75000   0.00000  Uiso   1.00
O850   O     0.48076   0.50001   0.67319   0.00000  Uiso   1.00
O851   O     0.55720   0.50000   0.67319   0.00000  Uiso   1.00
Zn852  Zn    0.44896   0.50001   0.75000   0.00000  Uiso   1.00
Zn853  Zn    0.55104   0.49999   0.75000   0.00000  Uiso   1.00
O854   O     0.62927   0.49296   0.57306   0.00000  Uiso   1.00
H855   H     0.62450   0.51682   0.59897   0.00000  Uiso   1.00
O856   O     0.55854   0.37551   0.66353   0.00000  Uiso   1.00
H857   H     0.57803   0.35511   0.63607   0.00000  Uiso   1.00
O858   O     0.43800   0.37676   0.84325   0.00000  Uiso   1.00
H859   H     0.44633   0.40688   0.84224   0.00000  Uiso   1.00
O860   O     0.43794   0.62630   0.84398   0.00000  Uiso   1.00
H861   H     0.44607   0.59621   0.84318   0.00000  Uiso   1.00
Cl862  Cl    0.63722   0.44095   0.67043   0.00000  Uiso   1.00
O863   O     0.39818   0.44775   0.67794   0.00000  Uiso   1.00
H864   H     0.42745   0.44534   0.68647   0.00000  Uiso   1.00
Cl865  Cl    0.59244   0.56090   0.82890   0.00000  Uiso   1.00
O866   O     0.60968   0.44170   0.90203   0.00000  Uiso   1.00
H867   H     0.60779   0.43102   0.86731   0.00000  Uiso   1.00
Cl868  Cl    0.43492   0.56993   0.56533   0.00000  Uiso   1.00
C869   C     0.83318   0.57979   0.75108   0.00000  Uiso   1.00
C870   C     0.81504   0.50645   0.98851   0.00000  Uiso   1.00
C871   C     0.82188   0.48841   0.93726   0.00000  Uiso   1.00
C872   C     0.85070   0.49886   0.51150   0.00000  Uiso   1.00
C873   C     0.89542   0.48110   0.98044   0.00000  Uiso   1.00
C874   C     0.90091   0.46223   0.93055   0.00000  Uiso   1.00
C875   C     0.86225   0.46272   0.91201   0.00000  Uiso   1.00
C876   C     0.84101   0.50392   0.56613   0.00000  Uiso   1.00
C877   C     0.92425   0.49208   0.55524   0.00000  Uiso   1.00
C878   C     0.78990   0.49857   0.91048   0.00000  Uiso   1.00
C879   C     0.86369   0.64413   0.70926   0.00000  Uiso   1.00
C880   C     0.80675   0.49809   0.85180   0.00000  Uiso   1.00
C881   C     0.86335   0.35405   0.70791   0.00000  Uiso   1.00
C882   C     0.83229   0.37603   0.75231   0.00000  Uiso   1.00
C883   C     0.80131   0.35574   0.79806   0.00000  Uiso   1.00
C884   C     0.80137   0.64573   0.79858   0.00000  Uiso   1.00
C885   C     0.83279   0.62388   0.75366   0.00000  Uiso   1.00
C886   C     0.98606   0.47455   0.71534   0.00000  Uiso   1.00
C887   C     0.70033   0.47434   0.71500   0.00000  Uiso   1.00
C888   C     0.68059   0.52561   0.78448   0.00000  Uiso   1.00
C889   C     0.96627   0.52587   0.78439   0.00000  Uiso   1.00
C890   C     0.83308   0.42019   0.75028   0.00000  Uiso   1.00
C891   C     0.86008   0.50064   0.64790   0.00000  Uiso   1.00
C892   C     0.93263   0.48006   0.50179   0.00000  Uiso   1.00
C893   C     0.87657   0.50024   0.58900   0.00000  Uiso   1.00
C894   C     0.74659   0.51859   0.93837   0.00000  Uiso   1.00
C895   C     0.73879   0.53542   0.98936   0.00000  Uiso   1.00
C896   C     0.77404   0.53270   0.51286   0.00000  Uiso   1.00
H897   H     0.69065   0.54614   0.81197   0.00000  Uiso   1.00
H898   H     0.96813   0.46960   0.97735   0.00000  Uiso   1.00
H899   H     0.80420   0.50684   0.59174   0.00000  Uiso   1.00
H900   H     0.72118   0.52557   0.91859   0.00000  Uiso   1.00
H901   H     0.70725   0.55447   0.50820   0.00000  Uiso   1.00
H902   H     0.86483   0.44420   0.87632   0.00000  Uiso   1.00
H903   H     0.88708   0.62611   0.67528   0.00000  Uiso   1.00
N904   N     0.71426   0.50001   0.75001   0.00000  Uiso   1.00
N905   N     0.95239   0.49998   0.75001   0.00000  Uiso   1.00
O906   O     0.79512   0.56108   0.75000   0.00000  Uiso   1.00
O907   O     0.87157   0.56107   0.75000   0.00000  Uiso   1.00
O908   O     0.77613   0.50000   0.82681   0.00000  Uiso   1.00
O909   O     0.85258   0.49999   0.82681   0.00000  Uiso   1.00
O910   O     0.79510   0.43893   0.74999   0.00000  Uiso   1.00
O911   O     0.87154   0.43892   0.75000   0.00000  Uiso   1.00
O912   O     0.81409   0.50001   0.67319   0.00000  Uiso   1.00
O913   O     0.89053   0.50000   0.67319   0.00000  Uiso   1.00
Zn914  Zn    0.78229   0.50001   0.75000   0.00000  Uiso   1.00
Zn915  Zn    0.88438   0.49999   0.75000   0.00000  Uiso   1.00
O916   O     0.96260   0.49296   0.57306   0.00000  Uiso   1.00
H917   H     0.95783   0.51682   0.59897   0.00000  Uiso   1.00
O918   O     0.89187   0.37551   0.66353   0.00000  Uiso   1.00
H919   H     0.91136   0.35511   0.63607   0.00000  Uiso   1.00
O920   O     0.77134   0.37676   0.84325   0.00000  Uiso   1.00
H921   H     0.77967   0.40688   0.84224   0.00000  Uiso   1.00
O922   O     0.77127   0.62630   0.84398   0.00000  Uiso   1.00
H923   H     0.77940   0.59621   0.84318   0.00000  Uiso   1.00
Cl924  Cl    0.97055   0.44095   0.67043   0.00000  Uiso   1.00
O925   O     0.73152   0.44775   0.67794   0.00000  Uiso   1.00
H926   H     0.76078   0.44534   0.68647   0.00000  Uiso   1.00
Cl927  Cl    0.92577   0.56090   0.82890   0.00000  Uiso   1.00
O928   O     0.94302   0.44170   0.90203   0.00000  Uiso   1.00
H929   H     0.94113   0.43102   0.86731   0.00000  Uiso   1.00
Cl930  Cl    0.76826   0.56993   0.56533   0.00000  Uiso   1.00
C931   C     0.16651   0.91312   0.75108   0.00000  Uiso   1.00
C932   C     0.14838   0.83979   0.98851   0.00000  Uiso   1.00
C933   C     0.15521   0.82174   0.93726   0.00000  Uiso   1.00
C934   C     0.18403   0.83219   0.51150   0.00000  Uiso   1.00
C935   C     0.22876   0.81443   0.98044   0.00000  Uiso   1.00
C936   C     0.23424   0.79556   0.93055   0.00000  Uiso   1.00
C937   C     0.19559   0.79606   0.91201   0.00000  Uiso   1.00
C938   C     0.17434   0.83726   0.56613   0.00000  Uiso   1.00
C939   C     0.25759   0.82542   0.55524   0.00000  Uiso   1.00
C940   C     0.12324   0.83191   0.91048   0.00000  Uiso   1.00
C941   C     0.19703   0.97746   0.70926   0.00000  Uiso   1.00
C942   C     0.14008   0.83142   0.85180   0.00000  Uiso   1.00
C943   C     0.19669   0.68738   0.70791   0.00000  Uiso   1.00
C944   C     0.16562   0.70937   0.75231   0.00000  Uiso   1.00
C945   C     0.13464   0.68908   0.79806   0.00000  Uiso   1.00
C946   C     0.13470   0.97907   0.79858   0.00000  Uiso   1.00
C947   C     0.16612   0.95721   0.75366   0.00000  Uiso   1.00
C948   C     0.31939   0.80788   0.71534   0.00000  Uiso   1.00
C949   C     0.03367   0.80767   0.71500   0.00000  Uiso   1.00
C950   C     0.01393   0.85894   0.78448   0.00000  Uiso   1.00
C951   C     0.29960   0.85920   0.78439   0.00000  Uiso   1.00
C952   C     0.16641   0.75352   0.75028   0.00000  Uiso   1.00
C953   C     0.19342   0.83397   0.64790   0.00000  Uiso   1.00
C954   C     0.26596   0.81339   0.50179   0.00000  Uiso   1.00
C955   C     0.20991   0.83358   0.58900   0.00000  Uiso   1.00
C956   C     0.07993   0.85193   0.93837   0.00000  Uiso   1.00
C957   C     0.07212   0.86875   0.98936   0.00000  Uiso   1.00
C958   C     0.10738   0.86603   0.51286   0.00000  Uiso   1.00
H959   H     0.02399   0.87947   0.81197   0.00000  Uiso   1.00
H960   H     0.30147   0.80293   0.97735   0.00000  Uiso   1.00
H961   H     0.13753   0.84018   0.59174   0.00000  Uiso   1.00
H962   H     0.05451   0.85891   0.91859   0.00000  Uiso   1.00
H963   H     0.04058   0.88780   0.50820   0.00000  Uiso   1.00
H964   H     0.19816   0.77754   0.87632   0.00000  Uiso   1.00
H965   H     0.22042   0.95944   0.67528   0.00000  Uiso   1.00
N966   N     0.04760   0.83334   0.75001   0.00000  Uiso   1.00
N967   N     0.28573   0.83331   0.75001   0.00000  Uiso   1.00
O968   O     0.12846   0.89442   0.75000   0.00000  Uiso   1.00
O969   O     0.20490   0.89441   0.75000   0.00000  Uiso   1.00
O970   O     0.10947   0.83333   0.82681   0.00000  Uiso   1.00
O971   O     0.18591   0.83332   0.82681   0.00000  Uiso   1.00
O972   O     0.12843   0.77226   0.74999   0.00000  Uiso   1.00
O973   O     0.20488   0.77225   0.75000   0.00000  Uiso   1.00
O974   O     0.14742   0.83335   0.67319   0.00000  Uiso   1.00
O975   O     0.22387   0.83334   0.67319   0.00000  Uiso   1.00
Zn976  Zn    0.11562   0.83334   0.75000   0.00000  Uiso   1.00
Zn977  Zn    0.21771   0.83333   0.75000   0.00000  Uiso   1.00
O978   O     0.29594   0.82630   0.57306   0.00000  Uiso   1.00
H979   H     0.29116   0.85016   0.59897   0.00000  Uiso   1.00
O980   O     0.22520   0.70885   0.66353   0.00000  Uiso   1.00
H981   H     0.24470   0.68845   0.63607   0.00000  Uiso   1.00
O982   O     0.10467   0.71009   0.84325   0.00000  Uiso   1.00
H983   H     0.11300   0.74022   0.84224   0.00000  Uiso   1.00
O984   O     0.10461   0.95964   0.84398   0.00000  Uiso   1.00
H985   H     0.11273   0.92954   0.84318   0.00000  Uiso   1.00
Cl986  Cl    0.30388   0.77428   0.67043   0.00000  Uiso   1.00
O987   O     0.06485   0.78109   0.67794   0.00000  Uiso   1.00
H988   H     0.09412   0.77867   0.68647   0.00000  Uiso   1.00
Cl989  Cl    0.25911   0.89423   0.82890   0.00000  Uiso   1.00
O990   O     0.27635   0.77503   0.90203   0.00000  Uiso   1.00
H991   H     0.27446   0.76435   0.86731   0.00000  Uiso   1.00
Cl992  Cl    0.10159   0.90326   0.56533   0.00000  Uiso   1.00
C993   C     0.49984   0.91312   0.75108   0.00000  Uiso   1.00
C994   C     0.48171   0.83979   0.98851   0.00000  Uiso   1.00
C995   C     0.48855   0.82174   0.93726   0.00000  Uiso   1.00
C996   C     0.51736   0.83219   0.51150   0.00000  Uiso   1.00
C997   C     0.56209   0.81443   0.98044   0.00000  Uiso   1.00
C998   C     0.56757   0.79556   0.93055   0.00000  Uiso   1.00
C999   C     0.52892   0.79606   0.91201   0.00000  Uiso   1.00
C1000  C     0.50768   0.83726   0.56613   0.00000  Uiso   1.00
C1001  C     0.59092   0.82542   0.55524   0.00000  Uiso   1.00
C1002  C     0.45657   0.83191   0.91048   0.00000  Uiso   1.00
C1003  C     0.53036   0.97746   0.70926   0.00000  Uiso   1.00
C1004  C     0.47341   0.83142   0.85180   0.00000  Uiso   1.00
C1005  C     0.53002   0.68738   0.70791   0.00000  Uiso   1.00
C1006  C     0.49896   0.70937   0.75231   0.00000  Uiso   1.00
C1007  C     0.46797   0.68908   0.79806   0.00000  Uiso   1.00
C1008  C     0.46804   0.97907   0.79858   0.00000  Uiso   1.00
C1009  C     0.49945   0.95721   0.75366   0.00000  Uiso   1.00
C1010  C     0.65272   0.80788   0.71534   0.00000  Uiso   1.00
C1011  C     0.36700   0.80767   0.71500   0.00000  Uiso   1.00
C1012  C     0.34726   0.85894   0.78448   0.00000  Uiso   1.00
C1013  C     0.63293   0.85920   0.78439   0.00000  Uiso   1.00
C1014  C     0.49975   0.75352   0.75028   0.00000  Uiso   1.00
C1015  C     0.52675   0.83397   0.64790   0.00000  Uiso   1.00
C1016  C     0.59929   0.81339   0.50179   0.00000  Uiso   1.00
C1017  C     0.54324   0.83358   0.58900   0.00000  Uiso   1.00
C1018  C     0.41326   0.85193   0.93837   0.00000  Uiso   1.00
C1019  C     0.40546   0.86875   0.98936   0.00000  Uiso   1.00
C1020  C     0.44071   0.86603   0.51286   0.00000  Uiso   1.00
H1021  H     0.35732   0.87947   0.81197   0.00000  Uiso   1.00
H1022  H     0.63480   0.80293   0.97735   0.00000  Uiso   1.00
H1023  H     0.47087   0.84018   0.59174   0.00000  Uiso   1.00
H1024  H     0.38785   0.85891   0.91859   0.00000  Uiso   1.00
H1025  H     0.37392   0.88780   0.50820   0.00000  Uiso   1.00
H1026  H     0.53150   0.77754   0.87632   0.00000  Uiso   1.00
H1027  H     0.55375   0.95944   0.67528   0.00000  Uiso   1.00
N1028  N     0.38093   0.83334   0.75001   0.00000  Uiso   1.00
N1029  N     0.61906   0.83331   0.75001   0.00000  Uiso   1.00
O1030  O     0.46179   0.89442   0.75000   0.00000  Uiso   1.00
O1031  O     0.53823   0.89441   0.75000   0.00000  Uiso   1.00
O1032  O     0.44280   0.83333   0.82681   0.00000  Uiso   1.00
O1033  O     0.51924   0.83332   0.82681   0.00000  Uiso   1.00
O1034  O     0.46177   0.77226   0.74999   0.00000  Uiso   1.00
O1035  O     0.53821   0.77225   0.75000   0.00000  Uiso   1.00
O1036  O     0.48076   0.83335   0.67319   0.00000  Uiso   1.00
O1037  O     0.55720   0.83334   0.67319   0.00000  Uiso   1.00
Zn1038 Zn    0.44896   0.83334   0.75000   0.00000  Uiso   1.00
Zn1039 Zn    0.55104   0.83333   0.75000   0.00000  Uiso   1.00
O1040  O     0.62927   0.82630   0.57306   0.00000  Uiso   1.00
H1041  H     0.62450   0.85016   0.59897   0.00000  Uiso   1.00
O1042  O     0.55854   0.70885   0.66353   0.00000  Uiso   1.00
H1043  H     0.57803   0.68845   0.63607   0.00000  Uiso   1.00
O1044  O     0.43800   0.71009   0.84325   0.00000  Uiso   1.00
H1045  H     0.44633   0.74022   0.84224   0.00000  Uiso   1.00
O1046  O     0.43794   0.95964   0.84398   0.00000  Uiso   1.00
H1047  H     0.44607   0.92954   0.84318   0.00000  Uiso   1.00
Cl1048 Cl    0.63722   0.77428   0.67043   0.00000  Uiso   1.00
O1049  O     0.39818   0.78109   0.67794   0.00000  Uiso   1.00
H1050  H     0.42745   0.77867   0.68647   0.00000  Uiso   1.00
Cl1051 Cl    0.59244   0.89423   0.82890   0.00000  Uiso   1.00
O1052  O     0.60968   0.77503   0.90203   0.00000  Uiso   1.00
H1053  H     0.60779   0.76435   0.86731   0.00000  Uiso   1.00
Cl1054 Cl    0.43492   0.90326   0.56533   0.00000  Uiso   1.00
C1055  C     0.83318   0.91312   0.75108   0.00000  Uiso   1.00
C1056  C     0.81504   0.83979   0.98851   0.00000  Uiso   1.00
C1057  C     0.82188   0.82174   0.93726   0.00000  Uiso   1.00
C1058  C     0.85070   0.83219   0.51150   0.00000  Uiso   1.00
C1059  C     0.89542   0.81443   0.98044   0.00000  Uiso   1.00
C1060  C     0.90091   0.79556   0.93055   0.00000  Uiso   1.00
C1061  C     0.86225   0.79606   0.91201   0.00000  Uiso   1.00
C1062  C     0.84101   0.83726   0.56613   0.00000  Uiso   1.00
C1063  C     0.92425   0.82542   0.55524   0.00000  Uiso   1.00
C1064  C     0.78990   0.83191   0.91048   0.00000  Uiso   1.00
C1065  C     0.86369   0.97746   0.70926   0.00000  Uiso   1.00
C1066  C     0.80675   0.83142   0.85180   0.00000  Uiso   1.00
C1067  C     0.86335   0.68738   0.70791   0.00000  Uiso   1.00
C1068  C     0.83229   0.70937   0.75231   0.00000  Uiso   1.00
C1069  C     0.80131   0.68908   0.79806   0.00000  Uiso   1.00
C1070  C     0.80137   0.97907   0.79858   0.00000  Uiso   1.00
C1071  C     0.83279   0.95721   0.75366   0.00000  Uiso   1.00
C1072  C     0.98606   0.80788   0.71534   0.00000  Uiso   1.00
C1073  C     0.70033   0.80767   0.71500   0.00000  Uiso   1.00
C1074  C     0.68059   0.85894   0.78448   0.00000  Uiso   1.00
C1075  C     0.96627   0.85920   0.78439   0.00000  Uiso   1.00
C1076  C     0.83308   0.75352   0.75028   0.00000  Uiso   1.00
C1077  C     0.86008   0.83397   0.64790   0.00000  Uiso   1.00
C1078  C     0.93263   0.81339   0.50179   0.00000  Uiso   1.00
C1079  C     0.87657   0.83358   0.58900   0.00000  Uiso   1.00
C1080  C     0.74659   0.85193   0.93837   0.00000  Uiso   1.00
C1081  C     0.73879   0.86875   0.98936   0.00000  Uiso   1.00
C1082  C     0.77404   0.86603   0.51286   0.00000  Uiso   1.00
H1083  H     0.69065   0.87947   0.81197   0.00000  Uiso   1.00
H1084  H     0.96813   0.80293   0.97735   0.00000  Uiso   1.00
H1085  H     0.80420   0.84018   0.59174   0.00000  Uiso   1.00
H1086  H     0.72118   0.85891   0.91859   0.00000  Uiso   1.00
H1087  H     0.70725   0.88780   0.50820   0.00000  Uiso   1.00
H1088  H     0.86483   0.77754   0.87632   0.00000  Uiso   1.00
H1089  H     0.88708   0.95944   0.67528   0.00000  Uiso   1.00
N1090  N     0.71426   0.83334   0.75001   0.00000  Uiso   1.00
N1091  N     0.95239   0.83331   0.75001   0.00000  Uiso   1.00
O1092  O     0.79512   0.89442   0.75000   0.00000  Uiso   1.00
O1093  O     0.87157   0.89441   0.75000   0.00000  Uiso   1.00
O1094  O     0.77613   0.83333   0.82681   0.00000  Uiso   1.00
O1095  O     0.85258   0.83332   0.82681   0.00000  Uiso   1.00
O1096  O     0.79510   0.77226   0.74999   0.00000  Uiso   1.00
O1097  O     0.87154   0.77225   0.75000   0.00000  Uiso   1.00
O1098  O     0.81409   0.83335   0.67319   0.00000  Uiso   1.00
O1099  O     0.89053   0.83334   0.67319   0.00000  Uiso   1.00
Zn1100 Zn    0.78229   0.83334   0.75000   0.00000  Uiso   1.00
Zn1101 Zn    0.88438   0.83333   0.75000   0.00000  Uiso   1.00
O1102  O     0.96260   0.82630   0.57306   0.00000  Uiso   1.00
H1103  H     0.95783   0.85016   0.59897   0.00000  Uiso   1.00
O1104  O     0.89187   0.70885   0.66353   0.00000  Uiso   1.00
H1105  H     0.91136   0.68845   0.63607   0.00000  Uiso   1.00
O1106  O     0.77134   0.71009   0.84325   0.00000  Uiso   1.00
H1107  H     0.77967   0.74022   0.84224   0.00000  Uiso   1.00
O1108  O     0.77127   0.95964   0.84398   0.00000  Uiso   1.00
H1109  H     0.77940   0.92954   0.84318   0.00000  Uiso   1.00
Cl1110 Cl    0.97055   0.77428   0.67043   0.00000  Uiso   1.00
O1111  O     0.73152   0.78109   0.67794   0.00000  Uiso   1.00
H1112  H     0.76078   0.77867   0.68647   0.00000  Uiso   1.00
Cl1113 Cl    0.92577   0.89423   0.82890   0.00000  Uiso   1.00
O1114  O     0.94302   0.77503   0.90203   0.00000  Uiso   1.00
H1115  H     0.94113   0.76435   0.86731   0.00000  Uiso   1.00
Cl1116 Cl    0.76826   0.90326   0.56533   0.00000  Uiso   1.00
loop_
_geom_bond_atom_site_label_1
_geom_bond_atom_site_label_2
_geom_bond_distance
_geom_bond_site_symmetry_2
_ccdc_geom_bond_type
C1     C17     1.405   .     S
C1     O38     1.284   .     A
C1     O39     1.284   .     A
C2     C3      1.410   .     A
C2     C562    1.417   .     S
C2     C586    1.435   .     S
C3     C10     1.410   .     A
C3     C7      1.415   .     A
C4     C8      1.380   .     A
C4     C560    1.417   1_554 S
C4     C563    1.418   1_554 S
C5     C6      1.396   .     A
C5     C562    1.418   .     S
C5     C582    1.405   .     S
C6     C7      1.397   .     A
C6     O60     1.383   .     S
C7     H34     1.083   .     S
C8     C25     1.394   .     A
C8     H31     1.077   .     S
C9     C24     1.395   .     A
C9     C25     1.417   .     A
C9     O48     1.376   .     S
C10    C26     1.398   .     A
C10    C12     1.459   .     S
C11    H35     1.085   .     S
C11    C17     1.389   .     A
C11    C199    1.380   .     S
C12    O40     1.298   .     A
C12    O41     1.298   .     A
C13    C14     1.399   .     A
C13    O50     1.383   .     S
C13    C383    1.380   1_545 S
C14    C15     1.413   .     A
C14    C22     1.409   .     S
C15    O52     1.385   .     S
C15    C388    1.381   1_545 S
C16    O54     1.385   .     S
C16    C17     1.409   .     A
C16    C201    1.381   .     S
C18    Cl56    1.755   .     S
C18    N37     1.361   .     A
C18    C81     1.414   .     S
C19    O57     1.376   .     S
C19    N36     1.387   .     A
C19    C142    1.414   1_455 S
C20    H29     1.082   .     S
C20    N36     1.362   .     A
C20    C145    1.419   1_455 S
C21    Cl59    1.754   .     S
C21    N37     1.377   .     A
C21    C82     1.419   .     S
C22    O43     1.284   .     A
C22    O42     1.285   .     A
C23    O45     1.298   .     A
C23    C25     1.465   .     S
C23    O44     1.302   .     A
C24    C563    1.405   1_554 S
C24    H588    1.084   1_554 S
C26    H32     1.084   .     S
C26    C27     1.385   .     A
C27    C586    1.395   .     S
C27    H591    1.083   .     S
C28    Cl62    1.769   .     S
C28    C585    1.395   1_554 S
C28    C560    1.435   1_554 S
H30    C582    1.084   .     S
H33    C585    1.083   1_554 S
N36    Zn46    2.024   .     S
N37    Zn47    2.024   .     S
O38    Zn46    1.980   .     S
O39    Zn47    1.986   .     S
O40    Zn46    1.978   .     S
O41    Zn47    1.927   .     S
O42    Zn46    1.986   .     S
O43    Zn47    1.980   .     S
O44    Zn46    1.927   .     S
O45    Zn47    1.978   .     S
O48    H49     0.990   .     S
O50    H51     0.992   .     S
O52    H53     0.988   .     S
O54    H55     0.989   .     S
O57    H58     0.975   .     S
O60    H61     0.992   .     S
C63    C79     1.405   .     S
C63    O100    1.284   .     A
C63    O101    1.284   .     A
C64    C65     1.410   .     A
C64    C624    1.417   .     S
C64    C648    1.435   .     S
C65    C72     1.410   .     A
C65    C69     1.415   .     A
C66    C70     1.380   .     A
C66    C622    1.417   1_554 S
C66    C625    1.418   1_554 S
C67    C68     1.396   .     A
C67    C624    1.418   .     S
C67    C644    1.405   .     S
C68    C69     1.397   .     A
C68    O122    1.383   .     S
C69    H96     1.083   .     S
C70    C87     1.394   .     A
C70    H93     1.077   .     S
C71    C86     1.395   .     A
C71    C87     1.417   .     A
C71    O110    1.376   .     S
C72    C88     1.398   .     A
C72    C74     1.459   .     S
C73    H97     1.085   .     S
C73    C79     1.389   .     A
C73    C261    1.380   .     S
C74    O102    1.298   .     A
C74    O103    1.298   .     A
C75    C76     1.399   .     A
C75    O112    1.383   .     S
C75    C445    1.380   1_545 S
C76    C77     1.413   .     A
C76    C84     1.409   .     S
C77    O114    1.385   .     S
C77    C450    1.381   1_545 S
C78    O116    1.385   .     S
C78    C79     1.409   .     A
C78    C263    1.381   .     S
C80    Cl118   1.755   .     S
C80    N99     1.361   .     A
C80    C143    1.414   .     S
C81    O119    1.376   .     S
C81    N98     1.387   .     A
C82    H91     1.082   .     S
C82    N98     1.362   .     A
C83    Cl121   1.754   .     S
C83    N99     1.377   .     A
C83    C144    1.419   .     S
C84    O105    1.284   .     A
C84    O104    1.285   .     A
C85    O107    1.298   .     A
C85    C87     1.465   .     S
C85    O106    1.302   .     A
C86    C625    1.405   1_554 S
C86    H650    1.084   1_554 S
C88    H94     1.084   .     S
C88    C89     1.385   .     A
C89    C648    1.395   .     S
C89    H653    1.083   .     S
C90    Cl124   1.769   .     S
C90    C647    1.395   1_554 S
C90    C622    1.435   1_554 S
H92    C644    1.084   .     S
H95    C647    1.083   1_554 S
N98    Zn108   2.024   .     S
N99    Zn109   2.024   .     S
O100   Zn108   1.980   .     S
O101   Zn109   1.986   .     S
O102   Zn108   1.978   .     S
O103   Zn109   1.927   .     S
O104   Zn108   1.986   .     S
O105   Zn109   1.980   .     S
O106   Zn108   1.927   .     S
O107   Zn109   1.978   .     S
O110   H111    0.990   .     S
O112   H113    0.992   .     S
O114   H115    0.988   .     S
O116   H117    0.989   .     S
O119   H120    0.975   .     S
O122   H123    0.992   .     S
C125   C141    1.405   .     S
C125   O162    1.284   .     A
C125   O163    1.284   .     A
C126   C127    1.410   .     A
C126   C686    1.417   .     S
C126   C710    1.435   .     S
C127   C134    1.410   .     A
C127   C131    1.415   .     A
C128   C132    1.380   .     A
C128   C684    1.417   1_554 S
C128   C687    1.418   1_554 S
C129   C130    1.396   .     A
C129   C686    1.418   .     S
C129   C706    1.405   .     S
C130   C131    1.397   .     A
C130   O184    1.383   .     S
C131   H158    1.083   .     S
C132   C149    1.394   .     A
C132   H155    1.077   .     S
C133   C148    1.395   .     A
C133   C149    1.417   .     A
C133   O172    1.376   .     S
C134   C150    1.398   .     A
C134   C136    1.459   .     S
C135   H159    1.085   .     S
C135   C141    1.389   .     A
C135   C323    1.380   .     S
C136   O164    1.298   .     A
C136   O165    1.298   .     A
C137   C138    1.399   .     A
C137   O174    1.383   .     S
C137   C507    1.380   1_545 S
C138   C139    1.413   .     A
C138   C146    1.409   .     S
C139   O176    1.385   .     S
C139   C512    1.381   1_545 S
C140   O178    1.385   .     S
C140   C141    1.409   .     A
C140   C325    1.381   .     S
C142   Cl180   1.755   .     S
C142   N161    1.361   .     A
C142   C19     1.414   1_655 S
C143   O181    1.376   .     S
C143   N160    1.387   .     A
C144   H153    1.082   .     S
C144   N160    1.362   .     A
C145   Cl183   1.754   .     S
C145   N161    1.377   .     A
C145   C20     1.419   1_655 S
C146   O167    1.284   .     A
C146   O166    1.285   .     A
C147   O169    1.298   .     A
C147   C149    1.465   .     S
C147   O168    1.302   .     A
C148   C687    1.405   1_554 S
C148   H712    1.084   1_554 S
C150   H156    1.084   .     S
C150   C151    1.385   .     A
C151   C710    1.395   .     S
C151   H715    1.083   .     S
C152   Cl186   1.769   .     S
C152   C709    1.395   1_554 S
C152   C684    1.435   1_554 S
H154   C706    1.084   .     S
H157   C709    1.083   1_554 S
N160   Zn170   2.024   .     S
N161   Zn171   2.024   .     S
O162   Zn170   1.980   .     S
O163   Zn171   1.986   .     S
O164   Zn170   1.978   .     S
O165   Zn171   1.927   .     S
O166   Zn170   1.986   .     S
O167   Zn171   1.980   .     S
O168   Zn170   1.927   .     S
O169   Zn171   1.978   .     S
O172   H173    0.990   .     S
O174   H175    0.992   .     S
O176   H177    0.988   .     S
O178   H179    0.989   .     S
O181   H182    0.975   .     S
O184   H185    0.992   .     S
C187   C203    1.405   .     S
C187   O224    1.284   .     A
C187   O225    1.284   .     A
C188   C189    1.410   .     A
C188   C748    1.417   .     S
C188   C772    1.435   .     S
C189   C196    1.410   .     A
C189   C193    1.415   .     A
C190   C194    1.380   .     A
C190   C746    1.417   1_554 S
C190   C749    1.418   1_554 S
C191   C192    1.396   .     A
C191   C748    1.418   .     S
C191   C768    1.405   .     S
C192   C193    1.397   .     A
C192   O246    1.383   .     S
C193   H220    1.083   .     S
C194   C211    1.394   .     A
C194   H217    1.077   .     S
C195   C210    1.395   .     A
C195   C211    1.417   .     A
C195   O234    1.376   .     S
C196   C212    1.398   .     A
C196   C198    1.459   .     S
C197   H221    1.085   .     S
C197   C203    1.389   .     A
C197   C385    1.380   .     S
C198   O226    1.298   .     A
C198   O227    1.298   .     A
C199   C200    1.399   .     A
C199   O236    1.383   .     S
C200   C201    1.413   .     A
C200   C208    1.409   .     S
C201   O238    1.385   .     S
C202   O240    1.385   .     S
C202   C203    1.409   .     A
C202   C387    1.381   .     S
C204   Cl242   1.755   .     S
C204   N223    1.361   .     A
C204   C267    1.414   .     S
C205   O243    1.376   .     S
C205   N222    1.387   .     A
C205   C328    1.414   1_455 S
C206   H215    1.082   .     S
C206   N222    1.362   .     A
C206   C331    1.419   1_455 S
C207   Cl245   1.754   .     S
C207   N223    1.377   .     A
C207   C268    1.419   .     S
C208   O229    1.284   .     A
C208   O228    1.285   .     A
C209   O231    1.298   .     A
C209   C211    1.465   .     S
C209   O230    1.302   .     A
C210   C749    1.405   1_554 S
C210   H774    1.084   1_554 S
C212   H218    1.084   .     S
C212   C213    1.385   .     A
C213   C772    1.395   .     S
C213   H777    1.083   .     S
C214   Cl248   1.769   .     S
C214   C771    1.395   1_554 S
C214   C746    1.435   1_554 S
H216   C768    1.084   .     S
H219   C771    1.083   1_554 S
N222   Zn232   2.024   .     S
N223   Zn233   2.024   .     S
O224   Zn232   1.980   .     S
O225   Zn233   1.986   .     S
O226   Zn232   1.978   .     S
O227   Zn233   1.927   .     S
O228   Zn232   1.986   .     S
O229   Zn233   1.980   .     S
O230   Zn232   1.927   .     S
O231   Zn233   1.978   .     S
O234   H235    0.990   .     S
O236   H237    0.992   .     S
O238   H239    0.988   .     S
O240   H241    0.989   .     S
O243   H244    0.975   .     S
O246   H247    0.992   .     S
C249   C265    1.405   .     S
C249   O286    1.284   .     A
C249   O287    1.284   .     A
C250   C251    1.410   .     A
C250   C810    1.417   .     S
C250   C834    1.435   .     S
C251   C258    1.410   .     A
C251   C255    1.415   .     A
C252   C256    1.380   .     A
C252   C808    1.417   1_554 S
C252   C811    1.418   1_554 S
C253   C254    1.396   .     A
C253   C810    1.418   .     S
C253   C830    1.405   .     S
C254   C255    1.397   .     A
C254   O308    1.383   .     S
C255   H282    1.083   .     S
C256   C273    1.394   .     A
C256   H279    1.077   .     S
C257   C272    1.395   .     A
C257   C273    1.417   .     A
C257   O296    1.376   .     S
C258   C274    1.398   .     A
C258   C260    1.459   .     S
C259   H283    1.085   .     S
C259   C265    1.389   .     A
C259   C447    1.380   .     S
C260   O288    1.298   .     A
C260   O289    1.298   .     A
C261   C262    1.399   .     A
C261   O298    1.383   .     S
C262   C263    1.413   .     A
C262   C270    1.409   .     S
C263   O300    1.385   .     S
C264   O302    1.385   .     S
C264   C265    1.409   .     A
C264   C449    1.381   .     S
C266   Cl304   1.755   .     S
C266   N285    1.361   .     A
C266   C329    1.414   .     S
C267   O305    1.376   .     S
C267   N284    1.387   .     A
C268   H277    1.082   .     S
C268   N284    1.362   .     A
C269   Cl307   1.754   .     S
C269   N285    1.377   .     A
C269   C330    1.419   .     S
C270   O291    1.284   .     A
C270   O290    1.285   .     A
C271   O293    1.298   .     A
C271   C273    1.465   .     S
C271   O292    1.302   .     A
C272   C811    1.405   1_554 S
C272   H836    1.084   1_554 S
C274   H280    1.084   .     S
C274   C275    1.385   .     A
C275   C834    1.395   .     S
C275   H839    1.083   .     S
C276   Cl310   1.769   .     S
C276   C833    1.395   1_554 S
C276   C808    1.435   1_554 S
H278   C830    1.084   .     S
H281   C833    1.083   1_554 S
N284   Zn294   2.024   .     S
N285   Zn295   2.024   .     S
O286   Zn294   1.980   .     S
O287   Zn295   1.986   .     S
O288   Zn294   1.978   .     S
O289   Zn295   1.927   .     S
O290   Zn294   1.986   .     S
O291   Zn295   1.980   .     S
O292   Zn294   1.927   .     S
O293   Zn295   1.978   .     S
O296   H297    0.990   .     S
O298   H299    0.992   .     S
O300   H301    0.988   .     S
O302   H303    0.989   .     S
O305   H306    0.975   .     S
O308   H309    0.992   .     S
C311   C327    1.405   .     S
C311   O348    1.284   .     A
C311   O349    1.284   .     A
C312   C313    1.410   .     A
C312   C872    1.417   .     S
C312   C896    1.435   .     S
C313   C320    1.410   .     A
C313   C317    1.415   .     A
C314   C318    1.380   .     A
C314   C870    1.417   1_554 S
C314   C873    1.418   1_554 S
C315   C316    1.396   .     A
C315   C872    1.418   .     S
C315   C892    1.405   .     S
C316   C317    1.397   .     A
C316   O370    1.383   .     S
C317   H344    1.083   .     S
C318   C335    1.394   .     A
C318   H341    1.077   .     S
C319   C334    1.395   .     A
C319   C335    1.417   .     A
C319   O358    1.376   .     S
C320   C336    1.398   .     A
C320   C322    1.459   .     S
C321   H345    1.085   .     S
C321   C327    1.389   .     A
C321   C509    1.380   .     S
C322   O350    1.298   .     A
C322   O351    1.298   .     A
C323   C324    1.399   .     A
C323   O360    1.383   .     S
C324   C325    1.413   .     A
C324   C332    1.409   .     S
C325   O362    1.385   .     S
C326   O364    1.385   .     S
C326   C327    1.409   .     A
C326   C511    1.381   .     S
C328   Cl366   1.755   .     S
C328   N347    1.361   .     A
C328   C205    1.414   1_655 S
C329   O367    1.376   .     S
C329   N346    1.387   .     A
C330   H339    1.082   .     S
C330   N346    1.362   .     A
C331   Cl369   1.754   .     S
C331   N347    1.377   .     A
C331   C206    1.419   1_655 S
C332   O353    1.284   .     A
C332   O352    1.285   .     A
C333   O355    1.298   .     A
C333   C335    1.465   .     S
C333   O354    1.302   .     A
C334   C873    1.405   1_554 S
C334   H898    1.084   1_554 S
C336   H342    1.084   .     S
C336   C337    1.385   .     A
C337   C896    1.395   .     S
C337   H901    1.083   .     S
C338   Cl372   1.769   .     S
C338   C895    1.395   1_554 S
C338   C870    1.435   1_554 S
H340   C892    1.084   .     S
H343   C895    1.083   1_554 S
N346   Zn356   2.024   .     S
N347   Zn357   2.024   .     S
O348   Zn356   1.980   .     S
O349   Zn357   1.986   .     S
O350   Zn356   1.978   .     S
O351   Zn357   1.927   .     S
O352   Zn356   1.986   .     S
O353   Zn357   1.980   .     S
O354   Zn356   1.927   .     S
O355   Zn357   1.978   .     S
O358   H359    0.990   .     S
O360   H361    0.992   .     S
O362   H363    0.988   .     S
O364   H365    0.989   .     S
O367   H368    0.975   .     S
O370   H371    0.992   .     S
C373   C389    1.405   .     S
C373   O410    1.284   .     A
C373   O411    1.284   .     A
C374   C375    1.410   .     A
C374   C934    1.417   .     S
C374   C958    1.435   .     S
C375   C382    1.410   .     A
C375   C379    1.415   .     A
C376   C380    1.380   .     A
C376   C932    1.417   1_554 S
C376   C935    1.418   1_554 S
C377   C378    1.396   .     A
C377   C934    1.418   .     S
C377   C954    1.405   .     S
C378   C379    1.397   .     A
C378   O432    1.383   .     S
C379   H406    1.083   .     S
C380   C397    1.394   .     A
C380   H403    1.077   .     S
C381   C396    1.395   .     A
C381   C397    1.417   .     A
C381   O420    1.376   .     S
C382   C398    1.398   .     A
C382   C384    1.459   .     S
C383   H407    1.085   .     S
C383   C389    1.389   .     A
C383   C13     1.380   1_565 S
C384   O412    1.298   .     A
C384   O413    1.298   .     A
C385   C386    1.399   .     A
C385   O422    1.383   .     S
C386   C387    1.413   .     A
C386   C394    1.409   .     S
C387   O424    1.385   .     S
C388   O426    1.385   .     S
C388   C389    1.409   .     A
C388   C15     1.381   1_565 S
C390   Cl428   1.755   .     S
C390   N409    1.361   .     A
C390   C453    1.414   .     S
C391   O429    1.376   .     S
C391   N408    1.387   .     A
C391   C514    1.414   1_455 S
C392   H401    1.082   .     S
C392   N408    1.362   .     A
C392   C517    1.419   1_455 S
C393   Cl431   1.754   .     S
C393   N409    1.377   .     A
C393   C454    1.419   .     S
C394   O415    1.284   .     A
C394   O414    1.285   .     A
C395   O417    1.298   .     A
C395   C397    1.465   .     S
C395   O416    1.302   .     A
C396   C935    1.405   1_554 S
C396   H960    1.084   1_554 S
C398   H404    1.084   .     S
C398   C399    1.385   .     A
C399   C958    1.395   .     S
C399   H963    1.083   .     S
C400   Cl434   1.769   .     S
C400   C957    1.395   1_554 S
C400   C932    1.435   1_554 S
H402   C954    1.084   .     S
H405   C957    1.083   1_554 S
N408   Zn418   2.024   .     S
N409   Zn419   2.024   .     S
O410   Zn418   1.980   .     S
O411   Zn419   1.986   .     S
O412   Zn418   1.978   .     S
O413   Zn419   1.927   .     S
O414   Zn418   1.986   .     S
O415   Zn419   1.980   .     S
O416   Zn418   1.927   .     S
O417   Zn419   1.978   .     S
O420   H421    0.990   .     S
O422   H423    0.992   .     S
O424   H425    0.988   .     S
O426   H427    0.989   .     S
O429   H430    0.975   .     S
O432   H433    0.992   .     S
C435   C451    1.405   .     S
C435   O472    1.284   .     A
C435   O473    1.284   .     A
C436   C437    1.410   .     A
C436   C996    1.417   .     S
C436   C1020   1.435   .     S
C437   C444    1.410   .     A
C437   C441    1.415   .     A
C438   C442    1.380   .     A
C438   C994    1.417   1_554 S
C438   C997    1.418   1_554 S
C439   C440    1.396   .     A
C439   C996    1.418   .     S
C439   C1016   1.405   .     S
C440   C441    1.397   .     A
C440   O494    1.383   .     S
C441   H468    1.083   .     S
C442   C459    1.394   .     A
C442   H465    1.077   .     S
C443   C458    1.395   .     A
C443   C459    1.417   .     A
C443   O482    1.376   .     S
C444   C460    1.398   .     A
C444   C446    1.459   .     S
C445   H469    1.085   .     S
C445   C451    1.389   .     A
C445   C75     1.380   1_565 S
C446   O474    1.298   .     A
C446   O475    1.298   .     A
C447   C448    1.399   .     A
C447   O484    1.383   .     S
C448   C449    1.413   .     A
C448   C456    1.409   .     S
C449   O486    1.385   .     S
C450   O488    1.385   .     S
C450   C451    1.409   .     A
C450   C77     1.381   1_565 S
C452   Cl490   1.755   .     S
C452   N471    1.361   .     A
C452   C515    1.414   .     S
C453   O491    1.376   .     S
C453   N470    1.387   .     A
C454   H463    1.082   .     S
C454   N470    1.362   .     A
C455   Cl493   1.754   .     S
C455   N471    1.377   .     A
C455   C516    1.419   .     S
C456   O477    1.284   .     A
C456   O476    1.285   .     A
C457   O479    1.298   .     A
C457   C459    1.465   .     S
C457   O478    1.302   .     A
C458   C997    1.405   1_554 S
C458   H1022   1.084   1_554 S
C460   H466    1.084   .     S
C460   C461    1.385   .     A
C461   C1020   1.395   .     S
C461   H1025   1.083   .     S
C462   Cl496   1.769   .     S
C462   C1019   1.395   1_554 S
C462   C994    1.435   1_554 S
H464   C1016   1.084   .     S
H467   C1019   1.083   1_554 S
N470   Zn480   2.024   .     S
N471   Zn481   2.024   .     S
O472   Zn480   1.980   .     S
O473   Zn481   1.986   .     S
O474   Zn480   1.978   .     S
O475   Zn481   1.927   .     S
O476   Zn480   1.986   .     S
O477   Zn481   1.980   .     S
O478   Zn480   1.927   .     S
O479   Zn481   1.978   .     S
O482   H483    0.990   .     S
O484   H485    0.992   .     S
O486   H487    0.988   .     S
O488   H489    0.989   .     S
O491   H492    0.975   .     S
O494   H495    0.992   .     S
C497   C513    1.405   .     S
C497   O534    1.284   .     A
C497   O535    1.284   .     A
C498   C499    1.410   .     A
C498   C1058   1.417   .     S
C498   C1082   1.435   .     S
C499   C506    1.410   .     A
C499   C503    1.415   .     A
C500   C504    1.380   .     A
C500   C1056   1.417   1_554 S
C500   C1059   1.418   1_554 S
C501   C502    1.396   .     A
C501   C1058   1.418   .     S
C501   C1078   1.405   .     S
C502   C503    1.397   .     A
C502   O556    1.383   .     S
C503   H530    1.083   .     S
C504   C521    1.394   .     A
C504   H527    1.077   .     S
C505   C520    1.395   .     A
C505   C521    1.417   .     A
C505   O544    1.376   .     S
C506   C522    1.398   .     A
C506   C508    1.459   .     S
C507   H531    1.085   .     S
C507   C513    1.389   .     A
C507   C137    1.380   1_565 S
C508   O536    1.298   .     A
C508   O537    1.298   .     A
C509   C510    1.399   .     A
C509   O546    1.383   .     S
C510   C511    1.413   .     A
C510   C518    1.409   .     S
C511   O548    1.385   .     S
C512   O550    1.385   .     S
C512   C513    1.409   .     A
C512   C139    1.381   1_565 S
C514   Cl552   1.755   .     S
C514   N533    1.361   .     A
C514   C391    1.414   1_655 S
C515   O553    1.376   .     S
C515   N532    1.387   .     A
C516   H525    1.082   .     S
C516   N532    1.362   .     A
C517   Cl555   1.754   .     S
C517   N533    1.377   .     A
C517   C392    1.419   1_655 S
C518   O539    1.284   .     A
C518   O538    1.285   .     A
C519   O541    1.298   .     A
C519   C521    1.465   .     S
C519   O540    1.302   .     A
C520   C1059   1.405   1_554 S
C520   H1084   1.084   1_554 S
C522   H528    1.084   .     S
C522   C523    1.385   .     A
C523   C1082   1.395   .     S
C523   H1087   1.083   .     S
C524   Cl558   1.769   .     S
C524   C1081   1.395   1_554 S
C524   C1056   1.435   1_554 S
H526   C1078   1.084   .     S
H529   C1081   1.083   1_554 S
N532   Zn542   2.024   .     S
N533   Zn543   2.024   .     S
O534   Zn542   1.980   .     S
O535   Zn543   1.986   .     S
O536   Zn542   1.978   .     S
O537   Zn543   1.927   .     S
O538   Zn542   1.986   .     S
O539   Zn543   1.980   .     S
O540   Zn542   1.927   .     S
O541   Zn543   1.978   .     S
O544   H545    0.990   .     S
O546   H547    0.992   .     S
O548   H549    0.988   .     S
O550   H551    0.989   .     S
O553   H554    0.975   .     S
O556   H557    0.992   .     S
C559   C575    1.405   .     S
C559   O596    1.284   .     A
C559   O597    1.284   .     A
C560   C561    1.410   .     A
C560   C4      1.417   1_556 S
C560   C28     1.435   1_556 S
C561   C568    1.410   .     A
C561   C565    1.415   .     A
C562   C566    1.380   .     A
C563   C564    1.396   .     A
C563   C4      1.418   1_556 S
C563   C24     1.405   1_556 S
C564   C565    1.397   .     A
C564   O618    1.383   .     S
C565   H592    1.083   .     S
C566   C583    1.394   .     A
C566   H589    1.077   .     S
C567   C582    1.395   .     A
C567   C583    1.417   .     A
C567   O606    1.376   .     S
C568   C584    1.398   .     A
C568   C570    1.459   .     S
C569   H593    1.085   .     S
C569   C575    1.389   .     A
C569   C757    1.380   .     S
C570   O598    1.298   .     A
C570   O599    1.298   .     A
C571   C572    1.399   .     A
C571   O608    1.383   .     S
C571   C941    1.380   1_545 S
C572   C573    1.413   .     A
C572   C580    1.409   .     S
C573   O610    1.385   .     S
C573   C946    1.381   1_545 S
C574   O612    1.385   .     S
C574   C575    1.409   .     A
C574   C759    1.381   .     S
C576   Cl614   1.755   .     S
C576   N595    1.361   .     A
C576   C639    1.414   .     S
C577   O615    1.376   .     S
C577   N594    1.387   .     A
C577   C700    1.414   1_455 S
C578   H587    1.082   .     S
C578   N594    1.362   .     A
C578   C703    1.419   1_455 S
C579   Cl617   1.754   .     S
C579   N595    1.377   .     A
C579   C640    1.419   .     S
C580   O601    1.284   .     A
C580   O600    1.285   .     A
C581   O603    1.298   .     A
C581   C583    1.465   .     S
C581   O602    1.302   .     A
C584   H590    1.084   .     S
C584   C585    1.385   .     A
C585   C28     1.395   1_556 S
C585   H33     1.083   1_556 S
C586   Cl620   1.769   .     S
H588   C24     1.084   1_556 S
N594   Zn604   2.024   .     S
N595   Zn605   2.024   .     S
O596   Zn604   1.980   .     S
O597   Zn605   1.986   .     S
O598   Zn604   1.978   .     S
O599   Zn605   1.927   .     S
O600   Zn604   1.986   .     S
O601   Zn605   1.980   .     S
O602   Zn604   1.927   .     S
O603   Zn605   1.978   .     S
O606   H607    0.990   .     S
O608   H609    0.992   .     S
O610   H611    0.988   .     S
O612   H613    0.989   .     S
O615   H616    0.975   .     S
O618   H619    0.992   .     S
C621   C637    1.405   .     S
C621   O658    1.284   .     A
C621   O659    1.284   .     A
C622   C623    1.410   .     A
C622   C66     1.417   1_556 S
C622   C90     1.435   1_556 S
C623   C630    1.410   .     A
C623   C627    1.415   .     A
C624   C628    1.380   .     A
C625   C626    1.396   .     A
C625   C66     1.418   1_556 S
C625   C86     1.405   1_556 S
C626   C627    1.397   .     A
C626   O680    1.383   .     S
C627   H654    1.083   .     S
C628   C645    1.394   .     A
C628   H651    1.077   .     S
C629   C644    1.395   .     A
C629   C645    1.417   .     A
C629   O668    1.376   .     S
C630   C646    1.398   .     A
C630   C632    1.459   .     S
C631   H655    1.085   .     S
C631   C637    1.389   .     A
C631   C819    1.380   .     S
C632   O660    1.298   .     A
C632   O661    1.298   .     A
C633   C634    1.399   .     A
C633   O670    1.383   .     S
C633   C1003   1.380   1_545 S
C634   C635    1.413   .     A
C634   C642    1.409   .     S
C635   O672    1.385   .     S
C635   C1008   1.381   1_545 S
C636   O674    1.385   .     S
C636   C637    1.409   .     A
C636   C821    1.381   .     S
C638   Cl676   1.755   .     S
C638   N657    1.361   .     A
C638   C701    1.414   .     S
C639   O677    1.376   .     S
C639   N656    1.387   .     A
C640   H649    1.082   .     S
C640   N656    1.362   .     A
C641   Cl679   1.754   .     S
C641   N657    1.377   .     A
C641   C702    1.419   .     S
C642   O663    1.284   .     A
C642   O662    1.285   .     A
C643   O665    1.298   .     A
C643   C645    1.465   .     S
C643   O664    1.302   .     A
C646   H652    1.084   .     S
C646   C647    1.385   .     A
C647   C90     1.395   1_556 S
C647   H95     1.083   1_556 S
C648   Cl682   1.769   .     S
H650   C86     1.084   1_556 S
N656   Zn666   2.024   .     S
N657   Zn667   2.024   .     S
O658   Zn666   1.980   .     S
O659   Zn667   1.986   .     S
O660   Zn666   1.978   .     S
O661   Zn667   1.927   .     S
O662   Zn666   1.986   .     S
O663   Zn667   1.980   .     S
O664   Zn666   1.927   .     S
O665   Zn667   1.978   .     S
O668   H669    0.990   .     S
O670   H671    0.992   .     S
O672   H673    0.988   .     S
O674   H675    0.989   .     S
O677   H678    0.975   .     S
O680   H681    0.992   .     S
C683   C699    1.405   .     S
C683   O720    1.284   .     A
C683   O721    1.284   .     A
C684   C685    1.410   .     A
C684   C128    1.417   1_556 S
C684   C152    1.435   1_556 S
C685   C692    1.410   .     A
C685   C689    1.415   .     A
C686   C690    1.380   .     A
C687   C688    1.396   .     A
C687   C128    1.418   1_556 S
C687   C148    1.405   1_556 S
C688   C689    1.397   .     A
C688   O742    1.383   .     S
C689   H716    1.083   .     S
C690   C707    1.394   .     A
C690   H713    1.077   .     S
C691   C706    1.395   .     A
C691   C707    1.417   .     A
C691   O730    1.376   .     S
C692   C708    1.398   .     A
C692   C694    1.459   .     S
C693   H717    1.085   .     S
C693   C699    1.389   .     A
C693   C881    1.380   .     S
C694   O722    1.298   .     A
C694   O723    1.298   .     A
C695   C696    1.399   .     A
C695   O732    1.383   .     S
C695   C1065   1.380   1_545 S
C696   C697    1.413   .     A
C696   C704    1.409   .     S
C697   O734    1.385   .     S
C697   C1070   1.381   1_545 S
C698   O736    1.385   .     S
C698   C699    1.409   .     A
C698   C883    1.381   .     S
C700   Cl738   1.755   .     S
C700   N719    1.361   .     A
C700   C577    1.414   1_655 S
C701   O739    1.376   .     S
C701   N718    1.387   .     A
C702   H711    1.082   .     S
C702   N718    1.362   .     A
C703   Cl741   1.754   .     S
C703   N719    1.377   .     A
C703   C578    1.419   1_655 S
C704   O725    1.284   .     A
C704   O724    1.285   .     A
C705   O727    1.298   .     A
C705   C707    1.465   .     S
C705   O726    1.302   .     A
C708   H714    1.084   .     S
C708   C709    1.385   .     A
C709   C152    1.395   1_556 S
C709   H157    1.083   1_556 S
C710   Cl744   1.769   .     S
H712   C148    1.084   1_556 S
N718   Zn728   2.024   .     S
N719   Zn729   2.024   .     S
O720   Zn728   1.980   .     S
O721   Zn729   1.986   .     S
O722   Zn728   1.978   .     S
O723   Zn729   1.927   .     S
O724   Zn728   1.986   .     S
O725   Zn729   1.980   .     S
O726   Zn728   1.927   .     S
O727   Zn729   1.978   .     S
O730   H731    0.990   .     S
O732   H733    0.992   .     S
O734   H735    0.988   .     S
O736   H737    0.989   .     S
O739   H740    0.975   .     S
O742   H743    0.992   .     S
C745   C761    1.405   .     S
C745   O782    1.284   .     A
C745   O783    1.284   .     A
C746   C747    1.410   .     A
C746   C190    1.417   1_556 S
C746   C214    1.435   1_556 S
C747   C754    1.410   .     A
C747   C751    1.415   .     A
C748   C752    1.380   .     A
C749   C750    1.396   .     A
C749   C190    1.418   1_556 S
C749   C210    1.405   1_556 S
C750   C751    1.397   .     A
C750   O804    1.383   .     S
C751   H778    1.083   .     S
C752   C769    1.394   .     A
C752   H775    1.077   .     S
C753   C768    1.395   .     A
C753   C769    1.417   .     A
C753   O792    1.376   .     S
C754   C770    1.398   .     A
C754   C756    1.459   .     S
C755   H779    1.085   .     S
C755   C761    1.389   .     A
C755   C943    1.380   .     S
C756   O784    1.298   .     A
C756   O785    1.298   .     A
C757   C758    1.399   .     A
C757   O794    1.383   .     S
C758   C759    1.413   .     A
C758   C766    1.409   .     S
C759   O796    1.385   .     S
C760   O798    1.385   .     S
C760   C761    1.409   .     A
C760   C945    1.381   .     S
C762   Cl800   1.755   .     S
C762   N781    1.361   .     A
C762   C825    1.414   .     S
C763   O801    1.376   .     S
C763   N780    1.387   .     A
C763   C886    1.414   1_455 S
C764   H773    1.082   .     S
C764   N780    1.362   .     A
C764   C889    1.419   1_455 S
C765   Cl803   1.754   .     S
C765   N781    1.377   .     A
C765   C826    1.419   .     S
C766   O787    1.284   .     A
C766   O786    1.285   .     A
C767   O789    1.298   .     A
C767   C769    1.465   .     S
C767   O788    1.302   .     A
C770   H776    1.084   .     S
C770   C771    1.385   .     A
C771   C214    1.395   1_556 S
C771   H219    1.083   1_556 S
C772   Cl806   1.769   .     S
H774   C210    1.084   1_556 S
N780   Zn790   2.024   .     S
N781   Zn791   2.024   .     S
O782   Zn790   1.980   .     S
O783   Zn791   1.986   .     S
O784   Zn790   1.978   .     S
O785   Zn791   1.927   .     S
O786   Zn790   1.986   .     S
O787   Zn791   1.980   .     S
O788   Zn790   1.927   .     S
O789   Zn791   1.978   .     S
O792   H793    0.990   .     S
O794   H795    0.992   .     S
O796   H797    0.988   .     S
O798   H799    0.989   .     S
O801   H802    0.975   .     S
O804   H805    0.992   .     S
C807   C823    1.405   .     S
C807   O844    1.284   .     A
C807   O845    1.284   .     A
C808   C809    1.410   .     A
C808   C252    1.417   1_556 S
C808   C276    1.435   1_556 S
C809   C816    1.410   .     A
C809   C813    1.415   .     A
C810   C814    1.380   .     A
C811   C812    1.396   .     A
C811   C252    1.418   1_556 S
C811   C272    1.405   1_556 S
C812   C813    1.397   .     A
C812   O866    1.383   .     S
C813   H840    1.083   .     S
C814   C831    1.394   .     A
C814   H837    1.077   .     S
C815   C830    1.395   .     A
C815   C831    1.417   .     A
C815   O854    1.376   .     S
C816   C832    1.398   .     A
C816   C818    1.459   .     S
C817   H841    1.085   .     S
C817   C823    1.389   .     A
C817   C1005   1.380   .     S
C818   O846    1.298   .     A
C818   O847    1.298   .     A
C819   C820    1.399   .     A
C819   O856    1.383   .     S
C820   C821    1.413   .     A
C820   C828    1.409   .     S
C821   O858    1.385   .     S
C822   O860    1.385   .     S
C822   C823    1.409   .     A
C822   C1007   1.381   .     S
C824   Cl862   1.755   .     S
C824   N843    1.361   .     A
C824   C887    1.414   .     S
C825   O863    1.376   .     S
C825   N842    1.387   .     A
C826   H835    1.082   .     S
C826   N842    1.362   .     A
C827   Cl865   1.754   .     S
C827   N843    1.377   .     A
C827   C888    1.419   .     S
C828   O849    1.284   .     A
C828   O848    1.285   .     A
C829   O851    1.298   .     A
C829   C831    1.465   .     S
C829   O850    1.302   .     A
C832   H838    1.084   .     S
C832   C833    1.385   .     A
C833   C276    1.395   1_556 S
C833   H281    1.083   1_556 S
C834   Cl868   1.769   .     S
H836   C272    1.084   1_556 S
N842   Zn852   2.024   .     S
N843   Zn853   2.024   .     S
O844   Zn852   1.980   .     S
O845   Zn853   1.986   .     S
O846   Zn852   1.978   .     S
O847   Zn853   1.927   .     S
O848   Zn852   1.986   .     S
O849   Zn853   1.980   .     S
O850   Zn852   1.927   .     S
O851   Zn853   1.978   .     S
O854   H855    0.990   .     S
O856   H857    0.992   .     S
O858   H859    0.988   .     S
O860   H861    0.989   .     S
O863   H864    0.975   .     S
O866   H867    0.992   .     S
C869   C885    1.405   .     S
C869   O906    1.284   .     A
C869   O907    1.284   .     A
C870   C871    1.410   .     A
C870   C314    1.417   1_556 S
C870   C338    1.435   1_556 S
C871   C878    1.410   .     A
C871   C875    1.415   .     A
C872   C876    1.380   .     A
C873   C874    1.396   .     A
C873   C314    1.418   1_556 S
C873   C334    1.405   1_556 S
C874   C875    1.397   .     A
C874   O928    1.383   .     S
C875   H902    1.083   .     S
C876   C893    1.394   .     A
C876   H899    1.077   .     S
C877   C892    1.395   .     A
C877   C893    1.417   .     A
C877   O916    1.376   .     S
C878   C894    1.398   .     A
C878   C880    1.459   .     S
C879   H903    1.085   .     S
C879   C885    1.389   .     A
C879   C1067   1.380   .     S
C880   O908    1.298   .     A
C880   O909    1.298   .     A
C881   C882    1.399   .     A
C881   O918    1.383   .     S
C882   C883    1.413   .     A
C882   C890    1.409   .     S
C883   O920    1.385   .     S
C884   O922    1.385   .     S
C884   C885    1.409   .     A
C884   C1069   1.381   .     S
C886   Cl924   1.755   .     S
C886   N905    1.361   .     A
C886   C763    1.414   1_655 S
C887   O925    1.376   .     S
C887   N904    1.387   .     A
C888   H897    1.082   .     S
C888   N904    1.362   .     A
C889   Cl927   1.754   .     S
C889   N905    1.377   .     A
C889   C764    1.419   1_655 S
C890   O911    1.284   .     A
C890   O910    1.285   .     A
C891   O913    1.298   .     A
C891   C893    1.465   .     S
C891   O912    1.302   .     A
C894   H900    1.084   .     S
C894   C895    1.385   .     A
C895   C338    1.395   1_556 S
C895   H343    1.083   1_556 S
C896   Cl930   1.769   .     S
H898   C334    1.084   1_556 S
N904   Zn914   2.024   .     S
N905   Zn915   2.024   .     S
O906   Zn914   1.980   .     S
O907   Zn915   1.986   .     S
O908   Zn914   1.978   .     S
O909   Zn915   1.927   .     S
O910   Zn914   1.986   .     S
O911   Zn915   1.980   .     S
O912   Zn914   1.927   .     S
O913   Zn915   1.978   .     S
O916   H917    0.990   .     S
O918   H919    0.992   .     S
O920   H921    0.988   .     S
O922   H923    0.989   .     S
O925   H926    0.975   .     S
O928   H929    0.992   .     S
C931   C947    1.405   .     S
C931   O968    1.284   .     A
C931   O969    1.284   .     A
C932   C933    1.410   .     A
C932   C376    1.417   1_556 S
C932   C400    1.435   1_556 S
C933   C940    1.410   .     A
C933   C937    1.415   .     A
C934   C938    1.380   .     A
C935   C936    1.396   .     A
C935   C376    1.418   1_556 S
C935   C396    1.405   1_556 S
C936   C937    1.397   .     A
C936   O990    1.383   .     S
C937   H964    1.083   .     S
C938   C955    1.394   .     A
C938   H961    1.077   .     S
C939   C954    1.395   .     A
C939   C955    1.417   .     A
C939   O978    1.376   .     S
C940   C956    1.398   .     A
C940   C942    1.459   .     S
C941   H965    1.085   .     S
C941   C947    1.389   .     A
C941   C571    1.380   1_565 S
C942   O970    1.298   .     A
C942   O971    1.298   .     A
C943   C944    1.399   .     A
C943   O980    1.383   .     S
C944   C945    1.413   .     A
C944   C952    1.409   .     S
C945   O982    1.385   .     S
C946   O984    1.385   .     S
C946   C947    1.409   .     A
C946   C573    1.381   1_565 S
C948   Cl986   1.755   .     S
C948   N967    1.361   .     A
C948   C1011   1.414   .     S
C949   O987    1.376   .     S
C949   N966    1.387   .     A
C949   C1072   1.414   1_455 S
C950   H959    1.082   .     S
C950   N966    1.362   .     A
C950   C1075   1.419   1_455 S
C951   Cl989   1.754   .     S
C951   N967    1.377   .     A
C951   C1012   1.419   .     S
C952   O973    1.284   .     A
C952   O972    1.285   .     A
C953   O975    1.298   .     A
C953   C955    1.465   .     S
C953   O974    1.302   .     A
C956   H962    1.084   .     S
C956   C957    1.385   .     A
C957   C400    1.395   1_556 S
C957   H405    1.083   1_556 S
C958   Cl992   1.769   .     S
H960   C396    1.084   1_556 S
N966   Zn976   2.024   .     S
N967   Zn977   2.024   .     S
O968   Zn976   1.980   .     S
O969   Zn977   1.986   .     S
O970   Zn976   1.978   .     S
O971   Zn977   1.927   .     S
O972   Zn976   1.986   .     S
O973   Zn977   1.980   .     S
O974   Zn976   1.927   .     S
O975   Zn977   1.978   .     S
O978   H979    0.990   .     S
O980   H981    0.992   .     S
O982   H983    0.988   .     S
O984   H985    0.989   .     S
O987   H988    0.975   .     S
O990   H991    0.992   .     S
C993   C1009   1.405   .     S
C993   O1030   1.284   .     A
C993   O1031   1.284   .     A
C994   C995    1.410   .     A
C994   C438    1.417   1_556 S
C994   C462    1.435   1_556 S
C995   C1002   1.410   .     A
C995   C999    1.415   .     A
C996   C1000   1.380   .     A
C997   C998    1.396   .     A
C997   C438    1.418   1_556 S
C997   C458    1.405   1_556 S
C998   C999    1.397   .     A
C998   O1052   1.383   .     S
C999   H1026   1.083   .     S
C1000  C1017   1.394   .     A
C1000  H1023   1.077   .     S
C1001  C1016   1.395   .     A
C1001  C1017   1.417   .     A
C1001  O1040   1.376   .     S
C1002  C1018   1.398   .     A
C1002  C1004   1.459   .     S
C1003  H1027   1.085   .     S
C1003  C1009   1.389   .     A
C1003  C633    1.380   1_565 S
C1004  O1032   1.298   .     A
C1004  O1033   1.298   .     A
C1005  C1006   1.399   .     A
C1005  O1042   1.383   .     S
C1006  C1007   1.413   .     A
C1006  C1014   1.409   .     S
C1007  O1044   1.385   .     S
C1008  O1046   1.385   .     S
C1008  C1009   1.409   .     A
C1008  C635    1.381   1_565 S
C1010  Cl1048  1.755   .     S
C1010  N1029   1.361   .     A
C1010  C1073   1.414   .     S
C1011  O1049   1.376   .     S
C1011  N1028   1.387   .     A
C1012  H1021   1.082   .     S
C1012  N1028   1.362   .     A
C1013  Cl1051  1.754   .     S
C1013  N1029   1.377   .     A
C1013  C1074   1.419   .     S
C1014  O1035   1.284   .     A
C1014  O1034   1.285   .     A
C1015  O1037   1.298   .     A
C1015  C1017   1.465   .     S
C1015  O1036   1.302   .     A
C1018  H1024   1.084   .     S
C1018  C1019   1.385   .     A
C1019  C462    1.395   1_556 S
C1019  H467    1.083   1_556 S
C1020  Cl1054  1.769   .     S
H1022  C458    1.084   1_556 S
N1028  Zn1038  2.024   .     S
N1029  Zn1039  2.024   .     S
O1030  Zn1038  1.980   .     S
O1031  Zn1039  1.986   .     S
O1032  Zn1038  1.978   .     S
O1033  Zn1039  1.927   .     S
O1034  Zn1038  1.986   .     S
O1035  Zn1039  1.980   .     S
O1036  Zn1038  1.927   .     S
O1037  Zn1039  1.978   .     S
O1040  H1041   0.990   .     S
O1042  H1043   0.992   .     S
O1044  H1045   0.988   .     S
O1046  H1047   0.989   .     S
O1049  H1050   0.975   .     S
O1052  H1053   0.992   .     S
C1055  C1071   1.405   .     S
C1055  O1092   1.284   .     A
C1055  O1093   1.284   .     A
C1056  C1057   1.410   .     A
C1056  C500    1.417   1_556 S
C1056  C524    1.435   1_556 S
C1057  C1064   1.410   .     A
C1057  C1061   1.415   .     A
C1058  C1062   1.380   .     A
C1059  C1060   1.396   .     A
C1059  C500    1.418   1_556 S
C1059  C520    1.405   1_556 S
C1060  C1061   1.397   .     A
C1060  O1114   1.383   .     S
C1061  H1088   1.083   .     S
C1062  C1079   1.394   .     A
C1062  H1085   1.077   .     S
C1063  C1078   1.395   .     A
C1063  C1079   1.417   .     A
C1063  O1102   1.376   .     S
C1064  C1080   1.398   .     A
C1064  C1066   1.459   .     S
C1065  H1089   1.085   .     S
C1065  C1071   1.389   .     A
C1065  C695    1.380   1_565 S
C1066  O1094   1.298   .     A
C1066  O1095   1.298   .     A
C1067  C1068   1.399   .     A
C1067  O1104   1.383   .     S
C1068  C1069   1.413   .     A
C1068  C1076   1.409   .     S
C1069  O1106   1.385   .     S
C1070  O1108   1.385   .     S
C1070  C1071   1.409   .     A
C1070  C697    1.381   1_565 S
C1072  Cl1110  1.755   .     S
C1072  N1091   1.361   .     A
C1072  C949    1.414   1_655 S
C1073  O1111   1.376   .     S
C1073  N1090   1.387   .     A
C1074  H1083   1.082   .     S
C1074  N1090   1.362   .     A
C1075  Cl1113  1.754   .     S
C1075  N1091   1.377   .     A
C1075  C950    1.419   1_655 S
C1076  O1097   1.284   .     A
C1076  O1096   1.285   .     A
C1077  O1099   1.298   .     A
C1077  C1079   1.465   .     S
C1077  O1098   1.302   .     A
C1080  H1086   1.084   .     S
C1080  C1081   1.385   .     A
C1081  C524    1.395   1_556 S
C1081  H529    1.083   1_556 S
C1082  Cl1116  1.769   .     S
H1084  C520    1.084   1_556 S
N1090  Zn1100  2.024   .     S
N1091  Zn1101  2.024   .     S
O1092  Zn1100  1.980   .     S
O1093  Zn1101  1.986   .     S
O1094  Zn1100  1.978   .     S
O1095  Zn1101  1.927   .     S
O1096  Zn1100  1.986   .     S
O1097  Zn1101  1.980   .     S
O1098  Zn1100  1.927   .     S
O1099  Zn1101  1.978   .     S
O1102  H1103   0.990   .     S
O1104  H1105   0.992   .     S
O1106  H1107   0.988   .     S
O1108  H1109   0.989   .     S
O1111  H1112   0.975   .     S
O1114  H1115   0.992   .     S
