data_str_m3_o1_o18_pcu_sym.17
_audit_creation_date              2020-01-03
_audit_creation_method            'Materials Studio'
_symmetry_space_group_name_H-M    'P1'
_symmetry_Int_Tables_number       1
_symmetry_cell_setting            triclinic
loop_
_symmetry_equiv_pos_as_xyz
  x,y,z
_cell_length_a                    30.0274
_cell_length_b                    32.2110
_cell_length_c                    30.6269
_cell_angle_alpha                 89.0009
_cell_angle_beta                  69.4903
_cell_angle_gamma                 88.0982
loop_
_atom_site_label
_atom_site_type_symbol
_atom_site_fract_x
_atom_site_fract_y
_atom_site_fract_z
_atom_site_U_iso_or_equiv
_atom_site_adp_type
_atom_site_occupancy
C1     C     0.16622   0.24663   0.24879   0.00000  Uiso   1.00
C2     C     0.13640   0.31559   0.22912   0.00000  Uiso   1.00
C3     C     0.16664   0.04282   0.25308   0.00000  Uiso   1.00
C4     C     0.16428   0.29110   0.24951   0.00000  Uiso   1.00
C5     C     0.31770   0.13374   0.23248   0.00000  Uiso   1.00
C6     C     0.01526   0.19923   0.26869   0.00000  Uiso   1.00
C7     C     0.03176   0.13412   0.23249   0.00000  Uiso   1.00
C8     C     0.30141   0.19908   0.26783   0.00000  Uiso   1.00
C9     C     0.13720   0.16605   0.33769   0.00000  Uiso   1.00
C10    C     0.19628   0.16729   0.16201   0.00000  Uiso   1.00
C11    C     0.12047   0.16668   0.38846   0.00000  Uiso   1.00
C12    C     0.16664   0.08695   0.25180   0.00000  Uiso   1.00
C13    C     0.21374   0.17272   0.11100   0.00000  Uiso   1.00
C14    C     0.07251   0.14083   0.46453   0.00000  Uiso   1.00
C15    C     0.27354   0.16388   0.03411   0.00000  Uiso   1.00
C16    C     0.08542   0.13945   0.41619   0.00000  Uiso   1.00
C17    C     0.25469   0.15158   0.08107   0.00000  Uiso   1.00
C18    C     0.14444   0.19207   0.40962   0.00000  Uiso   1.00
C19    C     0.18822   0.19930   0.09119   0.00000  Uiso   1.00
C20    C     0.13873   0.18536   0.45651   0.00000  Uiso   1.00
C21    C     0.19841   0.19794   0.04290   0.00000  Uiso   1.00
C22    C     0.09810   0.16436   0.48540   0.00000  Uiso   1.00
C23    C     0.11584   0.18588   0.05254   0.00000  Uiso   1.00
C24    C     0.24510   0.18740   0.01425   0.00000  Uiso   1.00
C25    C     0.17397   0.19585   0.47502   0.00000  Uiso   1.00
C26    C     0.16196   0.19653   0.02391   0.00000  Uiso   1.00
C27    C     0.04289   0.14901   0.06827   0.00000  Uiso   1.00
C28    C     0.30866   0.19477   0.43533   0.00000  Uiso   1.00
C29    C     0.21295   0.03654   0.30895   0.00000  Uiso   1.00
C30    C     0.10240   0.30066   0.20747   0.00000  Uiso   1.00
C31    C     0.30467   0.09650   0.21319   0.00000  Uiso   1.00
C32    C     0.02684   0.23520   0.29167   0.00000  Uiso   1.00
C33    C     0.22248   0.19783   0.44646   0.00000  Uiso   1.00
C34    C     0.08564   0.16683   0.03413   0.00000  Uiso   1.00
C35    C     0.25827   0.19317   0.46585   0.00000  Uiso   1.00
C36    C     0.19064   0.30962   0.27341   0.00000  Uiso   1.00
C37    C     0.14036   0.02458   0.22945   0.00000  Uiso   1.00
C38    C     0.19054   0.01893   0.27731   0.00000  Uiso   1.00
H39    H     0.04478   0.12075   0.48504   0.00000  Uiso   1.00
H40    H     0.03952   0.21839   0.42537   0.00000  Uiso   1.00
H41    H     0.14449   0.24647   0.09927   0.00000  Uiso   1.00
H42    H     0.16100   0.23419   0.36038   0.00000  Uiso   1.00
H43    H     0.24944   0.10452   0.12236   0.00000  Uiso   1.00
H44    H     0.08226   0.10569   0.36519   0.00000  Uiso   1.00
H45    H     0.26374   0.03029   0.33793   0.00000  Uiso   1.00
H46    H     0.04442   0.31378   0.19009   0.00000  Uiso   1.00
H47    H     0.30527   0.03394   0.21149   0.00000  Uiso   1.00
H48    H     0.05409   0.25660   0.33817   0.00000  Uiso   1.00
H49    H     0.30622   0.14940   0.01190   0.00000  Uiso   1.00
H50    H     0.10558   0.18508   0.09006   0.00000  Uiso   1.00
H51    H     0.23349   0.19773   0.40891   0.00000  Uiso   1.00
H52    H     0.20935   0.29054   0.29137   0.00000  Uiso   1.00
H53    H     0.12247   0.04390   0.21089   0.00000  Uiso   1.00
H54    H     0.05610   0.10821   0.21805   0.00000  Uiso   1.00
H55    H     0.27676   0.22468   0.28273   0.00000  Uiso   1.00
H56    H     0.32252   0.15830   0.12970   0.00000  Uiso   1.00
N57    N     0.04759   0.16668   0.25001   0.00000  Uiso   1.00
N58    N     0.28574   0.16666   0.24999   0.00000  Uiso   1.00
O59    O     0.12846   0.22775   0.25000   0.00000  Uiso   1.00
O60    O     0.01441   0.17408   0.10491   0.00000  Uiso   1.00
O61    O     0.32175   0.17998   0.39621   0.00000  Uiso   1.00
O62    O     0.00738   0.21517   0.45076   0.00000  Uiso   1.00
O63    O     0.15287   0.22521   0.11918   0.00000  Uiso   1.00
O64    O     0.17179   0.22476   0.38610   0.00000  Uiso   1.00
O65    O     0.27408   0.11677   0.09495   0.00000  Uiso   1.00
O66    O     0.06290   0.11126   0.39814   0.00000  Uiso   1.00
O67    O     0.19642   0.06817   0.33097   0.00000  Uiso   1.00
O68    O     0.25183   0.01561   0.31530   0.00000  Uiso   1.00
O69    O     0.10680   0.26636   0.19038   0.00000  Uiso   1.00
O70    O     0.20488   0.10558   0.25000   0.00000  Uiso   1.00
O71    O     0.06499   0.32701   0.20583   0.00000  Uiso   1.00
O72    O     0.28678   0.09972   0.18319   0.00000  Uiso   1.00
O73    O     0.31567   0.05720   0.22733   0.00000  Uiso   1.00
O74    O     0.01326   0.27008   0.28472   0.00000  Uiso   1.00
O75    O     0.04929   0.22951   0.32425   0.00000  Uiso   1.00
O76    O     0.20490   0.22774   0.25000   0.00000  Uiso   1.00
O77    O     0.12843   0.10559   0.25000   0.00000  Uiso   1.00
O78    O     0.10661   0.16667   0.31612   0.00000  Uiso   1.00
O79    O     0.22672   0.16666   0.18387   0.00000  Uiso   1.00
O80    O     0.18305   0.16666   0.31612   0.00000  Uiso   1.00
O81    O     0.15028   0.16667   0.18388   0.00000  Uiso   1.00
O82    O     0.03528   0.11209   0.06723   0.00000  Uiso   1.00
Zn83   Zn    0.11562   0.16667   0.25000   0.00000  Uiso   1.00
Zn84   Zn    0.21771   0.16666   0.25000   0.00000  Uiso   1.00
C85    C     0.49955   0.24663   0.24879   0.00000  Uiso   1.00
C86    C     0.46973   0.31559   0.22912   0.00000  Uiso   1.00
C87    C     0.49997   0.04282   0.25308   0.00000  Uiso   1.00
C88    C     0.49762   0.29110   0.24951   0.00000  Uiso   1.00
C89    C     0.65103   0.13374   0.23248   0.00000  Uiso   1.00
C90    C     0.34860   0.19923   0.26869   0.00000  Uiso   1.00
C91    C     0.36509   0.13412   0.23249   0.00000  Uiso   1.00
C92    C     0.63474   0.19908   0.26783   0.00000  Uiso   1.00
C93    C     0.47053   0.16605   0.33769   0.00000  Uiso   1.00
C94    C     0.52961   0.16729   0.16201   0.00000  Uiso   1.00
C95    C     0.45380   0.16668   0.38846   0.00000  Uiso   1.00
C96    C     0.49997   0.08695   0.25180   0.00000  Uiso   1.00
C97    C     0.54707   0.17272   0.11100   0.00000  Uiso   1.00
C98    C     0.40584   0.14083   0.46453   0.00000  Uiso   1.00
C99    C     0.60687   0.16388   0.03411   0.00000  Uiso   1.00
C100   C     0.41875   0.13945   0.41619   0.00000  Uiso   1.00
C101   C     0.58802   0.15158   0.08107   0.00000  Uiso   1.00
C102   C     0.47778   0.19207   0.40962   0.00000  Uiso   1.00
C103   C     0.52155   0.19930   0.09119   0.00000  Uiso   1.00
C104   C     0.47206   0.18536   0.45651   0.00000  Uiso   1.00
C105   C     0.53174   0.19794   0.04290   0.00000  Uiso   1.00
C106   C     0.43144   0.16436   0.48540   0.00000  Uiso   1.00
C107   C     0.44917   0.18588   0.05254   0.00000  Uiso   1.00
C108   C     0.57843   0.18740   0.01425   0.00000  Uiso   1.00
C109   C     0.50730   0.19585   0.47502   0.00000  Uiso   1.00
C110   C     0.49529   0.19653   0.02391   0.00000  Uiso   1.00
C111   C     0.37623   0.14901   0.06827   0.00000  Uiso   1.00
C112   C     0.64200   0.19477   0.43533   0.00000  Uiso   1.00
C113   C     0.54629   0.03654   0.30895   0.00000  Uiso   1.00
C114   C     0.43573   0.30066   0.20747   0.00000  Uiso   1.00
C115   C     0.63800   0.09650   0.21319   0.00000  Uiso   1.00
C116   C     0.36017   0.23520   0.29167   0.00000  Uiso   1.00
C117   C     0.55581   0.19783   0.44646   0.00000  Uiso   1.00
C118   C     0.41897   0.16683   0.03413   0.00000  Uiso   1.00
C119   C     0.59160   0.19317   0.46585   0.00000  Uiso   1.00
C120   C     0.52397   0.30962   0.27341   0.00000  Uiso   1.00
C121   C     0.47369   0.02458   0.22945   0.00000  Uiso   1.00
C122   C     0.52387   0.01893   0.27731   0.00000  Uiso   1.00
H123   H     0.37812   0.12075   0.48504   0.00000  Uiso   1.00
H124   H     0.37286   0.21839   0.42537   0.00000  Uiso   1.00
H125   H     0.47782   0.24647   0.09927   0.00000  Uiso   1.00
H126   H     0.49434   0.23419   0.36038   0.00000  Uiso   1.00
H127   H     0.58277   0.10452   0.12236   0.00000  Uiso   1.00
H128   H     0.41560   0.10569   0.36519   0.00000  Uiso   1.00
H129   H     0.59707   0.03029   0.33793   0.00000  Uiso   1.00
H130   H     0.37775   0.31378   0.19009   0.00000  Uiso   1.00
H131   H     0.63861   0.03394   0.21149   0.00000  Uiso   1.00
H132   H     0.38743   0.25660   0.33817   0.00000  Uiso   1.00
H133   H     0.63956   0.14940   0.01190   0.00000  Uiso   1.00
H134   H     0.43892   0.18508   0.09006   0.00000  Uiso   1.00
H135   H     0.56682   0.19773   0.40891   0.00000  Uiso   1.00
H136   H     0.54268   0.29054   0.29137   0.00000  Uiso   1.00
H137   H     0.45581   0.04390   0.21089   0.00000  Uiso   1.00
H138   H     0.38943   0.10821   0.21805   0.00000  Uiso   1.00
H139   H     0.61009   0.22468   0.28273   0.00000  Uiso   1.00
H140   H     0.65585   0.15830   0.12970   0.00000  Uiso   1.00
N141   N     0.38093   0.16668   0.25001   0.00000  Uiso   1.00
N142   N     0.61907   0.16666   0.24999   0.00000  Uiso   1.00
O143   O     0.46179   0.22775   0.25000   0.00000  Uiso   1.00
O144   O     0.34774   0.17408   0.10491   0.00000  Uiso   1.00
O145   O     0.65509   0.17998   0.39621   0.00000  Uiso   1.00
O146   O     0.34071   0.21517   0.45076   0.00000  Uiso   1.00
O147   O     0.48621   0.22521   0.11918   0.00000  Uiso   1.00
O148   O     0.50512   0.22476   0.38610   0.00000  Uiso   1.00
O149   O     0.60741   0.11677   0.09495   0.00000  Uiso   1.00
O150   O     0.39623   0.11126   0.39814   0.00000  Uiso   1.00
O151   O     0.52975   0.06817   0.33097   0.00000  Uiso   1.00
O152   O     0.58516   0.01561   0.31530   0.00000  Uiso   1.00
O153   O     0.44014   0.26636   0.19038   0.00000  Uiso   1.00
O154   O     0.53821   0.10558   0.25000   0.00000  Uiso   1.00
O155   O     0.39832   0.32701   0.20583   0.00000  Uiso   1.00
O156   O     0.62011   0.09972   0.18319   0.00000  Uiso   1.00
O157   O     0.64900   0.05720   0.22733   0.00000  Uiso   1.00
O158   O     0.34659   0.27008   0.28472   0.00000  Uiso   1.00
O159   O     0.38263   0.22951   0.32425   0.00000  Uiso   1.00
O160   O     0.53823   0.22774   0.25000   0.00000  Uiso   1.00
O161   O     0.46177   0.10559   0.25000   0.00000  Uiso   1.00
O162   O     0.43994   0.16667   0.31612   0.00000  Uiso   1.00
O163   O     0.56006   0.16666   0.18387   0.00000  Uiso   1.00
O164   O     0.51639   0.16666   0.31612   0.00000  Uiso   1.00
O165   O     0.48361   0.16667   0.18388   0.00000  Uiso   1.00
O166   O     0.36861   0.11209   0.06723   0.00000  Uiso   1.00
Zn167  Zn    0.44896   0.16667   0.25000   0.00000  Uiso   1.00
Zn168  Zn    0.55104   0.16666   0.25000   0.00000  Uiso   1.00
C169   C     0.83288   0.24663   0.24879   0.00000  Uiso   1.00
C170   C     0.80306   0.31559   0.22912   0.00000  Uiso   1.00
C171   C     0.83330   0.04282   0.25308   0.00000  Uiso   1.00
C172   C     0.83095   0.29110   0.24951   0.00000  Uiso   1.00
C173   C     0.98436   0.13374   0.23248   0.00000  Uiso   1.00
C174   C     0.68193   0.19923   0.26869   0.00000  Uiso   1.00
C175   C     0.69842   0.13412   0.23249   0.00000  Uiso   1.00
C176   C     0.96808   0.19908   0.26783   0.00000  Uiso   1.00
C177   C     0.80387   0.16605   0.33769   0.00000  Uiso   1.00
C178   C     0.86295   0.16729   0.16201   0.00000  Uiso   1.00
C179   C     0.78714   0.16668   0.38846   0.00000  Uiso   1.00
C180   C     0.83331   0.08695   0.25180   0.00000  Uiso   1.00
C181   C     0.88040   0.17272   0.11100   0.00000  Uiso   1.00
C182   C     0.73917   0.14083   0.46453   0.00000  Uiso   1.00
C183   C     0.94020   0.16388   0.03411   0.00000  Uiso   1.00
C184   C     0.75208   0.13945   0.41619   0.00000  Uiso   1.00
C185   C     0.92135   0.15158   0.08107   0.00000  Uiso   1.00
C186   C     0.81111   0.19207   0.40962   0.00000  Uiso   1.00
C187   C     0.85489   0.19930   0.09119   0.00000  Uiso   1.00
C188   C     0.80540   0.18536   0.45651   0.00000  Uiso   1.00
C189   C     0.86508   0.19794   0.04290   0.00000  Uiso   1.00
C190   C     0.76477   0.16436   0.48540   0.00000  Uiso   1.00
C191   C     0.78250   0.18588   0.05254   0.00000  Uiso   1.00
C192   C     0.91177   0.18740   0.01425   0.00000  Uiso   1.00
C193   C     0.84064   0.19585   0.47502   0.00000  Uiso   1.00
C194   C     0.82863   0.19653   0.02391   0.00000  Uiso   1.00
C195   C     0.70956   0.14901   0.06827   0.00000  Uiso   1.00
C196   C     0.97533   0.19477   0.43533   0.00000  Uiso   1.00
C197   C     0.87962   0.03654   0.30895   0.00000  Uiso   1.00
C198   C     0.76907   0.30066   0.20747   0.00000  Uiso   1.00
C199   C     0.97133   0.09650   0.21319   0.00000  Uiso   1.00
C200   C     0.69351   0.23520   0.29167   0.00000  Uiso   1.00
C201   C     0.88915   0.19783   0.44646   0.00000  Uiso   1.00
C202   C     0.75231   0.16683   0.03413   0.00000  Uiso   1.00
C203   C     0.92493   0.19317   0.46585   0.00000  Uiso   1.00
C204   C     0.85730   0.30962   0.27341   0.00000  Uiso   1.00
C205   C     0.80702   0.02458   0.22945   0.00000  Uiso   1.00
C206   C     0.85721   0.01893   0.27731   0.00000  Uiso   1.00
H207   H     0.71145   0.12075   0.48504   0.00000  Uiso   1.00
H208   H     0.70619   0.21839   0.42537   0.00000  Uiso   1.00
H209   H     0.81116   0.24647   0.09927   0.00000  Uiso   1.00
H210   H     0.82767   0.23419   0.36038   0.00000  Uiso   1.00
H211   H     0.91611   0.10452   0.12236   0.00000  Uiso   1.00
H212   H     0.74893   0.10569   0.36519   0.00000  Uiso   1.00
H213   H     0.93040   0.03029   0.33793   0.00000  Uiso   1.00
H214   H     0.71109   0.31378   0.19009   0.00000  Uiso   1.00
H215   H     0.97194   0.03394   0.21149   0.00000  Uiso   1.00
H216   H     0.72076   0.25660   0.33817   0.00000  Uiso   1.00
H217   H     0.97289   0.14940   0.01190   0.00000  Uiso   1.00
H218   H     0.77225   0.18508   0.09006   0.00000  Uiso   1.00
H219   H     0.90015   0.19773   0.40891   0.00000  Uiso   1.00
H220   H     0.87602   0.29054   0.29137   0.00000  Uiso   1.00
H221   H     0.78914   0.04390   0.21089   0.00000  Uiso   1.00
H222   H     0.72276   0.10821   0.21805   0.00000  Uiso   1.00
H223   H     0.94342   0.22468   0.28273   0.00000  Uiso   1.00
H224   H     0.98919   0.15830   0.12970   0.00000  Uiso   1.00
N225   N     0.71426   0.16668   0.25001   0.00000  Uiso   1.00
N226   N     0.95241   0.16666   0.24999   0.00000  Uiso   1.00
O227   O     0.79512   0.22775   0.25000   0.00000  Uiso   1.00
O228   O     0.68108   0.17408   0.10491   0.00000  Uiso   1.00
O229   O     0.98842   0.17998   0.39621   0.00000  Uiso   1.00
O230   O     0.67404   0.21517   0.45076   0.00000  Uiso   1.00
O231   O     0.81954   0.22521   0.11918   0.00000  Uiso   1.00
O232   O     0.83845   0.22476   0.38610   0.00000  Uiso   1.00
O233   O     0.94075   0.11677   0.09495   0.00000  Uiso   1.00
O234   O     0.72956   0.11126   0.39814   0.00000  Uiso   1.00
O235   O     0.86308   0.06817   0.33097   0.00000  Uiso   1.00
O236   O     0.91849   0.01561   0.31530   0.00000  Uiso   1.00
O237   O     0.77347   0.26636   0.19038   0.00000  Uiso   1.00
O238   O     0.87154   0.10558   0.25000   0.00000  Uiso   1.00
O239   O     0.73165   0.32701   0.20583   0.00000  Uiso   1.00
O240   O     0.95344   0.09972   0.18319   0.00000  Uiso   1.00
O241   O     0.98234   0.05720   0.22733   0.00000  Uiso   1.00
O242   O     0.67993   0.27008   0.28472   0.00000  Uiso   1.00
O243   O     0.71596   0.22951   0.32425   0.00000  Uiso   1.00
O244   O     0.87157   0.22774   0.25000   0.00000  Uiso   1.00
O245   O     0.79510   0.10559   0.25000   0.00000  Uiso   1.00
O246   O     0.77328   0.16667   0.31612   0.00000  Uiso   1.00
O247   O     0.89339   0.16666   0.18387   0.00000  Uiso   1.00
O248   O     0.84972   0.16666   0.31612   0.00000  Uiso   1.00
O249   O     0.81695   0.16667   0.18388   0.00000  Uiso   1.00
O250   O     0.70195   0.11209   0.06723   0.00000  Uiso   1.00
Zn251  Zn    0.78229   0.16667   0.25000   0.00000  Uiso   1.00
Zn252  Zn    0.88438   0.16666   0.25000   0.00000  Uiso   1.00
C253   C     0.16622   0.57996   0.24879   0.00000  Uiso   1.00
C254   C     0.13640   0.64893   0.22912   0.00000  Uiso   1.00
C255   C     0.16664   0.37616   0.25308   0.00000  Uiso   1.00
C256   C     0.16428   0.62443   0.24951   0.00000  Uiso   1.00
C257   C     0.31770   0.46707   0.23248   0.00000  Uiso   1.00
C258   C     0.01526   0.53256   0.26869   0.00000  Uiso   1.00
C259   C     0.03176   0.46746   0.23249   0.00000  Uiso   1.00
C260   C     0.30141   0.53241   0.26783   0.00000  Uiso   1.00
C261   C     0.13720   0.49938   0.33769   0.00000  Uiso   1.00
C262   C     0.19628   0.50062   0.16201   0.00000  Uiso   1.00
C263   C     0.12047   0.50001   0.38846   0.00000  Uiso   1.00
C264   C     0.16664   0.42029   0.25180   0.00000  Uiso   1.00
C265   C     0.21374   0.50605   0.11100   0.00000  Uiso   1.00
C266   C     0.07251   0.47417   0.46453   0.00000  Uiso   1.00
C267   C     0.27354   0.49722   0.03411   0.00000  Uiso   1.00
C268   C     0.08542   0.47279   0.41619   0.00000  Uiso   1.00
C269   C     0.25469   0.48492   0.08107   0.00000  Uiso   1.00
C270   C     0.14444   0.52540   0.40962   0.00000  Uiso   1.00
C271   C     0.18822   0.53264   0.09119   0.00000  Uiso   1.00
C272   C     0.13873   0.51869   0.45651   0.00000  Uiso   1.00
C273   C     0.19841   0.53128   0.04290   0.00000  Uiso   1.00
C274   C     0.09810   0.49770   0.48540   0.00000  Uiso   1.00
C275   C     0.11584   0.51921   0.05254   0.00000  Uiso   1.00
C276   C     0.24510   0.52073   0.01425   0.00000  Uiso   1.00
C277   C     0.17397   0.52918   0.47502   0.00000  Uiso   1.00
C278   C     0.16196   0.52986   0.02391   0.00000  Uiso   1.00
C279   C     0.04289   0.48235   0.06827   0.00000  Uiso   1.00
C280   C     0.30866   0.52810   0.43533   0.00000  Uiso   1.00
C281   C     0.21295   0.36987   0.30895   0.00000  Uiso   1.00
C282   C     0.10240   0.63399   0.20747   0.00000  Uiso   1.00
C283   C     0.30467   0.42983   0.21319   0.00000  Uiso   1.00
C284   C     0.02684   0.56853   0.29167   0.00000  Uiso   1.00
C285   C     0.22248   0.53116   0.44646   0.00000  Uiso   1.00
C286   C     0.08564   0.50017   0.03413   0.00000  Uiso   1.00
C287   C     0.25827   0.52651   0.46585   0.00000  Uiso   1.00
C288   C     0.19064   0.64296   0.27341   0.00000  Uiso   1.00
C289   C     0.14036   0.35791   0.22945   0.00000  Uiso   1.00
C290   C     0.19054   0.35226   0.27731   0.00000  Uiso   1.00
H291   H     0.04478   0.45409   0.48504   0.00000  Uiso   1.00
H292   H     0.03952   0.55172   0.42537   0.00000  Uiso   1.00
H293   H     0.14449   0.57981   0.09927   0.00000  Uiso   1.00
H294   H     0.16100   0.56752   0.36038   0.00000  Uiso   1.00
H295   H     0.24944   0.43785   0.12236   0.00000  Uiso   1.00
H296   H     0.08226   0.43902   0.36519   0.00000  Uiso   1.00
H297   H     0.26374   0.36362   0.33793   0.00000  Uiso   1.00
H298   H     0.04442   0.64711   0.19009   0.00000  Uiso   1.00
H299   H     0.30527   0.36728   0.21149   0.00000  Uiso   1.00
H300   H     0.05409   0.58993   0.33817   0.00000  Uiso   1.00
H301   H     0.30622   0.48274   0.01190   0.00000  Uiso   1.00
H302   H     0.10558   0.51842   0.09006   0.00000  Uiso   1.00
H303   H     0.23349   0.53106   0.40891   0.00000  Uiso   1.00
H304   H     0.20935   0.62388   0.29137   0.00000  Uiso   1.00
H305   H     0.12247   0.37723   0.21089   0.00000  Uiso   1.00
H306   H     0.05610   0.44154   0.21805   0.00000  Uiso   1.00
H307   H     0.27676   0.55802   0.28273   0.00000  Uiso   1.00
H308   H     0.32252   0.49163   0.12970   0.00000  Uiso   1.00
N309   N     0.04759   0.50001   0.25001   0.00000  Uiso   1.00
N310   N     0.28574   0.49999   0.24999   0.00000  Uiso   1.00
O311   O     0.12846   0.56108   0.25000   0.00000  Uiso   1.00
O312   O     0.01441   0.50742   0.10491   0.00000  Uiso   1.00
O313   O     0.32175   0.51331   0.39621   0.00000  Uiso   1.00
O314   O     0.00738   0.54850   0.45076   0.00000  Uiso   1.00
O315   O     0.15287   0.55854   0.11918   0.00000  Uiso   1.00
O316   O     0.17179   0.55809   0.38610   0.00000  Uiso   1.00
O317   O     0.27408   0.45010   0.09495   0.00000  Uiso   1.00
O318   O     0.06290   0.44460   0.39814   0.00000  Uiso   1.00
O319   O     0.19642   0.40151   0.33097   0.00000  Uiso   1.00
O320   O     0.25183   0.34894   0.31530   0.00000  Uiso   1.00
O321   O     0.10680   0.59969   0.19038   0.00000  Uiso   1.00
O322   O     0.20488   0.43892   0.25000   0.00000  Uiso   1.00
O323   O     0.06499   0.66035   0.20583   0.00000  Uiso   1.00
O324   O     0.28678   0.43305   0.18319   0.00000  Uiso   1.00
O325   O     0.31567   0.39054   0.22733   0.00000  Uiso   1.00
O326   O     0.01326   0.60341   0.28472   0.00000  Uiso   1.00
O327   O     0.04929   0.56285   0.32425   0.00000  Uiso   1.00
O328   O     0.20490   0.56107   0.25000   0.00000  Uiso   1.00
O329   O     0.12843   0.43893   0.25000   0.00000  Uiso   1.00
O330   O     0.10661   0.50001   0.31612   0.00000  Uiso   1.00
O331   O     0.22672   0.49999   0.18387   0.00000  Uiso   1.00
O332   O     0.18305   0.50000   0.31612   0.00000  Uiso   1.00
O333   O     0.15028   0.50000   0.18388   0.00000  Uiso   1.00
O334   O     0.03528   0.44542   0.06723   0.00000  Uiso   1.00
Zn335  Zn    0.11562   0.50001   0.25000   0.00000  Uiso   1.00
Zn336  Zn    0.21771   0.49999   0.25000   0.00000  Uiso   1.00
C337   C     0.49955   0.57996   0.24879   0.00000  Uiso   1.00
C338   C     0.46973   0.64893   0.22912   0.00000  Uiso   1.00
C339   C     0.49997   0.37616   0.25308   0.00000  Uiso   1.00
C340   C     0.49762   0.62443   0.24951   0.00000  Uiso   1.00
C341   C     0.65103   0.46707   0.23248   0.00000  Uiso   1.00
C342   C     0.34860   0.53256   0.26869   0.00000  Uiso   1.00
C343   C     0.36509   0.46746   0.23249   0.00000  Uiso   1.00
C344   C     0.63474   0.53241   0.26783   0.00000  Uiso   1.00
C345   C     0.47053   0.49938   0.33769   0.00000  Uiso   1.00
C346   C     0.52961   0.50062   0.16201   0.00000  Uiso   1.00
C347   C     0.45380   0.50001   0.38846   0.00000  Uiso   1.00
C348   C     0.49997   0.42029   0.25180   0.00000  Uiso   1.00
C349   C     0.54707   0.50605   0.11100   0.00000  Uiso   1.00
C350   C     0.40584   0.47417   0.46453   0.00000  Uiso   1.00
C351   C     0.60687   0.49722   0.03411   0.00000  Uiso   1.00
C352   C     0.41875   0.47279   0.41619   0.00000  Uiso   1.00
C353   C     0.58802   0.48492   0.08107   0.00000  Uiso   1.00
C354   C     0.47778   0.52540   0.40962   0.00000  Uiso   1.00
C355   C     0.52155   0.53264   0.09119   0.00000  Uiso   1.00
C356   C     0.47206   0.51869   0.45651   0.00000  Uiso   1.00
C357   C     0.53174   0.53128   0.04290   0.00000  Uiso   1.00
C358   C     0.43144   0.49770   0.48540   0.00000  Uiso   1.00
C359   C     0.44917   0.51921   0.05254   0.00000  Uiso   1.00
C360   C     0.57843   0.52073   0.01425   0.00000  Uiso   1.00
C361   C     0.50730   0.52918   0.47502   0.00000  Uiso   1.00
C362   C     0.49529   0.52986   0.02391   0.00000  Uiso   1.00
C363   C     0.37623   0.48235   0.06827   0.00000  Uiso   1.00
C364   C     0.64200   0.52810   0.43533   0.00000  Uiso   1.00
C365   C     0.54629   0.36987   0.30895   0.00000  Uiso   1.00
C366   C     0.43573   0.63399   0.20747   0.00000  Uiso   1.00
C367   C     0.63800   0.42983   0.21319   0.00000  Uiso   1.00
C368   C     0.36017   0.56853   0.29167   0.00000  Uiso   1.00
C369   C     0.55581   0.53116   0.44646   0.00000  Uiso   1.00
C370   C     0.41897   0.50017   0.03413   0.00000  Uiso   1.00
C371   C     0.59160   0.52651   0.46585   0.00000  Uiso   1.00
C372   C     0.52397   0.64296   0.27341   0.00000  Uiso   1.00
C373   C     0.47369   0.35791   0.22945   0.00000  Uiso   1.00
C374   C     0.52387   0.35226   0.27731   0.00000  Uiso   1.00
H375   H     0.37812   0.45409   0.48504   0.00000  Uiso   1.00
H376   H     0.37286   0.55172   0.42537   0.00000  Uiso   1.00
H377   H     0.47782   0.57981   0.09927   0.00000  Uiso   1.00
H378   H     0.49434   0.56752   0.36038   0.00000  Uiso   1.00
H379   H     0.58277   0.43785   0.12236   0.00000  Uiso   1.00
H380   H     0.41560   0.43902   0.36519   0.00000  Uiso   1.00
H381   H     0.59707   0.36362   0.33793   0.00000  Uiso   1.00
H382   H     0.37775   0.64711   0.19009   0.00000  Uiso   1.00
H383   H     0.63861   0.36728   0.21149   0.00000  Uiso   1.00
H384   H     0.38743   0.58993   0.33817   0.00000  Uiso   1.00
H385   H     0.63956   0.48274   0.01190   0.00000  Uiso   1.00
H386   H     0.43892   0.51842   0.09006   0.00000  Uiso   1.00
H387   H     0.56682   0.53106   0.40891   0.00000  Uiso   1.00
H388   H     0.54268   0.62388   0.29137   0.00000  Uiso   1.00
H389   H     0.45581   0.37723   0.21089   0.00000  Uiso   1.00
H390   H     0.38943   0.44154   0.21805   0.00000  Uiso   1.00
H391   H     0.61009   0.55802   0.28273   0.00000  Uiso   1.00
H392   H     0.65585   0.49163   0.12970   0.00000  Uiso   1.00
N393   N     0.38093   0.50001   0.25001   0.00000  Uiso   1.00
N394   N     0.61907   0.49999   0.24999   0.00000  Uiso   1.00
O395   O     0.46179   0.56108   0.25000   0.00000  Uiso   1.00
O396   O     0.34774   0.50742   0.10491   0.00000  Uiso   1.00
O397   O     0.65509   0.51331   0.39621   0.00000  Uiso   1.00
O398   O     0.34071   0.54850   0.45076   0.00000  Uiso   1.00
O399   O     0.48621   0.55854   0.11918   0.00000  Uiso   1.00
O400   O     0.50512   0.55809   0.38610   0.00000  Uiso   1.00
O401   O     0.60741   0.45010   0.09495   0.00000  Uiso   1.00
O402   O     0.39623   0.44460   0.39814   0.00000  Uiso   1.00
O403   O     0.52975   0.40151   0.33097   0.00000  Uiso   1.00
O404   O     0.58516   0.34894   0.31530   0.00000  Uiso   1.00
O405   O     0.44014   0.59969   0.19038   0.00000  Uiso   1.00
O406   O     0.53821   0.43892   0.25000   0.00000  Uiso   1.00
O407   O     0.39832   0.66035   0.20583   0.00000  Uiso   1.00
O408   O     0.62011   0.43305   0.18319   0.00000  Uiso   1.00
O409   O     0.64900   0.39054   0.22733   0.00000  Uiso   1.00
O410   O     0.34659   0.60341   0.28472   0.00000  Uiso   1.00
O411   O     0.38263   0.56285   0.32425   0.00000  Uiso   1.00
O412   O     0.53823   0.56107   0.25000   0.00000  Uiso   1.00
O413   O     0.46177   0.43893   0.25000   0.00000  Uiso   1.00
O414   O     0.43994   0.50001   0.31612   0.00000  Uiso   1.00
O415   O     0.56006   0.49999   0.18387   0.00000  Uiso   1.00
O416   O     0.51639   0.50000   0.31612   0.00000  Uiso   1.00
O417   O     0.48361   0.50000   0.18388   0.00000  Uiso   1.00
O418   O     0.36861   0.44542   0.06723   0.00000  Uiso   1.00
Zn419  Zn    0.44896   0.50001   0.25000   0.00000  Uiso   1.00
Zn420  Zn    0.55104   0.49999   0.25000   0.00000  Uiso   1.00
C421   C     0.83288   0.57996   0.24879   0.00000  Uiso   1.00
C422   C     0.80306   0.64893   0.22912   0.00000  Uiso   1.00
C423   C     0.83330   0.37616   0.25308   0.00000  Uiso   1.00
C424   C     0.83095   0.62443   0.24951   0.00000  Uiso   1.00
C425   C     0.98436   0.46707   0.23248   0.00000  Uiso   1.00
C426   C     0.68193   0.53256   0.26869   0.00000  Uiso   1.00
C427   C     0.69842   0.46746   0.23249   0.00000  Uiso   1.00
C428   C     0.96808   0.53241   0.26783   0.00000  Uiso   1.00
C429   C     0.80387   0.49938   0.33769   0.00000  Uiso   1.00
C430   C     0.86295   0.50062   0.16201   0.00000  Uiso   1.00
C431   C     0.78714   0.50001   0.38846   0.00000  Uiso   1.00
C432   C     0.83331   0.42029   0.25180   0.00000  Uiso   1.00
C433   C     0.88040   0.50605   0.11100   0.00000  Uiso   1.00
C434   C     0.73917   0.47417   0.46453   0.00000  Uiso   1.00
C435   C     0.94020   0.49722   0.03411   0.00000  Uiso   1.00
C436   C     0.75208   0.47279   0.41619   0.00000  Uiso   1.00
C437   C     0.92135   0.48492   0.08107   0.00000  Uiso   1.00
C438   C     0.81111   0.52540   0.40962   0.00000  Uiso   1.00
C439   C     0.85489   0.53264   0.09119   0.00000  Uiso   1.00
C440   C     0.80540   0.51869   0.45651   0.00000  Uiso   1.00
C441   C     0.86508   0.53128   0.04290   0.00000  Uiso   1.00
C442   C     0.76477   0.49770   0.48540   0.00000  Uiso   1.00
C443   C     0.78250   0.51921   0.05254   0.00000  Uiso   1.00
C444   C     0.91177   0.52073   0.01425   0.00000  Uiso   1.00
C445   C     0.84064   0.52918   0.47502   0.00000  Uiso   1.00
C446   C     0.82863   0.52986   0.02391   0.00000  Uiso   1.00
C447   C     0.70956   0.48235   0.06827   0.00000  Uiso   1.00
C448   C     0.97533   0.52810   0.43533   0.00000  Uiso   1.00
C449   C     0.87962   0.36987   0.30895   0.00000  Uiso   1.00
C450   C     0.76907   0.63399   0.20747   0.00000  Uiso   1.00
C451   C     0.97133   0.42983   0.21319   0.00000  Uiso   1.00
C452   C     0.69351   0.56853   0.29167   0.00000  Uiso   1.00
C453   C     0.88915   0.53116   0.44646   0.00000  Uiso   1.00
C454   C     0.75231   0.50017   0.03413   0.00000  Uiso   1.00
C455   C     0.92493   0.52651   0.46585   0.00000  Uiso   1.00
C456   C     0.85730   0.64296   0.27341   0.00000  Uiso   1.00
C457   C     0.80702   0.35791   0.22945   0.00000  Uiso   1.00
C458   C     0.85721   0.35226   0.27731   0.00000  Uiso   1.00
H459   H     0.71145   0.45409   0.48504   0.00000  Uiso   1.00
H460   H     0.70619   0.55172   0.42537   0.00000  Uiso   1.00
H461   H     0.81116   0.57981   0.09927   0.00000  Uiso   1.00
H462   H     0.82767   0.56752   0.36038   0.00000  Uiso   1.00
H463   H     0.91611   0.43785   0.12236   0.00000  Uiso   1.00
H464   H     0.74893   0.43902   0.36519   0.00000  Uiso   1.00
H465   H     0.93040   0.36362   0.33793   0.00000  Uiso   1.00
H466   H     0.71109   0.64711   0.19009   0.00000  Uiso   1.00
H467   H     0.97194   0.36728   0.21149   0.00000  Uiso   1.00
H468   H     0.72076   0.58993   0.33817   0.00000  Uiso   1.00
H469   H     0.97289   0.48274   0.01190   0.00000  Uiso   1.00
H470   H     0.77225   0.51842   0.09006   0.00000  Uiso   1.00
H471   H     0.90015   0.53106   0.40891   0.00000  Uiso   1.00
H472   H     0.87602   0.62388   0.29137   0.00000  Uiso   1.00
H473   H     0.78914   0.37723   0.21089   0.00000  Uiso   1.00
H474   H     0.72276   0.44154   0.21805   0.00000  Uiso   1.00
H475   H     0.94342   0.55802   0.28273   0.00000  Uiso   1.00
H476   H     0.98919   0.49163   0.12970   0.00000  Uiso   1.00
N477   N     0.71426   0.50001   0.25001   0.00000  Uiso   1.00
N478   N     0.95241   0.49999   0.24999   0.00000  Uiso   1.00
O479   O     0.79512   0.56108   0.25000   0.00000  Uiso   1.00
O480   O     0.68108   0.50742   0.10491   0.00000  Uiso   1.00
O481   O     0.98842   0.51331   0.39621   0.00000  Uiso   1.00
O482   O     0.67404   0.54850   0.45076   0.00000  Uiso   1.00
O483   O     0.81954   0.55854   0.11918   0.00000  Uiso   1.00
O484   O     0.83845   0.55809   0.38610   0.00000  Uiso   1.00
O485   O     0.94075   0.45010   0.09495   0.00000  Uiso   1.00
O486   O     0.72956   0.44460   0.39814   0.00000  Uiso   1.00
O487   O     0.86308   0.40151   0.33097   0.00000  Uiso   1.00
O488   O     0.91849   0.34894   0.31530   0.00000  Uiso   1.00
O489   O     0.77347   0.59969   0.19038   0.00000  Uiso   1.00
O490   O     0.87154   0.43892   0.25000   0.00000  Uiso   1.00
O491   O     0.73165   0.66035   0.20583   0.00000  Uiso   1.00
O492   O     0.95344   0.43305   0.18319   0.00000  Uiso   1.00
O493   O     0.98234   0.39054   0.22733   0.00000  Uiso   1.00
O494   O     0.67993   0.60341   0.28472   0.00000  Uiso   1.00
O495   O     0.71596   0.56285   0.32425   0.00000  Uiso   1.00
O496   O     0.87157   0.56107   0.25000   0.00000  Uiso   1.00
O497   O     0.79510   0.43893   0.25000   0.00000  Uiso   1.00
O498   O     0.77328   0.50001   0.31612   0.00000  Uiso   1.00
O499   O     0.89339   0.49999   0.18387   0.00000  Uiso   1.00
O500   O     0.84972   0.50000   0.31612   0.00000  Uiso   1.00
O501   O     0.81695   0.50000   0.18388   0.00000  Uiso   1.00
O502   O     0.70195   0.44542   0.06723   0.00000  Uiso   1.00
Zn503  Zn    0.78229   0.50001   0.25000   0.00000  Uiso   1.00
Zn504  Zn    0.88438   0.49999   0.25000   0.00000  Uiso   1.00
C505   C     0.16622   0.91329   0.24879   0.00000  Uiso   1.00
C506   C     0.13640   0.98226   0.22912   0.00000  Uiso   1.00
C507   C     0.16664   0.70949   0.25308   0.00000  Uiso   1.00
C508   C     0.16428   0.95777   0.24951   0.00000  Uiso   1.00
C509   C     0.31770   0.80040   0.23248   0.00000  Uiso   1.00
C510   C     0.01526   0.86589   0.26869   0.00000  Uiso   1.00
C511   C     0.03176   0.80079   0.23249   0.00000  Uiso   1.00
C512   C     0.30141   0.86574   0.26783   0.00000  Uiso   1.00
C513   C     0.13720   0.83272   0.33769   0.00000  Uiso   1.00
C514   C     0.19628   0.83395   0.16201   0.00000  Uiso   1.00
C515   C     0.12047   0.83335   0.38846   0.00000  Uiso   1.00
C516   C     0.16664   0.75362   0.25180   0.00000  Uiso   1.00
C517   C     0.21374   0.83939   0.11100   0.00000  Uiso   1.00
C518   C     0.07251   0.80750   0.46453   0.00000  Uiso   1.00
C519   C     0.27354   0.83055   0.03411   0.00000  Uiso   1.00
C520   C     0.08542   0.80612   0.41619   0.00000  Uiso   1.00
C521   C     0.25469   0.81825   0.08107   0.00000  Uiso   1.00
C522   C     0.14444   0.85874   0.40962   0.00000  Uiso   1.00
C523   C     0.18822   0.86597   0.09119   0.00000  Uiso   1.00
C524   C     0.13873   0.85202   0.45651   0.00000  Uiso   1.00
C525   C     0.19841   0.86461   0.04290   0.00000  Uiso   1.00
C526   C     0.09810   0.83103   0.48540   0.00000  Uiso   1.00
C527   C     0.11584   0.85254   0.05254   0.00000  Uiso   1.00
C528   C     0.24510   0.85406   0.01425   0.00000  Uiso   1.00
C529   C     0.17397   0.86252   0.47502   0.00000  Uiso   1.00
C530   C     0.16196   0.86319   0.02391   0.00000  Uiso   1.00
C531   C     0.04289   0.81568   0.06827   0.00000  Uiso   1.00
C532   C     0.30866   0.86143   0.43533   0.00000  Uiso   1.00
C533   C     0.21295   0.70320   0.30895   0.00000  Uiso   1.00
C534   C     0.10240   0.96733   0.20747   0.00000  Uiso   1.00
C535   C     0.30467   0.76316   0.21319   0.00000  Uiso   1.00
C536   C     0.02684   0.90187   0.29167   0.00000  Uiso   1.00
C537   C     0.22248   0.86450   0.44646   0.00000  Uiso   1.00
C538   C     0.08564   0.83350   0.03413   0.00000  Uiso   1.00
C539   C     0.25827   0.85984   0.46585   0.00000  Uiso   1.00
C540   C     0.19064   0.97629   0.27341   0.00000  Uiso   1.00
C541   C     0.14036   0.69124   0.22945   0.00000  Uiso   1.00
C542   C     0.19054   0.68559   0.27731   0.00000  Uiso   1.00
H543   H     0.04478   0.78742   0.48504   0.00000  Uiso   1.00
H544   H     0.03952   0.88506   0.42537   0.00000  Uiso   1.00
H545   H     0.14449   0.91314   0.09927   0.00000  Uiso   1.00
H546   H     0.16100   0.90085   0.36038   0.00000  Uiso   1.00
H547   H     0.24944   0.77118   0.12236   0.00000  Uiso   1.00
H548   H     0.08226   0.77236   0.36519   0.00000  Uiso   1.00
H549   H     0.26374   0.69695   0.33793   0.00000  Uiso   1.00
H550   H     0.04442   0.98044   0.19009   0.00000  Uiso   1.00
H551   H     0.30527   0.70061   0.21149   0.00000  Uiso   1.00
H552   H     0.05409   0.92327   0.33817   0.00000  Uiso   1.00
H553   H     0.30622   0.81607   0.01190   0.00000  Uiso   1.00
H554   H     0.10558   0.85175   0.09006   0.00000  Uiso   1.00
H555   H     0.23349   0.86439   0.40891   0.00000  Uiso   1.00
H556   H     0.20935   0.95721   0.29137   0.00000  Uiso   1.00
H557   H     0.12247   0.71056   0.21089   0.00000  Uiso   1.00
H558   H     0.05610   0.77488   0.21805   0.00000  Uiso   1.00
H559   H     0.27676   0.89135   0.28273   0.00000  Uiso   1.00
H560   H     0.32252   0.82496   0.12970   0.00000  Uiso   1.00
N561   N     0.04759   0.83334   0.25001   0.00000  Uiso   1.00
N562   N     0.28574   0.83332   0.24999   0.00000  Uiso   1.00
O563   O     0.12846   0.89442   0.25000   0.00000  Uiso   1.00
O564   O     0.01441   0.84075   0.10491   0.00000  Uiso   1.00
O565   O     0.32175   0.84664   0.39621   0.00000  Uiso   1.00
O566   O     0.00738   0.88184   0.45076   0.00000  Uiso   1.00
O567   O     0.15287   0.89188   0.11918   0.00000  Uiso   1.00
O568   O     0.17179   0.89142   0.38610   0.00000  Uiso   1.00
O569   O     0.27408   0.78343   0.09495   0.00000  Uiso   1.00
O570   O     0.06290   0.77793   0.39814   0.00000  Uiso   1.00
O571   O     0.19642   0.73484   0.33097   0.00000  Uiso   1.00
O572   O     0.25183   0.68228   0.31530   0.00000  Uiso   1.00
O573   O     0.10680   0.93303   0.19038   0.00000  Uiso   1.00
O574   O     0.20488   0.77225   0.25000   0.00000  Uiso   1.00
O575   O     0.06499   0.99368   0.20583   0.00000  Uiso   1.00
O576   O     0.28678   0.76638   0.18319   0.00000  Uiso   1.00
O577   O     0.31567   0.72387   0.22733   0.00000  Uiso   1.00
O578   O     0.01326   0.93674   0.28472   0.00000  Uiso   1.00
O579   O     0.04929   0.89618   0.32425   0.00000  Uiso   1.00
O580   O     0.20490   0.89441   0.25000   0.00000  Uiso   1.00
O581   O     0.12843   0.77226   0.25000   0.00000  Uiso   1.00
O582   O     0.10661   0.83334   0.31612   0.00000  Uiso   1.00
O583   O     0.22672   0.83333   0.18387   0.00000  Uiso   1.00
O584   O     0.18305   0.83333   0.31612   0.00000  Uiso   1.00
O585   O     0.15028   0.83334   0.18388   0.00000  Uiso   1.00
O586   O     0.03528   0.77875   0.06723   0.00000  Uiso   1.00
Zn587  Zn    0.11562   0.83334   0.25000   0.00000  Uiso   1.00
Zn588  Zn    0.21771   0.83333   0.25000   0.00000  Uiso   1.00
C589   C     0.49955   0.91329   0.24879   0.00000  Uiso   1.00
C590   C     0.46973   0.98226   0.22912   0.00000  Uiso   1.00
C591   C     0.49997   0.70949   0.25308   0.00000  Uiso   1.00
C592   C     0.49762   0.95777   0.24951   0.00000  Uiso   1.00
C593   C     0.65103   0.80040   0.23248   0.00000  Uiso   1.00
C594   C     0.34860   0.86589   0.26869   0.00000  Uiso   1.00
C595   C     0.36509   0.80079   0.23249   0.00000  Uiso   1.00
C596   C     0.63474   0.86574   0.26783   0.00000  Uiso   1.00
C597   C     0.47053   0.83272   0.33769   0.00000  Uiso   1.00
C598   C     0.52961   0.83395   0.16201   0.00000  Uiso   1.00
C599   C     0.45380   0.83335   0.38846   0.00000  Uiso   1.00
C600   C     0.49997   0.75362   0.25180   0.00000  Uiso   1.00
C601   C     0.54707   0.83939   0.11100   0.00000  Uiso   1.00
C602   C     0.40584   0.80750   0.46453   0.00000  Uiso   1.00
C603   C     0.60687   0.83055   0.03411   0.00000  Uiso   1.00
C604   C     0.41875   0.80612   0.41619   0.00000  Uiso   1.00
C605   C     0.58802   0.81825   0.08107   0.00000  Uiso   1.00
C606   C     0.47778   0.85874   0.40962   0.00000  Uiso   1.00
C607   C     0.52155   0.86597   0.09119   0.00000  Uiso   1.00
C608   C     0.47206   0.85202   0.45651   0.00000  Uiso   1.00
C609   C     0.53174   0.86461   0.04290   0.00000  Uiso   1.00
C610   C     0.43144   0.83103   0.48540   0.00000  Uiso   1.00
C611   C     0.44917   0.85254   0.05254   0.00000  Uiso   1.00
C612   C     0.57843   0.85406   0.01425   0.00000  Uiso   1.00
C613   C     0.50730   0.86252   0.47502   0.00000  Uiso   1.00
C614   C     0.49529   0.86319   0.02391   0.00000  Uiso   1.00
C615   C     0.37623   0.81568   0.06827   0.00000  Uiso   1.00
C616   C     0.64200   0.86143   0.43533   0.00000  Uiso   1.00
C617   C     0.54629   0.70320   0.30895   0.00000  Uiso   1.00
C618   C     0.43573   0.96733   0.20747   0.00000  Uiso   1.00
C619   C     0.63800   0.76316   0.21319   0.00000  Uiso   1.00
C620   C     0.36017   0.90187   0.29167   0.00000  Uiso   1.00
C621   C     0.55581   0.86450   0.44646   0.00000  Uiso   1.00
C622   C     0.41897   0.83350   0.03413   0.00000  Uiso   1.00
C623   C     0.59160   0.85984   0.46585   0.00000  Uiso   1.00
C624   C     0.52397   0.97629   0.27341   0.00000  Uiso   1.00
C625   C     0.47369   0.69124   0.22945   0.00000  Uiso   1.00
C626   C     0.52387   0.68559   0.27731   0.00000  Uiso   1.00
H627   H     0.37812   0.78742   0.48504   0.00000  Uiso   1.00
H628   H     0.37286   0.88506   0.42537   0.00000  Uiso   1.00
H629   H     0.47782   0.91314   0.09927   0.00000  Uiso   1.00
H630   H     0.49434   0.90085   0.36038   0.00000  Uiso   1.00
H631   H     0.58277   0.77118   0.12236   0.00000  Uiso   1.00
H632   H     0.41560   0.77236   0.36519   0.00000  Uiso   1.00
H633   H     0.59707   0.69695   0.33793   0.00000  Uiso   1.00
H634   H     0.37775   0.98044   0.19009   0.00000  Uiso   1.00
H635   H     0.63861   0.70061   0.21149   0.00000  Uiso   1.00
H636   H     0.38743   0.92327   0.33817   0.00000  Uiso   1.00
H637   H     0.63956   0.81607   0.01190   0.00000  Uiso   1.00
H638   H     0.43892   0.85175   0.09006   0.00000  Uiso   1.00
H639   H     0.56682   0.86439   0.40891   0.00000  Uiso   1.00
H640   H     0.54268   0.95721   0.29137   0.00000  Uiso   1.00
H641   H     0.45581   0.71056   0.21089   0.00000  Uiso   1.00
H642   H     0.38943   0.77488   0.21805   0.00000  Uiso   1.00
H643   H     0.61009   0.89135   0.28273   0.00000  Uiso   1.00
H644   H     0.65585   0.82496   0.12970   0.00000  Uiso   1.00
N645   N     0.38093   0.83334   0.25001   0.00000  Uiso   1.00
N646   N     0.61907   0.83332   0.24999   0.00000  Uiso   1.00
O647   O     0.46179   0.89442   0.25000   0.00000  Uiso   1.00
O648   O     0.34774   0.84075   0.10491   0.00000  Uiso   1.00
O649   O     0.65509   0.84664   0.39621   0.00000  Uiso   1.00
O650   O     0.34071   0.88184   0.45076   0.00000  Uiso   1.00
O651   O     0.48621   0.89188   0.11918   0.00000  Uiso   1.00
O652   O     0.50512   0.89142   0.38610   0.00000  Uiso   1.00
O653   O     0.60741   0.78343   0.09495   0.00000  Uiso   1.00
O654   O     0.39623   0.77793   0.39814   0.00000  Uiso   1.00
O655   O     0.52975   0.73484   0.33097   0.00000  Uiso   1.00
O656   O     0.58516   0.68228   0.31530   0.00000  Uiso   1.00
O657   O     0.44014   0.93303   0.19038   0.00000  Uiso   1.00
O658   O     0.53821   0.77225   0.25000   0.00000  Uiso   1.00
O659   O     0.39832   0.99368   0.20583   0.00000  Uiso   1.00
O660   O     0.62011   0.76638   0.18319   0.00000  Uiso   1.00
O661   O     0.64900   0.72387   0.22733   0.00000  Uiso   1.00
O662   O     0.34659   0.93674   0.28472   0.00000  Uiso   1.00
O663   O     0.38263   0.89618   0.32425   0.00000  Uiso   1.00
O664   O     0.53823   0.89441   0.25000   0.00000  Uiso   1.00
O665   O     0.46177   0.77226   0.25000   0.00000  Uiso   1.00
O666   O     0.43994   0.83334   0.31612   0.00000  Uiso   1.00
O667   O     0.56006   0.83333   0.18387   0.00000  Uiso   1.00
O668   O     0.51639   0.83333   0.31612   0.00000  Uiso   1.00
O669   O     0.48361   0.83334   0.18388   0.00000  Uiso   1.00
O670   O     0.36861   0.77875   0.06723   0.00000  Uiso   1.00
Zn671  Zn    0.44896   0.83334   0.25000   0.00000  Uiso   1.00
Zn672  Zn    0.55104   0.83333   0.25000   0.00000  Uiso   1.00
C673   C     0.83288   0.91329   0.24879   0.00000  Uiso   1.00
C674   C     0.80306   0.98226   0.22912   0.00000  Uiso   1.00
C675   C     0.83330   0.70949   0.25308   0.00000  Uiso   1.00
C676   C     0.83095   0.95777   0.24951   0.00000  Uiso   1.00
C677   C     0.98436   0.80040   0.23248   0.00000  Uiso   1.00
C678   C     0.68193   0.86589   0.26869   0.00000  Uiso   1.00
C679   C     0.69842   0.80079   0.23249   0.00000  Uiso   1.00
C680   C     0.96808   0.86574   0.26783   0.00000  Uiso   1.00
C681   C     0.80387   0.83272   0.33769   0.00000  Uiso   1.00
C682   C     0.86295   0.83395   0.16201   0.00000  Uiso   1.00
C683   C     0.78714   0.83335   0.38846   0.00000  Uiso   1.00
C684   C     0.83331   0.75362   0.25180   0.00000  Uiso   1.00
C685   C     0.88040   0.83939   0.11100   0.00000  Uiso   1.00
C686   C     0.73917   0.80750   0.46453   0.00000  Uiso   1.00
C687   C     0.94020   0.83055   0.03411   0.00000  Uiso   1.00
C688   C     0.75208   0.80612   0.41619   0.00000  Uiso   1.00
C689   C     0.92135   0.81825   0.08107   0.00000  Uiso   1.00
C690   C     0.81111   0.85874   0.40962   0.00000  Uiso   1.00
C691   C     0.85489   0.86597   0.09119   0.00000  Uiso   1.00
C692   C     0.80540   0.85202   0.45651   0.00000  Uiso   1.00
C693   C     0.86508   0.86461   0.04290   0.00000  Uiso   1.00
C694   C     0.76477   0.83103   0.48540   0.00000  Uiso   1.00
C695   C     0.78250   0.85254   0.05254   0.00000  Uiso   1.00
C696   C     0.91177   0.85406   0.01425   0.00000  Uiso   1.00
C697   C     0.84064   0.86252   0.47502   0.00000  Uiso   1.00
C698   C     0.82863   0.86319   0.02391   0.00000  Uiso   1.00
C699   C     0.70956   0.81568   0.06827   0.00000  Uiso   1.00
C700   C     0.97533   0.86143   0.43533   0.00000  Uiso   1.00
C701   C     0.87962   0.70320   0.30895   0.00000  Uiso   1.00
C702   C     0.76907   0.96733   0.20747   0.00000  Uiso   1.00
C703   C     0.97133   0.76316   0.21319   0.00000  Uiso   1.00
C704   C     0.69351   0.90187   0.29167   0.00000  Uiso   1.00
C705   C     0.88915   0.86450   0.44646   0.00000  Uiso   1.00
C706   C     0.75231   0.83350   0.03413   0.00000  Uiso   1.00
C707   C     0.92493   0.85984   0.46585   0.00000  Uiso   1.00
C708   C     0.85730   0.97629   0.27341   0.00000  Uiso   1.00
C709   C     0.80702   0.69124   0.22945   0.00000  Uiso   1.00
C710   C     0.85721   0.68559   0.27731   0.00000  Uiso   1.00
H711   H     0.71145   0.78742   0.48504   0.00000  Uiso   1.00
H712   H     0.70619   0.88506   0.42537   0.00000  Uiso   1.00
H713   H     0.81116   0.91314   0.09927   0.00000  Uiso   1.00
H714   H     0.82767   0.90085   0.36038   0.00000  Uiso   1.00
H715   H     0.91611   0.77118   0.12236   0.00000  Uiso   1.00
H716   H     0.74893   0.77236   0.36519   0.00000  Uiso   1.00
H717   H     0.93040   0.69695   0.33793   0.00000  Uiso   1.00
H718   H     0.71109   0.98044   0.19009   0.00000  Uiso   1.00
H719   H     0.97194   0.70061   0.21149   0.00000  Uiso   1.00
H720   H     0.72076   0.92327   0.33817   0.00000  Uiso   1.00
H721   H     0.97289   0.81607   0.01190   0.00000  Uiso   1.00
H722   H     0.77225   0.85175   0.09006   0.00000  Uiso   1.00
H723   H     0.90015   0.86439   0.40891   0.00000  Uiso   1.00
H724   H     0.87602   0.95721   0.29137   0.00000  Uiso   1.00
H725   H     0.78914   0.71056   0.21089   0.00000  Uiso   1.00
H726   H     0.72276   0.77488   0.21805   0.00000  Uiso   1.00
H727   H     0.94342   0.89135   0.28273   0.00000  Uiso   1.00
H728   H     0.98919   0.82496   0.12970   0.00000  Uiso   1.00
N729   N     0.71426   0.83334   0.25001   0.00000  Uiso   1.00
N730   N     0.95241   0.83332   0.24999   0.00000  Uiso   1.00
O731   O     0.79512   0.89442   0.25000   0.00000  Uiso   1.00
O732   O     0.68108   0.84075   0.10491   0.00000  Uiso   1.00
O733   O     0.98842   0.84664   0.39621   0.00000  Uiso   1.00
O734   O     0.67404   0.88184   0.45076   0.00000  Uiso   1.00
O735   O     0.81954   0.89188   0.11918   0.00000  Uiso   1.00
O736   O     0.83845   0.89142   0.38610   0.00000  Uiso   1.00
O737   O     0.94075   0.78343   0.09495   0.00000  Uiso   1.00
O738   O     0.72956   0.77793   0.39814   0.00000  Uiso   1.00
O739   O     0.86308   0.73484   0.33097   0.00000  Uiso   1.00
O740   O     0.91849   0.68228   0.31530   0.00000  Uiso   1.00
O741   O     0.77347   0.93303   0.19038   0.00000  Uiso   1.00
O742   O     0.87154   0.77225   0.25000   0.00000  Uiso   1.00
O743   O     0.73165   0.99368   0.20583   0.00000  Uiso   1.00
O744   O     0.95344   0.76638   0.18319   0.00000  Uiso   1.00
O745   O     0.98234   0.72387   0.22733   0.00000  Uiso   1.00
O746   O     0.67993   0.93674   0.28472   0.00000  Uiso   1.00
O747   O     0.71596   0.89618   0.32425   0.00000  Uiso   1.00
O748   O     0.87157   0.89441   0.25000   0.00000  Uiso   1.00
O749   O     0.79510   0.77226   0.25000   0.00000  Uiso   1.00
O750   O     0.77328   0.83334   0.31612   0.00000  Uiso   1.00
O751   O     0.89339   0.83333   0.18387   0.00000  Uiso   1.00
O752   O     0.84972   0.83333   0.31612   0.00000  Uiso   1.00
O753   O     0.81695   0.83334   0.18388   0.00000  Uiso   1.00
O754   O     0.70195   0.77875   0.06723   0.00000  Uiso   1.00
Zn755  Zn    0.78229   0.83334   0.25000   0.00000  Uiso   1.00
Zn756  Zn    0.88438   0.83333   0.25000   0.00000  Uiso   1.00
C757   C     0.16622   0.24663   0.74879   0.00000  Uiso   1.00
C758   C     0.13640   0.31559   0.72912   0.00000  Uiso   1.00
C759   C     0.16664   0.04282   0.75308   0.00000  Uiso   1.00
C760   C     0.16428   0.29110   0.74951   0.00000  Uiso   1.00
C761   C     0.31770   0.13374   0.73248   0.00000  Uiso   1.00
C762   C     0.01526   0.19923   0.76869   0.00000  Uiso   1.00
C763   C     0.03176   0.13412   0.73249   0.00000  Uiso   1.00
C764   C     0.30141   0.19908   0.76783   0.00000  Uiso   1.00
C765   C     0.13720   0.16605   0.83769   0.00000  Uiso   1.00
C766   C     0.19628   0.16729   0.66201   0.00000  Uiso   1.00
C767   C     0.12047   0.16668   0.88846   0.00000  Uiso   1.00
C768   C     0.16664   0.08695   0.75180   0.00000  Uiso   1.00
C769   C     0.21374   0.17272   0.61100   0.00000  Uiso   1.00
C770   C     0.07251   0.14083   0.96453   0.00000  Uiso   1.00
C771   C     0.27354   0.16388   0.53411   0.00000  Uiso   1.00
C772   C     0.08542   0.13945   0.91619   0.00000  Uiso   1.00
C773   C     0.25469   0.15158   0.58107   0.00000  Uiso   1.00
C774   C     0.14444   0.19207   0.90962   0.00000  Uiso   1.00
C775   C     0.18822   0.19930   0.59119   0.00000  Uiso   1.00
C776   C     0.13873   0.18536   0.95651   0.00000  Uiso   1.00
C777   C     0.19841   0.19794   0.54290   0.00000  Uiso   1.00
C778   C     0.09810   0.16436   0.98540   0.00000  Uiso   1.00
C779   C     0.11584   0.18588   0.55254   0.00000  Uiso   1.00
C780   C     0.24510   0.18740   0.51425   0.00000  Uiso   1.00
C781   C     0.17397   0.19585   0.97502   0.00000  Uiso   1.00
C782   C     0.16196   0.19653   0.52391   0.00000  Uiso   1.00
C783   C     0.04289   0.14901   0.56827   0.00000  Uiso   1.00
C784   C     0.30866   0.19477   0.93533   0.00000  Uiso   1.00
C785   C     0.21295   0.03654   0.80895   0.00000  Uiso   1.00
C786   C     0.10240   0.30066   0.70747   0.00000  Uiso   1.00
C787   C     0.30467   0.09650   0.71319   0.00000  Uiso   1.00
C788   C     0.02684   0.23520   0.79167   0.00000  Uiso   1.00
C789   C     0.22248   0.19783   0.94646   0.00000  Uiso   1.00
C790   C     0.08564   0.16683   0.53413   0.00000  Uiso   1.00
C791   C     0.25827   0.19317   0.96585   0.00000  Uiso   1.00
C792   C     0.19064   0.30962   0.77341   0.00000  Uiso   1.00
C793   C     0.14036   0.02458   0.72945   0.00000  Uiso   1.00
C794   C     0.19054   0.01893   0.77731   0.00000  Uiso   1.00
H795   H     0.04478   0.12075   0.98504   0.00000  Uiso   1.00
H796   H     0.03952   0.21839   0.92537   0.00000  Uiso   1.00
H797   H     0.14449   0.24647   0.59927   0.00000  Uiso   1.00
H798   H     0.16100   0.23419   0.86038   0.00000  Uiso   1.00
H799   H     0.24944   0.10452   0.62236   0.00000  Uiso   1.00
H800   H     0.08226   0.10569   0.86519   0.00000  Uiso   1.00
H801   H     0.26374   0.03029   0.83793   0.00000  Uiso   1.00
H802   H     0.04442   0.31378   0.69009   0.00000  Uiso   1.00
H803   H     0.30527   0.03394   0.71149   0.00000  Uiso   1.00
H804   H     0.05409   0.25660   0.83817   0.00000  Uiso   1.00
H805   H     0.30622   0.14940   0.51190   0.00000  Uiso   1.00
H806   H     0.10558   0.18508   0.59006   0.00000  Uiso   1.00
H807   H     0.23349   0.19773   0.90891   0.00000  Uiso   1.00
H808   H     0.20935   0.29054   0.79137   0.00000  Uiso   1.00
H809   H     0.12247   0.04390   0.71089   0.00000  Uiso   1.00
H810   H     0.05610   0.10821   0.71805   0.00000  Uiso   1.00
H811   H     0.27676   0.22468   0.78273   0.00000  Uiso   1.00
H812   H     0.32252   0.15830   0.62970   0.00000  Uiso   1.00
N813   N     0.04759   0.16668   0.75001   0.00000  Uiso   1.00
N814   N     0.28574   0.16666   0.74999   0.00000  Uiso   1.00
O815   O     0.12846   0.22775   0.75000   0.00000  Uiso   1.00
O816   O     0.01441   0.17408   0.60491   0.00000  Uiso   1.00
O817   O     0.32175   0.17998   0.89621   0.00000  Uiso   1.00
O818   O     0.00738   0.21517   0.95076   0.00000  Uiso   1.00
O819   O     0.15287   0.22521   0.61918   0.00000  Uiso   1.00
O820   O     0.17179   0.22476   0.88610   0.00000  Uiso   1.00
O821   O     0.27408   0.11677   0.59495   0.00000  Uiso   1.00
O822   O     0.06290   0.11126   0.89814   0.00000  Uiso   1.00
O823   O     0.19642   0.06817   0.83097   0.00000  Uiso   1.00
O824   O     0.25183   0.01561   0.81530   0.00000  Uiso   1.00
O825   O     0.10680   0.26636   0.69038   0.00000  Uiso   1.00
O826   O     0.20488   0.10558   0.75000   0.00000  Uiso   1.00
O827   O     0.06499   0.32701   0.70583   0.00000  Uiso   1.00
O828   O     0.28678   0.09972   0.68319   0.00000  Uiso   1.00
O829   O     0.31567   0.05720   0.72733   0.00000  Uiso   1.00
O830   O     0.01326   0.27008   0.78472   0.00000  Uiso   1.00
O831   O     0.04929   0.22951   0.82425   0.00000  Uiso   1.00
O832   O     0.20490   0.22774   0.75000   0.00000  Uiso   1.00
O833   O     0.12843   0.10559   0.75000   0.00000  Uiso   1.00
O834   O     0.10661   0.16667   0.81612   0.00000  Uiso   1.00
O835   O     0.22672   0.16666   0.68387   0.00000  Uiso   1.00
O836   O     0.18305   0.16666   0.81612   0.00000  Uiso   1.00
O837   O     0.15028   0.16667   0.68388   0.00000  Uiso   1.00
O838   O     0.03528   0.11209   0.56723   0.00000  Uiso   1.00
Zn839  Zn    0.11562   0.16667   0.75000   0.00000  Uiso   1.00
Zn840  Zn    0.21771   0.16666   0.75000   0.00000  Uiso   1.00
C841   C     0.49955   0.24663   0.74879   0.00000  Uiso   1.00
C842   C     0.46973   0.31559   0.72912   0.00000  Uiso   1.00
C843   C     0.49997   0.04282   0.75308   0.00000  Uiso   1.00
C844   C     0.49762   0.29110   0.74951   0.00000  Uiso   1.00
C845   C     0.65103   0.13374   0.73248   0.00000  Uiso   1.00
C846   C     0.34860   0.19923   0.76869   0.00000  Uiso   1.00
C847   C     0.36509   0.13412   0.73249   0.00000  Uiso   1.00
C848   C     0.63474   0.19908   0.76783   0.00000  Uiso   1.00
C849   C     0.47053   0.16605   0.83769   0.00000  Uiso   1.00
C850   C     0.52961   0.16729   0.66201   0.00000  Uiso   1.00
C851   C     0.45380   0.16668   0.88846   0.00000  Uiso   1.00
C852   C     0.49997   0.08695   0.75180   0.00000  Uiso   1.00
C853   C     0.54707   0.17272   0.61100   0.00000  Uiso   1.00
C854   C     0.40584   0.14083   0.96453   0.00000  Uiso   1.00
C855   C     0.60687   0.16388   0.53411   0.00000  Uiso   1.00
C856   C     0.41875   0.13945   0.91619   0.00000  Uiso   1.00
C857   C     0.58802   0.15158   0.58107   0.00000  Uiso   1.00
C858   C     0.47778   0.19207   0.90962   0.00000  Uiso   1.00
C859   C     0.52155   0.19930   0.59119   0.00000  Uiso   1.00
C860   C     0.47206   0.18536   0.95651   0.00000  Uiso   1.00
C861   C     0.53174   0.19794   0.54290   0.00000  Uiso   1.00
C862   C     0.43144   0.16436   0.98540   0.00000  Uiso   1.00
C863   C     0.44917   0.18588   0.55254   0.00000  Uiso   1.00
C864   C     0.57843   0.18740   0.51425   0.00000  Uiso   1.00
C865   C     0.50730   0.19585   0.97502   0.00000  Uiso   1.00
C866   C     0.49529   0.19653   0.52391   0.00000  Uiso   1.00
C867   C     0.37623   0.14901   0.56827   0.00000  Uiso   1.00
C868   C     0.64200   0.19477   0.93533   0.00000  Uiso   1.00
C869   C     0.54629   0.03654   0.80895   0.00000  Uiso   1.00
C870   C     0.43573   0.30066   0.70747   0.00000  Uiso   1.00
C871   C     0.63800   0.09650   0.71319   0.00000  Uiso   1.00
C872   C     0.36017   0.23520   0.79167   0.00000  Uiso   1.00
C873   C     0.55581   0.19783   0.94646   0.00000  Uiso   1.00
C874   C     0.41897   0.16683   0.53413   0.00000  Uiso   1.00
C875   C     0.59160   0.19317   0.96585   0.00000  Uiso   1.00
C876   C     0.52397   0.30962   0.77341   0.00000  Uiso   1.00
C877   C     0.47369   0.02458   0.72945   0.00000  Uiso   1.00
C878   C     0.52387   0.01893   0.77731   0.00000  Uiso   1.00
H879   H     0.37812   0.12075   0.98504   0.00000  Uiso   1.00
H880   H     0.37286   0.21839   0.92537   0.00000  Uiso   1.00
H881   H     0.47782   0.24647   0.59927   0.00000  Uiso   1.00
H882   H     0.49434   0.23419   0.86038   0.00000  Uiso   1.00
H883   H     0.58277   0.10452   0.62236   0.00000  Uiso   1.00
H884   H     0.41560   0.10569   0.86519   0.00000  Uiso   1.00
H885   H     0.59707   0.03029   0.83793   0.00000  Uiso   1.00
H886   H     0.37775   0.31378   0.69009   0.00000  Uiso   1.00
H887   H     0.63861   0.03394   0.71149   0.00000  Uiso   1.00
H888   H     0.38743   0.25660   0.83817   0.00000  Uiso   1.00
H889   H     0.63956   0.14940   0.51190   0.00000  Uiso   1.00
H890   H     0.43892   0.18508   0.59006   0.00000  Uiso   1.00
H891   H     0.56682   0.19773   0.90891   0.00000  Uiso   1.00
H892   H     0.54268   0.29054   0.79137   0.00000  Uiso   1.00
H893   H     0.45581   0.04390   0.71089   0.00000  Uiso   1.00
H894   H     0.38943   0.10821   0.71805   0.00000  Uiso   1.00
H895   H     0.61009   0.22468   0.78273   0.00000  Uiso   1.00
H896   H     0.65585   0.15830   0.62970   0.00000  Uiso   1.00
N897   N     0.38093   0.16668   0.75001   0.00000  Uiso   1.00
N898   N     0.61907   0.16666   0.74999   0.00000  Uiso   1.00
O899   O     0.46179   0.22775   0.75000   0.00000  Uiso   1.00
O900   O     0.34774   0.17408   0.60491   0.00000  Uiso   1.00
O901   O     0.65509   0.17998   0.89621   0.00000  Uiso   1.00
O902   O     0.34071   0.21517   0.95076   0.00000  Uiso   1.00
O903   O     0.48621   0.22521   0.61918   0.00000  Uiso   1.00
O904   O     0.50512   0.22476   0.88610   0.00000  Uiso   1.00
O905   O     0.60741   0.11677   0.59495   0.00000  Uiso   1.00
O906   O     0.39623   0.11126   0.89814   0.00000  Uiso   1.00
O907   O     0.52975   0.06817   0.83097   0.00000  Uiso   1.00
O908   O     0.58516   0.01561   0.81530   0.00000  Uiso   1.00
O909   O     0.44014   0.26636   0.69038   0.00000  Uiso   1.00
O910   O     0.53821   0.10558   0.75000   0.00000  Uiso   1.00
O911   O     0.39832   0.32701   0.70583   0.00000  Uiso   1.00
O912   O     0.62011   0.09972   0.68319   0.00000  Uiso   1.00
O913   O     0.64900   0.05720   0.72733   0.00000  Uiso   1.00
O914   O     0.34659   0.27008   0.78472   0.00000  Uiso   1.00
O915   O     0.38263   0.22951   0.82425   0.00000  Uiso   1.00
O916   O     0.53823   0.22774   0.75000   0.00000  Uiso   1.00
O917   O     0.46177   0.10559   0.75000   0.00000  Uiso   1.00
O918   O     0.43994   0.16667   0.81612   0.00000  Uiso   1.00
O919   O     0.56006   0.16666   0.68387   0.00000  Uiso   1.00
O920   O     0.51639   0.16666   0.81612   0.00000  Uiso   1.00
O921   O     0.48361   0.16667   0.68388   0.00000  Uiso   1.00
O922   O     0.36861   0.11209   0.56723   0.00000  Uiso   1.00
Zn923  Zn    0.44896   0.16667   0.75000   0.00000  Uiso   1.00
Zn924  Zn    0.55104   0.16666   0.75000   0.00000  Uiso   1.00
C925   C     0.83288   0.24663   0.74879   0.00000  Uiso   1.00
C926   C     0.80306   0.31559   0.72912   0.00000  Uiso   1.00
C927   C     0.83330   0.04282   0.75308   0.00000  Uiso   1.00
C928   C     0.83095   0.29110   0.74951   0.00000  Uiso   1.00
C929   C     0.98436   0.13374   0.73248   0.00000  Uiso   1.00
C930   C     0.68193   0.19923   0.76869   0.00000  Uiso   1.00
C931   C     0.69842   0.13412   0.73249   0.00000  Uiso   1.00
C932   C     0.96808   0.19908   0.76783   0.00000  Uiso   1.00
C933   C     0.80387   0.16605   0.83769   0.00000  Uiso   1.00
C934   C     0.86295   0.16729   0.66201   0.00000  Uiso   1.00
C935   C     0.78714   0.16668   0.88846   0.00000  Uiso   1.00
C936   C     0.83331   0.08695   0.75180   0.00000  Uiso   1.00
C937   C     0.88040   0.17272   0.61100   0.00000  Uiso   1.00
C938   C     0.73917   0.14083   0.96453   0.00000  Uiso   1.00
C939   C     0.94020   0.16388   0.53411   0.00000  Uiso   1.00
C940   C     0.75208   0.13945   0.91619   0.00000  Uiso   1.00
C941   C     0.92135   0.15158   0.58107   0.00000  Uiso   1.00
C942   C     0.81111   0.19207   0.90962   0.00000  Uiso   1.00
C943   C     0.85489   0.19930   0.59119   0.00000  Uiso   1.00
C944   C     0.80540   0.18536   0.95651   0.00000  Uiso   1.00
C945   C     0.86508   0.19794   0.54290   0.00000  Uiso   1.00
C946   C     0.76477   0.16436   0.98540   0.00000  Uiso   1.00
C947   C     0.78250   0.18588   0.55254   0.00000  Uiso   1.00
C948   C     0.91177   0.18740   0.51425   0.00000  Uiso   1.00
C949   C     0.84064   0.19585   0.97502   0.00000  Uiso   1.00
C950   C     0.82863   0.19653   0.52391   0.00000  Uiso   1.00
C951   C     0.70956   0.14901   0.56827   0.00000  Uiso   1.00
C952   C     0.97533   0.19477   0.93533   0.00000  Uiso   1.00
C953   C     0.87962   0.03654   0.80895   0.00000  Uiso   1.00
C954   C     0.76907   0.30066   0.70747   0.00000  Uiso   1.00
C955   C     0.97133   0.09650   0.71319   0.00000  Uiso   1.00
C956   C     0.69351   0.23520   0.79167   0.00000  Uiso   1.00
C957   C     0.88915   0.19783   0.94646   0.00000  Uiso   1.00
C958   C     0.75231   0.16683   0.53413   0.00000  Uiso   1.00
C959   C     0.92493   0.19317   0.96585   0.00000  Uiso   1.00
C960   C     0.85730   0.30962   0.77341   0.00000  Uiso   1.00
C961   C     0.80702   0.02458   0.72945   0.00000  Uiso   1.00
C962   C     0.85721   0.01893   0.77731   0.00000  Uiso   1.00
H963   H     0.71145   0.12075   0.98504   0.00000  Uiso   1.00
H964   H     0.70619   0.21839   0.92537   0.00000  Uiso   1.00
H965   H     0.81116   0.24647   0.59927   0.00000  Uiso   1.00
H966   H     0.82767   0.23419   0.86038   0.00000  Uiso   1.00
H967   H     0.91611   0.10452   0.62236   0.00000  Uiso   1.00
H968   H     0.74893   0.10569   0.86519   0.00000  Uiso   1.00
H969   H     0.93040   0.03029   0.83793   0.00000  Uiso   1.00
H970   H     0.71109   0.31378   0.69009   0.00000  Uiso   1.00
H971   H     0.97194   0.03394   0.71149   0.00000  Uiso   1.00
H972   H     0.72076   0.25660   0.83817   0.00000  Uiso   1.00
H973   H     0.97289   0.14940   0.51190   0.00000  Uiso   1.00
H974   H     0.77225   0.18508   0.59006   0.00000  Uiso   1.00
H975   H     0.90015   0.19773   0.90891   0.00000  Uiso   1.00
H976   H     0.87602   0.29054   0.79137   0.00000  Uiso   1.00
H977   H     0.78914   0.04390   0.71089   0.00000  Uiso   1.00
H978   H     0.72276   0.10821   0.71805   0.00000  Uiso   1.00
H979   H     0.94342   0.22468   0.78273   0.00000  Uiso   1.00
H980   H     0.98919   0.15830   0.62970   0.00000  Uiso   1.00
N981   N     0.71426   0.16668   0.75001   0.00000  Uiso   1.00
N982   N     0.95241   0.16666   0.74999   0.00000  Uiso   1.00
O983   O     0.79512   0.22775   0.75000   0.00000  Uiso   1.00
O984   O     0.68108   0.17408   0.60491   0.00000  Uiso   1.00
O985   O     0.98842   0.17998   0.89621   0.00000  Uiso   1.00
O986   O     0.67404   0.21517   0.95076   0.00000  Uiso   1.00
O987   O     0.81954   0.22521   0.61918   0.00000  Uiso   1.00
O988   O     0.83845   0.22476   0.88610   0.00000  Uiso   1.00
O989   O     0.94075   0.11677   0.59495   0.00000  Uiso   1.00
O990   O     0.72956   0.11126   0.89814   0.00000  Uiso   1.00
O991   O     0.86308   0.06817   0.83097   0.00000  Uiso   1.00
O992   O     0.91849   0.01561   0.81530   0.00000  Uiso   1.00
O993   O     0.77347   0.26636   0.69038   0.00000  Uiso   1.00
O994   O     0.87154   0.10558   0.75000   0.00000  Uiso   1.00
O995   O     0.73165   0.32701   0.70583   0.00000  Uiso   1.00
O996   O     0.95344   0.09972   0.68319   0.00000  Uiso   1.00
O997   O     0.98234   0.05720   0.72733   0.00000  Uiso   1.00
O998   O     0.67993   0.27008   0.78472   0.00000  Uiso   1.00
O999   O     0.71596   0.22951   0.82425   0.00000  Uiso   1.00
O1000  O     0.87157   0.22774   0.75000   0.00000  Uiso   1.00
O1001  O     0.79510   0.10559   0.75000   0.00000  Uiso   1.00
O1002  O     0.77328   0.16667   0.81612   0.00000  Uiso   1.00
O1003  O     0.89339   0.16666   0.68387   0.00000  Uiso   1.00
O1004  O     0.84972   0.16666   0.81612   0.00000  Uiso   1.00
O1005  O     0.81695   0.16667   0.68388   0.00000  Uiso   1.00
O1006  O     0.70195   0.11209   0.56723   0.00000  Uiso   1.00
Zn1007 Zn    0.78229   0.16667   0.75000   0.00000  Uiso   1.00
Zn1008 Zn    0.88438   0.16666   0.75000   0.00000  Uiso   1.00
C1009  C     0.16622   0.57996   0.74879   0.00000  Uiso   1.00
C1010  C     0.13640   0.64893   0.72912   0.00000  Uiso   1.00
C1011  C     0.16664   0.37616   0.75308   0.00000  Uiso   1.00
C1012  C     0.16428   0.62443   0.74951   0.00000  Uiso   1.00
C1013  C     0.31770   0.46707   0.73248   0.00000  Uiso   1.00
C1014  C     0.01526   0.53256   0.76869   0.00000  Uiso   1.00
C1015  C     0.03176   0.46746   0.73249   0.00000  Uiso   1.00
C1016  C     0.30141   0.53241   0.76783   0.00000  Uiso   1.00
C1017  C     0.13720   0.49938   0.83769   0.00000  Uiso   1.00
C1018  C     0.19628   0.50062   0.66201   0.00000  Uiso   1.00
C1019  C     0.12047   0.50001   0.88846   0.00000  Uiso   1.00
C1020  C     0.16664   0.42029   0.75180   0.00000  Uiso   1.00
C1021  C     0.21374   0.50605   0.61100   0.00000  Uiso   1.00
C1022  C     0.07251   0.47417   0.96453   0.00000  Uiso   1.00
C1023  C     0.27354   0.49722   0.53411   0.00000  Uiso   1.00
C1024  C     0.08542   0.47279   0.91619   0.00000  Uiso   1.00
C1025  C     0.25469   0.48492   0.58107   0.00000  Uiso   1.00
C1026  C     0.14444   0.52540   0.90962   0.00000  Uiso   1.00
C1027  C     0.18822   0.53264   0.59119   0.00000  Uiso   1.00
C1028  C     0.13873   0.51869   0.95651   0.00000  Uiso   1.00
C1029  C     0.19841   0.53128   0.54290   0.00000  Uiso   1.00
C1030  C     0.09810   0.49770   0.98540   0.00000  Uiso   1.00
C1031  C     0.11584   0.51921   0.55254   0.00000  Uiso   1.00
C1032  C     0.24510   0.52073   0.51425   0.00000  Uiso   1.00
C1033  C     0.17397   0.52918   0.97502   0.00000  Uiso   1.00
C1034  C     0.16196   0.52986   0.52391   0.00000  Uiso   1.00
C1035  C     0.04289   0.48235   0.56827   0.00000  Uiso   1.00
C1036  C     0.30866   0.52810   0.93533   0.00000  Uiso   1.00
C1037  C     0.21295   0.36987   0.80895   0.00000  Uiso   1.00
C1038  C     0.10240   0.63399   0.70747   0.00000  Uiso   1.00
C1039  C     0.30467   0.42983   0.71319   0.00000  Uiso   1.00
C1040  C     0.02684   0.56853   0.79167   0.00000  Uiso   1.00
C1041  C     0.22248   0.53116   0.94646   0.00000  Uiso   1.00
C1042  C     0.08564   0.50017   0.53413   0.00000  Uiso   1.00
C1043  C     0.25827   0.52651   0.96585   0.00000  Uiso   1.00
C1044  C     0.19064   0.64296   0.77341   0.00000  Uiso   1.00
C1045  C     0.14036   0.35791   0.72945   0.00000  Uiso   1.00
C1046  C     0.19054   0.35226   0.77731   0.00000  Uiso   1.00
H1047  H     0.04478   0.45409   0.98504   0.00000  Uiso   1.00
H1048  H     0.03952   0.55172   0.92537   0.00000  Uiso   1.00
H1049  H     0.14449   0.57981   0.59927   0.00000  Uiso   1.00
H1050  H     0.16100   0.56752   0.86038   0.00000  Uiso   1.00
H1051  H     0.24944   0.43785   0.62236   0.00000  Uiso   1.00
H1052  H     0.08226   0.43902   0.86519   0.00000  Uiso   1.00
H1053  H     0.26374   0.36362   0.83793   0.00000  Uiso   1.00
H1054  H     0.04442   0.64711   0.69009   0.00000  Uiso   1.00
H1055  H     0.30527   0.36728   0.71149   0.00000  Uiso   1.00
H1056  H     0.05409   0.58993   0.83817   0.00000  Uiso   1.00
H1057  H     0.30622   0.48274   0.51190   0.00000  Uiso   1.00
H1058  H     0.10558   0.51842   0.59006   0.00000  Uiso   1.00
H1059  H     0.23349   0.53106   0.90891   0.00000  Uiso   1.00
H1060  H     0.20935   0.62388   0.79137   0.00000  Uiso   1.00
H1061  H     0.12247   0.37723   0.71089   0.00000  Uiso   1.00
H1062  H     0.05610   0.44154   0.71805   0.00000  Uiso   1.00
H1063  H     0.27676   0.55802   0.78273   0.00000  Uiso   1.00
H1064  H     0.32252   0.49163   0.62970   0.00000  Uiso   1.00
N1065  N     0.04759   0.50001   0.75001   0.00000  Uiso   1.00
N1066  N     0.28574   0.49999   0.74999   0.00000  Uiso   1.00
O1067  O     0.12846   0.56108   0.75000   0.00000  Uiso   1.00
O1068  O     0.01441   0.50742   0.60491   0.00000  Uiso   1.00
O1069  O     0.32175   0.51331   0.89621   0.00000  Uiso   1.00
O1070  O     0.00738   0.54850   0.95076   0.00000  Uiso   1.00
O1071  O     0.15287   0.55854   0.61918   0.00000  Uiso   1.00
O1072  O     0.17179   0.55809   0.88610   0.00000  Uiso   1.00
O1073  O     0.27408   0.45010   0.59495   0.00000  Uiso   1.00
O1074  O     0.06290   0.44460   0.89814   0.00000  Uiso   1.00
O1075  O     0.19642   0.40151   0.83097   0.00000  Uiso   1.00
O1076  O     0.25183   0.34894   0.81530   0.00000  Uiso   1.00
O1077  O     0.10680   0.59969   0.69038   0.00000  Uiso   1.00
O1078  O     0.20488   0.43892   0.75000   0.00000  Uiso   1.00
O1079  O     0.06499   0.66035   0.70583   0.00000  Uiso   1.00
O1080  O     0.28678   0.43305   0.68319   0.00000  Uiso   1.00
O1081  O     0.31567   0.39054   0.72733   0.00000  Uiso   1.00
O1082  O     0.01326   0.60341   0.78472   0.00000  Uiso   1.00
O1083  O     0.04929   0.56285   0.82425   0.00000  Uiso   1.00
O1084  O     0.20490   0.56107   0.75000   0.00000  Uiso   1.00
O1085  O     0.12843   0.43893   0.75000   0.00000  Uiso   1.00
O1086  O     0.10661   0.50001   0.81612   0.00000  Uiso   1.00
O1087  O     0.22672   0.49999   0.68387   0.00000  Uiso   1.00
O1088  O     0.18305   0.50000   0.81612   0.00000  Uiso   1.00
O1089  O     0.15028   0.50000   0.68388   0.00000  Uiso   1.00
O1090  O     0.03528   0.44542   0.56723   0.00000  Uiso   1.00
Zn1091 Zn    0.11562   0.50001   0.75000   0.00000  Uiso   1.00
Zn1092 Zn    0.21771   0.49999   0.75000   0.00000  Uiso   1.00
C1093  C     0.49955   0.57996   0.74879   0.00000  Uiso   1.00
C1094  C     0.46973   0.64893   0.72912   0.00000  Uiso   1.00
C1095  C     0.49997   0.37616   0.75308   0.00000  Uiso   1.00
C1096  C     0.49762   0.62443   0.74951   0.00000  Uiso   1.00
C1097  C     0.65103   0.46707   0.73248   0.00000  Uiso   1.00
C1098  C     0.34860   0.53256   0.76869   0.00000  Uiso   1.00
C1099  C     0.36509   0.46746   0.73249   0.00000  Uiso   1.00
C1100  C     0.63474   0.53241   0.76783   0.00000  Uiso   1.00
C1101  C     0.47053   0.49938   0.83769   0.00000  Uiso   1.00
C1102  C     0.52961   0.50062   0.66201   0.00000  Uiso   1.00
C1103  C     0.45380   0.50001   0.88846   0.00000  Uiso   1.00
C1104  C     0.49997   0.42029   0.75180   0.00000  Uiso   1.00
C1105  C     0.54707   0.50605   0.61100   0.00000  Uiso   1.00
C1106  C     0.40584   0.47417   0.96453   0.00000  Uiso   1.00
C1107  C     0.60687   0.49722   0.53411   0.00000  Uiso   1.00
C1108  C     0.41875   0.47279   0.91619   0.00000  Uiso   1.00
C1109  C     0.58802   0.48492   0.58107   0.00000  Uiso   1.00
C1110  C     0.47778   0.52540   0.90962   0.00000  Uiso   1.00
C1111  C     0.52155   0.53264   0.59119   0.00000  Uiso   1.00
C1112  C     0.47206   0.51869   0.95651   0.00000  Uiso   1.00
C1113  C     0.53174   0.53128   0.54290   0.00000  Uiso   1.00
C1114  C     0.43144   0.49770   0.98540   0.00000  Uiso   1.00
C1115  C     0.44917   0.51921   0.55254   0.00000  Uiso   1.00
C1116  C     0.57843   0.52073   0.51425   0.00000  Uiso   1.00
C1117  C     0.50730   0.52918   0.97502   0.00000  Uiso   1.00
C1118  C     0.49529   0.52986   0.52391   0.00000  Uiso   1.00
C1119  C     0.37623   0.48235   0.56827   0.00000  Uiso   1.00
C1120  C     0.64200   0.52810   0.93533   0.00000  Uiso   1.00
C1121  C     0.54629   0.36987   0.80895   0.00000  Uiso   1.00
C1122  C     0.43573   0.63399   0.70747   0.00000  Uiso   1.00
C1123  C     0.63800   0.42983   0.71319   0.00000  Uiso   1.00
C1124  C     0.36017   0.56853   0.79167   0.00000  Uiso   1.00
C1125  C     0.55581   0.53116   0.94646   0.00000  Uiso   1.00
C1126  C     0.41897   0.50017   0.53413   0.00000  Uiso   1.00
C1127  C     0.59160   0.52651   0.96585   0.00000  Uiso   1.00
C1128  C     0.52397   0.64296   0.77341   0.00000  Uiso   1.00
C1129  C     0.47369   0.35791   0.72945   0.00000  Uiso   1.00
C1130  C     0.52387   0.35226   0.77731   0.00000  Uiso   1.00
H1131  H     0.37812   0.45409   0.98504   0.00000  Uiso   1.00
H1132  H     0.37286   0.55172   0.92537   0.00000  Uiso   1.00
H1133  H     0.47782   0.57981   0.59927   0.00000  Uiso   1.00
H1134  H     0.49434   0.56752   0.86038   0.00000  Uiso   1.00
H1135  H     0.58277   0.43785   0.62236   0.00000  Uiso   1.00
H1136  H     0.41560   0.43902   0.86519   0.00000  Uiso   1.00
H1137  H     0.59707   0.36362   0.83793   0.00000  Uiso   1.00
H1138  H     0.37775   0.64711   0.69009   0.00000  Uiso   1.00
H1139  H     0.63861   0.36728   0.71149   0.00000  Uiso   1.00
H1140  H     0.38743   0.58993   0.83817   0.00000  Uiso   1.00
H1141  H     0.63956   0.48274   0.51190   0.00000  Uiso   1.00
H1142  H     0.43892   0.51842   0.59006   0.00000  Uiso   1.00
H1143  H     0.56682   0.53106   0.90891   0.00000  Uiso   1.00
H1144  H     0.54268   0.62388   0.79137   0.00000  Uiso   1.00
H1145  H     0.45581   0.37723   0.71089   0.00000  Uiso   1.00
H1146  H     0.38943   0.44154   0.71805   0.00000  Uiso   1.00
H1147  H     0.61009   0.55802   0.78273   0.00000  Uiso   1.00
H1148  H     0.65585   0.49163   0.62970   0.00000  Uiso   1.00
N1149  N     0.38093   0.50001   0.75001   0.00000  Uiso   1.00
N1150  N     0.61907   0.49999   0.74999   0.00000  Uiso   1.00
O1151  O     0.46179   0.56108   0.75000   0.00000  Uiso   1.00
O1152  O     0.34774   0.50742   0.60491   0.00000  Uiso   1.00
O1153  O     0.65509   0.51331   0.89621   0.00000  Uiso   1.00
O1154  O     0.34071   0.54850   0.95076   0.00000  Uiso   1.00
O1155  O     0.48621   0.55854   0.61918   0.00000  Uiso   1.00
O1156  O     0.50512   0.55809   0.88610   0.00000  Uiso   1.00
O1157  O     0.60741   0.45010   0.59495   0.00000  Uiso   1.00
O1158  O     0.39623   0.44460   0.89814   0.00000  Uiso   1.00
O1159  O     0.52975   0.40151   0.83097   0.00000  Uiso   1.00
O1160  O     0.58516   0.34894   0.81530   0.00000  Uiso   1.00
O1161  O     0.44014   0.59969   0.69038   0.00000  Uiso   1.00
O1162  O     0.53821   0.43892   0.75000   0.00000  Uiso   1.00
O1163  O     0.39832   0.66035   0.70583   0.00000  Uiso   1.00
O1164  O     0.62011   0.43305   0.68319   0.00000  Uiso   1.00
O1165  O     0.64900   0.39054   0.72733   0.00000  Uiso   1.00
O1166  O     0.34659   0.60341   0.78472   0.00000  Uiso   1.00
O1167  O     0.38263   0.56285   0.82425   0.00000  Uiso   1.00
O1168  O     0.53823   0.56107   0.75000   0.00000  Uiso   1.00
O1169  O     0.46177   0.43893   0.75000   0.00000  Uiso   1.00
O1170  O     0.43994   0.50001   0.81612   0.00000  Uiso   1.00
O1171  O     0.56006   0.49999   0.68387   0.00000  Uiso   1.00
O1172  O     0.51639   0.50000   0.81612   0.00000  Uiso   1.00
O1173  O     0.48361   0.50000   0.68388   0.00000  Uiso   1.00
O1174  O     0.36861   0.44542   0.56723   0.00000  Uiso   1.00
Zn1175 Zn    0.44896   0.50001   0.75000   0.00000  Uiso   1.00
Zn1176 Zn    0.55104   0.49999   0.75000   0.00000  Uiso   1.00
C1177  C     0.83288   0.57996   0.74879   0.00000  Uiso   1.00
C1178  C     0.80306   0.64893   0.72912   0.00000  Uiso   1.00
C1179  C     0.83330   0.37616   0.75308   0.00000  Uiso   1.00
C1180  C     0.83095   0.62443   0.74951   0.00000  Uiso   1.00
C1181  C     0.98436   0.46707   0.73248   0.00000  Uiso   1.00
C1182  C     0.68193   0.53256   0.76869   0.00000  Uiso   1.00
C1183  C     0.69842   0.46746   0.73249   0.00000  Uiso   1.00
C1184  C     0.96808   0.53241   0.76783   0.00000  Uiso   1.00
C1185  C     0.80387   0.49938   0.83769   0.00000  Uiso   1.00
C1186  C     0.86295   0.50062   0.66201   0.00000  Uiso   1.00
C1187  C     0.78714   0.50001   0.88846   0.00000  Uiso   1.00
C1188  C     0.83331   0.42029   0.75180   0.00000  Uiso   1.00
C1189  C     0.88040   0.50605   0.61100   0.00000  Uiso   1.00
C1190  C     0.73917   0.47417   0.96453   0.00000  Uiso   1.00
C1191  C     0.94020   0.49722   0.53411   0.00000  Uiso   1.00
C1192  C     0.75208   0.47279   0.91619   0.00000  Uiso   1.00
C1193  C     0.92135   0.48492   0.58107   0.00000  Uiso   1.00
C1194  C     0.81111   0.52540   0.90962   0.00000  Uiso   1.00
C1195  C     0.85489   0.53264   0.59119   0.00000  Uiso   1.00
C1196  C     0.80540   0.51869   0.95651   0.00000  Uiso   1.00
C1197  C     0.86508   0.53128   0.54290   0.00000  Uiso   1.00
C1198  C     0.76477   0.49770   0.98540   0.00000  Uiso   1.00
C1199  C     0.78250   0.51921   0.55254   0.00000  Uiso   1.00
C1200  C     0.91177   0.52073   0.51425   0.00000  Uiso   1.00
C1201  C     0.84064   0.52918   0.97502   0.00000  Uiso   1.00
C1202  C     0.82863   0.52986   0.52391   0.00000  Uiso   1.00
C1203  C     0.70956   0.48235   0.56827   0.00000  Uiso   1.00
C1204  C     0.97533   0.52810   0.93533   0.00000  Uiso   1.00
C1205  C     0.87962   0.36987   0.80895   0.00000  Uiso   1.00
C1206  C     0.76907   0.63399   0.70747   0.00000  Uiso   1.00
C1207  C     0.97133   0.42983   0.71319   0.00000  Uiso   1.00
C1208  C     0.69351   0.56853   0.79167   0.00000  Uiso   1.00
C1209  C     0.88915   0.53116   0.94646   0.00000  Uiso   1.00
C1210  C     0.75231   0.50017   0.53413   0.00000  Uiso   1.00
C1211  C     0.92493   0.52651   0.96585   0.00000  Uiso   1.00
C1212  C     0.85730   0.64296   0.77341   0.00000  Uiso   1.00
C1213  C     0.80702   0.35791   0.72945   0.00000  Uiso   1.00
C1214  C     0.85721   0.35226   0.77731   0.00000  Uiso   1.00
H1215  H     0.71145   0.45409   0.98504   0.00000  Uiso   1.00
H1216  H     0.70619   0.55172   0.92537   0.00000  Uiso   1.00
H1217  H     0.81116   0.57981   0.59927   0.00000  Uiso   1.00
H1218  H     0.82767   0.56752   0.86038   0.00000  Uiso   1.00
H1219  H     0.91611   0.43785   0.62236   0.00000  Uiso   1.00
H1220  H     0.74893   0.43902   0.86519   0.00000  Uiso   1.00
H1221  H     0.93040   0.36362   0.83793   0.00000  Uiso   1.00
H1222  H     0.71109   0.64711   0.69009   0.00000  Uiso   1.00
H1223  H     0.97194   0.36728   0.71149   0.00000  Uiso   1.00
H1224  H     0.72076   0.58993   0.83817   0.00000  Uiso   1.00
H1225  H     0.97289   0.48274   0.51190   0.00000  Uiso   1.00
H1226  H     0.77225   0.51842   0.59006   0.00000  Uiso   1.00
H1227  H     0.90015   0.53106   0.90891   0.00000  Uiso   1.00
H1228  H     0.87602   0.62388   0.79137   0.00000  Uiso   1.00
H1229  H     0.78914   0.37723   0.71089   0.00000  Uiso   1.00
H1230  H     0.72276   0.44154   0.71805   0.00000  Uiso   1.00
H1231  H     0.94342   0.55802   0.78273   0.00000  Uiso   1.00
H1232  H     0.98919   0.49163   0.62970   0.00000  Uiso   1.00
N1233  N     0.71426   0.50001   0.75001   0.00000  Uiso   1.00
N1234  N     0.95241   0.49999   0.74999   0.00000  Uiso   1.00
O1235  O     0.79512   0.56108   0.75000   0.00000  Uiso   1.00
O1236  O     0.68108   0.50742   0.60491   0.00000  Uiso   1.00
O1237  O     0.98842   0.51331   0.89621   0.00000  Uiso   1.00
O1238  O     0.67404   0.54850   0.95076   0.00000  Uiso   1.00
O1239  O     0.81954   0.55854   0.61918   0.00000  Uiso   1.00
O1240  O     0.83845   0.55809   0.88610   0.00000  Uiso   1.00
O1241  O     0.94075   0.45010   0.59495   0.00000  Uiso   1.00
O1242  O     0.72956   0.44460   0.89814   0.00000  Uiso   1.00
O1243  O     0.86308   0.40151   0.83097   0.00000  Uiso   1.00
O1244  O     0.91849   0.34894   0.81530   0.00000  Uiso   1.00
O1245  O     0.77347   0.59969   0.69038   0.00000  Uiso   1.00
O1246  O     0.87154   0.43892   0.75000   0.00000  Uiso   1.00
O1247  O     0.73165   0.66035   0.70583   0.00000  Uiso   1.00
O1248  O     0.95344   0.43305   0.68319   0.00000  Uiso   1.00
O1249  O     0.98234   0.39054   0.72733   0.00000  Uiso   1.00
O1250  O     0.67993   0.60341   0.78472   0.00000  Uiso   1.00
O1251  O     0.71596   0.56285   0.82425   0.00000  Uiso   1.00
O1252  O     0.87157   0.56107   0.75000   0.00000  Uiso   1.00
O1253  O     0.79510   0.43893   0.75000   0.00000  Uiso   1.00
O1254  O     0.77328   0.50001   0.81612   0.00000  Uiso   1.00
O1255  O     0.89339   0.49999   0.68387   0.00000  Uiso   1.00
O1256  O     0.84972   0.50000   0.81612   0.00000  Uiso   1.00
O1257  O     0.81695   0.50000   0.68388   0.00000  Uiso   1.00
O1258  O     0.70195   0.44542   0.56723   0.00000  Uiso   1.00
Zn1259 Zn    0.78229   0.50001   0.75000   0.00000  Uiso   1.00
Zn1260 Zn    0.88438   0.49999   0.75000   0.00000  Uiso   1.00
C1261  C     0.16622   0.91329   0.74879   0.00000  Uiso   1.00
C1262  C     0.13640   0.98226   0.72912   0.00000  Uiso   1.00
C1263  C     0.16664   0.70949   0.75308   0.00000  Uiso   1.00
C1264  C     0.16428   0.95777   0.74951   0.00000  Uiso   1.00
C1265  C     0.31770   0.80040   0.73248   0.00000  Uiso   1.00
C1266  C     0.01526   0.86589   0.76869   0.00000  Uiso   1.00
C1267  C     0.03176   0.80079   0.73249   0.00000  Uiso   1.00
C1268  C     0.30141   0.86574   0.76783   0.00000  Uiso   1.00
C1269  C     0.13720   0.83272   0.83769   0.00000  Uiso   1.00
C1270  C     0.19628   0.83395   0.66201   0.00000  Uiso   1.00
C1271  C     0.12047   0.83335   0.88846   0.00000  Uiso   1.00
C1272  C     0.16664   0.75362   0.75180   0.00000  Uiso   1.00
C1273  C     0.21374   0.83939   0.61100   0.00000  Uiso   1.00
C1274  C     0.07251   0.80750   0.96453   0.00000  Uiso   1.00
C1275  C     0.27354   0.83055   0.53411   0.00000  Uiso   1.00
C1276  C     0.08542   0.80612   0.91619   0.00000  Uiso   1.00
C1277  C     0.25469   0.81825   0.58107   0.00000  Uiso   1.00
C1278  C     0.14444   0.85874   0.90962   0.00000  Uiso   1.00
C1279  C     0.18822   0.86597   0.59119   0.00000  Uiso   1.00
C1280  C     0.13873   0.85202   0.95651   0.00000  Uiso   1.00
C1281  C     0.19841   0.86461   0.54290   0.00000  Uiso   1.00
C1282  C     0.09810   0.83103   0.98540   0.00000  Uiso   1.00
C1283  C     0.11584   0.85254   0.55254   0.00000  Uiso   1.00
C1284  C     0.24510   0.85406   0.51425   0.00000  Uiso   1.00
C1285  C     0.17397   0.86252   0.97502   0.00000  Uiso   1.00
C1286  C     0.16196   0.86319   0.52391   0.00000  Uiso   1.00
C1287  C     0.04289   0.81568   0.56827   0.00000  Uiso   1.00
C1288  C     0.30866   0.86143   0.93533   0.00000  Uiso   1.00
C1289  C     0.21295   0.70320   0.80895   0.00000  Uiso   1.00
C1290  C     0.10240   0.96733   0.70747   0.00000  Uiso   1.00
C1291  C     0.30467   0.76316   0.71319   0.00000  Uiso   1.00
C1292  C     0.02684   0.90187   0.79167   0.00000  Uiso   1.00
C1293  C     0.22248   0.86450   0.94646   0.00000  Uiso   1.00
C1294  C     0.08564   0.83350   0.53413   0.00000  Uiso   1.00
C1295  C     0.25827   0.85984   0.96585   0.00000  Uiso   1.00
C1296  C     0.19064   0.97629   0.77341   0.00000  Uiso   1.00
C1297  C     0.14036   0.69124   0.72945   0.00000  Uiso   1.00
C1298  C     0.19054   0.68559   0.77731   0.00000  Uiso   1.00
H1299  H     0.04478   0.78742   0.98504   0.00000  Uiso   1.00
H1300  H     0.03952   0.88506   0.92537   0.00000  Uiso   1.00
H1301  H     0.14449   0.91314   0.59927   0.00000  Uiso   1.00
H1302  H     0.16100   0.90085   0.86038   0.00000  Uiso   1.00
H1303  H     0.24944   0.77118   0.62236   0.00000  Uiso   1.00
H1304  H     0.08226   0.77236   0.86519   0.00000  Uiso   1.00
H1305  H     0.26374   0.69695   0.83793   0.00000  Uiso   1.00
H1306  H     0.04442   0.98044   0.69009   0.00000  Uiso   1.00
H1307  H     0.30527   0.70061   0.71149   0.00000  Uiso   1.00
H1308  H     0.05409   0.92327   0.83817   0.00000  Uiso   1.00
H1309  H     0.30622   0.81607   0.51190   0.00000  Uiso   1.00
H1310  H     0.10558   0.85175   0.59006   0.00000  Uiso   1.00
H1311  H     0.23349   0.86439   0.90891   0.00000  Uiso   1.00
H1312  H     0.20935   0.95721   0.79137   0.00000  Uiso   1.00
H1313  H     0.12247   0.71056   0.71089   0.00000  Uiso   1.00
H1314  H     0.05610   0.77488   0.71805   0.00000  Uiso   1.00
H1315  H     0.27676   0.89135   0.78273   0.00000  Uiso   1.00
H1316  H     0.32252   0.82496   0.62970   0.00000  Uiso   1.00
N1317  N     0.04759   0.83334   0.75001   0.00000  Uiso   1.00
N1318  N     0.28574   0.83332   0.74999   0.00000  Uiso   1.00
O1319  O     0.12846   0.89442   0.75000   0.00000  Uiso   1.00
O1320  O     0.01441   0.84075   0.60491   0.00000  Uiso   1.00
O1321  O     0.32175   0.84664   0.89621   0.00000  Uiso   1.00
O1322  O     0.00738   0.88184   0.95076   0.00000  Uiso   1.00
O1323  O     0.15287   0.89188   0.61918   0.00000  Uiso   1.00
O1324  O     0.17179   0.89142   0.88610   0.00000  Uiso   1.00
O1325  O     0.27408   0.78343   0.59495   0.00000  Uiso   1.00
O1326  O     0.06290   0.77793   0.89814   0.00000  Uiso   1.00
O1327  O     0.19642   0.73484   0.83097   0.00000  Uiso   1.00
O1328  O     0.25183   0.68228   0.81530   0.00000  Uiso   1.00
O1329  O     0.10680   0.93303   0.69038   0.00000  Uiso   1.00
O1330  O     0.20488   0.77225   0.75000   0.00000  Uiso   1.00
O1331  O     0.06499   0.99368   0.70583   0.00000  Uiso   1.00
O1332  O     0.28678   0.76638   0.68319   0.00000  Uiso   1.00
O1333  O     0.31567   0.72387   0.72733   0.00000  Uiso   1.00
O1334  O     0.01326   0.93674   0.78472   0.00000  Uiso   1.00
O1335  O     0.04929   0.89618   0.82425   0.00000  Uiso   1.00
O1336  O     0.20490   0.89441   0.75000   0.00000  Uiso   1.00
O1337  O     0.12843   0.77226   0.75000   0.00000  Uiso   1.00
O1338  O     0.10661   0.83334   0.81612   0.00000  Uiso   1.00
O1339  O     0.22672   0.83333   0.68387   0.00000  Uiso   1.00
O1340  O     0.18305   0.83333   0.81612   0.00000  Uiso   1.00
O1341  O     0.15028   0.83334   0.68388   0.00000  Uiso   1.00
O1342  O     0.03528   0.77875   0.56723   0.00000  Uiso   1.00
Zn1343 Zn    0.11562   0.83334   0.75000   0.00000  Uiso   1.00
Zn1344 Zn    0.21771   0.83333   0.75000   0.00000  Uiso   1.00
C1345  C     0.49955   0.91329   0.74879   0.00000  Uiso   1.00
C1346  C     0.46973   0.98226   0.72912   0.00000  Uiso   1.00
C1347  C     0.49997   0.70949   0.75308   0.00000  Uiso   1.00
C1348  C     0.49762   0.95777   0.74951   0.00000  Uiso   1.00
C1349  C     0.65103   0.80040   0.73248   0.00000  Uiso   1.00
C1350  C     0.34860   0.86589   0.76869   0.00000  Uiso   1.00
C1351  C     0.36509   0.80079   0.73249   0.00000  Uiso   1.00
C1352  C     0.63474   0.86574   0.76783   0.00000  Uiso   1.00
C1353  C     0.47053   0.83272   0.83769   0.00000  Uiso   1.00
C1354  C     0.52961   0.83395   0.66201   0.00000  Uiso   1.00
C1355  C     0.45380   0.83335   0.88846   0.00000  Uiso   1.00
C1356  C     0.49997   0.75362   0.75180   0.00000  Uiso   1.00
C1357  C     0.54707   0.83939   0.61100   0.00000  Uiso   1.00
C1358  C     0.40584   0.80750   0.96453   0.00000  Uiso   1.00
C1359  C     0.60687   0.83055   0.53411   0.00000  Uiso   1.00
C1360  C     0.41875   0.80612   0.91619   0.00000  Uiso   1.00
C1361  C     0.58802   0.81825   0.58107   0.00000  Uiso   1.00
C1362  C     0.47778   0.85874   0.90962   0.00000  Uiso   1.00
C1363  C     0.52155   0.86597   0.59119   0.00000  Uiso   1.00
C1364  C     0.47206   0.85202   0.95651   0.00000  Uiso   1.00
C1365  C     0.53174   0.86461   0.54290   0.00000  Uiso   1.00
C1366  C     0.43144   0.83103   0.98540   0.00000  Uiso   1.00
C1367  C     0.44917   0.85254   0.55254   0.00000  Uiso   1.00
C1368  C     0.57843   0.85406   0.51425   0.00000  Uiso   1.00
C1369  C     0.50730   0.86252   0.97502   0.00000  Uiso   1.00
C1370  C     0.49529   0.86319   0.52391   0.00000  Uiso   1.00
C1371  C     0.37623   0.81568   0.56827   0.00000  Uiso   1.00
C1372  C     0.64200   0.86143   0.93533   0.00000  Uiso   1.00
C1373  C     0.54629   0.70320   0.80895   0.00000  Uiso   1.00
C1374  C     0.43573   0.96733   0.70747   0.00000  Uiso   1.00
C1375  C     0.63800   0.76316   0.71319   0.00000  Uiso   1.00
C1376  C     0.36017   0.90187   0.79167   0.00000  Uiso   1.00
C1377  C     0.55581   0.86450   0.94646   0.00000  Uiso   1.00
C1378  C     0.41897   0.83350   0.53413   0.00000  Uiso   1.00
C1379  C     0.59160   0.85984   0.96585   0.00000  Uiso   1.00
C1380  C     0.52397   0.97629   0.77341   0.00000  Uiso   1.00
C1381  C     0.47369   0.69124   0.72945   0.00000  Uiso   1.00
C1382  C     0.52387   0.68559   0.77731   0.00000  Uiso   1.00
H1383  H     0.37812   0.78742   0.98504   0.00000  Uiso   1.00
H1384  H     0.37286   0.88506   0.92537   0.00000  Uiso   1.00
H1385  H     0.47782   0.91314   0.59927   0.00000  Uiso   1.00
H1386  H     0.49434   0.90085   0.86038   0.00000  Uiso   1.00
H1387  H     0.58277   0.77118   0.62236   0.00000  Uiso   1.00
H1388  H     0.41560   0.77236   0.86519   0.00000  Uiso   1.00
H1389  H     0.59707   0.69695   0.83793   0.00000  Uiso   1.00
H1390  H     0.37775   0.98044   0.69009   0.00000  Uiso   1.00
H1391  H     0.63861   0.70061   0.71149   0.00000  Uiso   1.00
H1392  H     0.38743   0.92327   0.83817   0.00000  Uiso   1.00
H1393  H     0.63956   0.81607   0.51190   0.00000  Uiso   1.00
H1394  H     0.43892   0.85175   0.59006   0.00000  Uiso   1.00
H1395  H     0.56682   0.86439   0.90891   0.00000  Uiso   1.00
H1396  H     0.54268   0.95721   0.79137   0.00000  Uiso   1.00
H1397  H     0.45581   0.71056   0.71089   0.00000  Uiso   1.00
H1398  H     0.38943   0.77488   0.71805   0.00000  Uiso   1.00
H1399  H     0.61009   0.89135   0.78273   0.00000  Uiso   1.00
H1400  H     0.65585   0.82496   0.62970   0.00000  Uiso   1.00
N1401  N     0.38093   0.83334   0.75001   0.00000  Uiso   1.00
N1402  N     0.61907   0.83332   0.74999   0.00000  Uiso   1.00
O1403  O     0.46179   0.89442   0.75000   0.00000  Uiso   1.00
O1404  O     0.34774   0.84075   0.60491   0.00000  Uiso   1.00
O1405  O     0.65509   0.84664   0.89621   0.00000  Uiso   1.00
O1406  O     0.34071   0.88184   0.95076   0.00000  Uiso   1.00
O1407  O     0.48621   0.89188   0.61918   0.00000  Uiso   1.00
O1408  O     0.50512   0.89142   0.88610   0.00000  Uiso   1.00
O1409  O     0.60741   0.78343   0.59495   0.00000  Uiso   1.00
O1410  O     0.39623   0.77793   0.89814   0.00000  Uiso   1.00
O1411  O     0.52975   0.73484   0.83097   0.00000  Uiso   1.00
O1412  O     0.58516   0.68228   0.81530   0.00000  Uiso   1.00
O1413  O     0.44014   0.93303   0.69038   0.00000  Uiso   1.00
O1414  O     0.53821   0.77225   0.75000   0.00000  Uiso   1.00
O1415  O     0.39832   0.99368   0.70583   0.00000  Uiso   1.00
O1416  O     0.62011   0.76638   0.68319   0.00000  Uiso   1.00
O1417  O     0.64900   0.72387   0.72733   0.00000  Uiso   1.00
O1418  O     0.34659   0.93674   0.78472   0.00000  Uiso   1.00
O1419  O     0.38263   0.89618   0.82425   0.00000  Uiso   1.00
O1420  O     0.53823   0.89441   0.75000   0.00000  Uiso   1.00
O1421  O     0.46177   0.77226   0.75000   0.00000  Uiso   1.00
O1422  O     0.43994   0.83334   0.81612   0.00000  Uiso   1.00
O1423  O     0.56006   0.83333   0.68387   0.00000  Uiso   1.00
O1424  O     0.51639   0.83333   0.81612   0.00000  Uiso   1.00
O1425  O     0.48361   0.83334   0.68388   0.00000  Uiso   1.00
O1426  O     0.36861   0.77875   0.56723   0.00000  Uiso   1.00
Zn1427 Zn    0.44896   0.83334   0.75000   0.00000  Uiso   1.00
Zn1428 Zn    0.55104   0.83333   0.75000   0.00000  Uiso   1.00
C1429  C     0.83288   0.91329   0.74879   0.00000  Uiso   1.00
C1430  C     0.80306   0.98226   0.72912   0.00000  Uiso   1.00
C1431  C     0.83330   0.70949   0.75308   0.00000  Uiso   1.00
C1432  C     0.83095   0.95777   0.74951   0.00000  Uiso   1.00
C1433  C     0.98436   0.80040   0.73248   0.00000  Uiso   1.00
C1434  C     0.68193   0.86589   0.76869   0.00000  Uiso   1.00
C1435  C     0.69842   0.80079   0.73249   0.00000  Uiso   1.00
C1436  C     0.96808   0.86574   0.76783   0.00000  Uiso   1.00
C1437  C     0.80387   0.83272   0.83769   0.00000  Uiso   1.00
C1438  C     0.86295   0.83395   0.66201   0.00000  Uiso   1.00
C1439  C     0.78714   0.83335   0.88846   0.00000  Uiso   1.00
C1440  C     0.83331   0.75362   0.75180   0.00000  Uiso   1.00
C1441  C     0.88040   0.83939   0.61100   0.00000  Uiso   1.00
C1442  C     0.73917   0.80750   0.96453   0.00000  Uiso   1.00
C1443  C     0.94020   0.83055   0.53411   0.00000  Uiso   1.00
C1444  C     0.75208   0.80612   0.91619   0.00000  Uiso   1.00
C1445  C     0.92135   0.81825   0.58107   0.00000  Uiso   1.00
C1446  C     0.81111   0.85874   0.90962   0.00000  Uiso   1.00
C1447  C     0.85489   0.86597   0.59119   0.00000  Uiso   1.00
C1448  C     0.80540   0.85202   0.95651   0.00000  Uiso   1.00
C1449  C     0.86508   0.86461   0.54290   0.00000  Uiso   1.00
C1450  C     0.76477   0.83103   0.98540   0.00000  Uiso   1.00
C1451  C     0.78250   0.85254   0.55254   0.00000  Uiso   1.00
C1452  C     0.91177   0.85406   0.51425   0.00000  Uiso   1.00
C1453  C     0.84064   0.86252   0.97502   0.00000  Uiso   1.00
C1454  C     0.82863   0.86319   0.52391   0.00000  Uiso   1.00
C1455  C     0.70956   0.81568   0.56827   0.00000  Uiso   1.00
C1456  C     0.97533   0.86143   0.93533   0.00000  Uiso   1.00
C1457  C     0.87962   0.70320   0.80895   0.00000  Uiso   1.00
C1458  C     0.76907   0.96733   0.70747   0.00000  Uiso   1.00
C1459  C     0.97133   0.76316   0.71319   0.00000  Uiso   1.00
C1460  C     0.69351   0.90187   0.79167   0.00000  Uiso   1.00
C1461  C     0.88915   0.86450   0.94646   0.00000  Uiso   1.00
C1462  C     0.75231   0.83350   0.53413   0.00000  Uiso   1.00
C1463  C     0.92493   0.85984   0.96585   0.00000  Uiso   1.00
C1464  C     0.85730   0.97629   0.77341   0.00000  Uiso   1.00
C1465  C     0.80702   0.69124   0.72945   0.00000  Uiso   1.00
C1466  C     0.85721   0.68559   0.77731   0.00000  Uiso   1.00
H1467  H     0.71145   0.78742   0.98504   0.00000  Uiso   1.00
H1468  H     0.70619   0.88506   0.92537   0.00000  Uiso   1.00
H1469  H     0.81116   0.91314   0.59927   0.00000  Uiso   1.00
H1470  H     0.82767   0.90085   0.86038   0.00000  Uiso   1.00
H1471  H     0.91611   0.77118   0.62236   0.00000  Uiso   1.00
H1472  H     0.74893   0.77236   0.86519   0.00000  Uiso   1.00
H1473  H     0.93040   0.69695   0.83793   0.00000  Uiso   1.00
H1474  H     0.71109   0.98044   0.69009   0.00000  Uiso   1.00
H1475  H     0.97194   0.70061   0.71149   0.00000  Uiso   1.00
H1476  H     0.72076   0.92327   0.83817   0.00000  Uiso   1.00
H1477  H     0.97289   0.81607   0.51190   0.00000  Uiso   1.00
H1478  H     0.77225   0.85175   0.59006   0.00000  Uiso   1.00
H1479  H     0.90015   0.86439   0.90891   0.00000  Uiso   1.00
H1480  H     0.87602   0.95721   0.79137   0.00000  Uiso   1.00
H1481  H     0.78914   0.71056   0.71089   0.00000  Uiso   1.00
H1482  H     0.72276   0.77488   0.71805   0.00000  Uiso   1.00
H1483  H     0.94342   0.89135   0.78273   0.00000  Uiso   1.00
H1484  H     0.98919   0.82496   0.62970   0.00000  Uiso   1.00
N1485  N     0.71426   0.83334   0.75001   0.00000  Uiso   1.00
N1486  N     0.95241   0.83332   0.74999   0.00000  Uiso   1.00
O1487  O     0.79512   0.89442   0.75000   0.00000  Uiso   1.00
O1488  O     0.68108   0.84075   0.60491   0.00000  Uiso   1.00
O1489  O     0.98842   0.84664   0.89621   0.00000  Uiso   1.00
O1490  O     0.67404   0.88184   0.95076   0.00000  Uiso   1.00
O1491  O     0.81954   0.89188   0.61918   0.00000  Uiso   1.00
O1492  O     0.83845   0.89142   0.88610   0.00000  Uiso   1.00
O1493  O     0.94075   0.78343   0.59495   0.00000  Uiso   1.00
O1494  O     0.72956   0.77793   0.89814   0.00000  Uiso   1.00
O1495  O     0.86308   0.73484   0.83097   0.00000  Uiso   1.00
O1496  O     0.91849   0.68228   0.81530   0.00000  Uiso   1.00
O1497  O     0.77347   0.93303   0.69038   0.00000  Uiso   1.00
O1498  O     0.87154   0.77225   0.75000   0.00000  Uiso   1.00
O1499  O     0.73165   0.99368   0.70583   0.00000  Uiso   1.00
O1500  O     0.95344   0.76638   0.68319   0.00000  Uiso   1.00
O1501  O     0.98234   0.72387   0.72733   0.00000  Uiso   1.00
O1502  O     0.67993   0.93674   0.78472   0.00000  Uiso   1.00
O1503  O     0.71596   0.89618   0.82425   0.00000  Uiso   1.00
O1504  O     0.87157   0.89441   0.75000   0.00000  Uiso   1.00
O1505  O     0.79510   0.77226   0.75000   0.00000  Uiso   1.00
O1506  O     0.77328   0.83334   0.81612   0.00000  Uiso   1.00
O1507  O     0.89339   0.83333   0.68387   0.00000  Uiso   1.00
O1508  O     0.84972   0.83333   0.81612   0.00000  Uiso   1.00
O1509  O     0.81695   0.83334   0.68388   0.00000  Uiso   1.00
O1510  O     0.70195   0.77875   0.56723   0.00000  Uiso   1.00
Zn1511 Zn    0.78229   0.83334   0.75000   0.00000  Uiso   1.00
Zn1512 Zn    0.88438   0.83333   0.75000   0.00000  Uiso   1.00
loop_
_geom_bond_atom_site_label_1
_geom_bond_atom_site_label_2
_geom_bond_distance
_geom_bond_site_symmetry_2
_ccdc_geom_bond_type
C1     O59     1.293   .     A
C1     O76     1.305   .     A
C1     C4      1.432   .     S
C2     C4      1.421   .     A
C2     C30     1.494   .     S
C2     C289    1.373   .     S
C3     C12     1.421   .     S
C3     C38     1.405   .     A
C3     C37     1.392   .     A
C4     C36     1.404   .     A
C5     N58     1.387   .     A
C5     C31     1.469   .     S
C5     C91     1.424   .     S
C6     C32     1.478   .     S
C6     N57     1.390   .     A
C6     C176    1.426   1_455 S
C7     H54     1.083   .     S
C7     N57     1.358   .     A
C7     C173    1.424   1_455 S
C8     N58     1.358   .     A
C8     H55     1.083   .     S
C8     C90     1.426   .     S
C9     O80     1.302   .     A
C9     C11     1.457   .     S
C9     O78     1.305   .     A
C10    C13     1.473   .     S
C10    O79     1.308   .     A
C10    O81     1.308   .     A
C11    C18     1.411   .     A
C11    C16     1.417   .     A
C12    O77     1.295   .     A
C12    O70     1.297   .     A
C13    C19     1.397   .     A
C13    C17     1.411   .     A
C14    H39     1.078   .     S
C14    C16     1.394   .     A
C14    C22     1.405   .     A
C15    C17     1.404   .     A
C15    C24     1.406   .     A
C15    H49     1.075   .     S
C16    O66     1.381   .     S
C17    O65     1.375   .     S
C18    O64     1.385   .     S
C18    C20     1.399   .     A
C19    C21     1.402   .     A
C19    O63     1.373   .     S
C20    C25     1.416   .     A
C20    C22     1.416   .     A
C21    C26     1.410   .     A
C21    C24     1.403   .     A
C22    C790    1.409   .     S
C23    C26     1.405   .     A
C23    H50     1.080   .     S
C23    C34     1.387   .     A
C24    C791    1.405   1_554 S
C25    C33     1.415   .     A
C25    C782    1.412   .     S
C26    C781    1.412   1_554 S
C27    O60     1.399   .     S
C27    C34     1.469   .     S
C27    O82     1.222   .     D
C28    O61     1.222   .     D
C28    C35     1.476   .     S
C28    O146    1.398   .     S
C29    O67     1.223   .     D
C29    C38     1.488   .     S
C29    O68     1.399   .     S
C30    O71     1.400   .     S
C30    O69     1.214   .     D
C31    O73     1.397   .     S
C31    O72     1.217   .     D
C32    O75     1.393   .     S
C32    O74     1.223   .     D
C33    H51     1.080   .     S
C33    C35     1.401   .     A
C34    C778    1.409   1_554 S
C35    C780    1.405   .     S
C36    H52     1.085   .     S
C36    C290    1.380   .     S
C37    H53     1.086   .     S
C37    C506    1.373   1_545 S
C38    C540    1.380   1_545 S
H40    O62     1.012   .     S
H41    O63     0.993   .     S
H42    O64     0.991   .     S
H43    O65     0.990   .     S
H44    O66     0.988   .     S
H45    O68     1.014   .     S
H46    O71     1.014   .     S
H47    O73     1.014   .     S
H48    O75     1.014   .     S
H56    O144    1.009   .     S
N57    Zn83    2.043   .     S
N58    Zn84    2.043   .     S
O59    Zn83    2.017   .     S
O60    H224    1.009   1_455 S
O62    C196    1.398   1_455 S
O70    Zn84    2.017   .     S
O76    Zn84    1.992   .     S
O77    Zn83    1.992   .     S
O78    Zn83    1.947   .     S
O79    Zn84    1.947   .     S
O80    Zn84    1.925   .     S
O81    Zn83    1.925   .     S
C85    O143    1.293   .     A
C85    O160    1.305   .     A
C85    C88     1.432   .     S
C86    C88     1.421   .     A
C86    C114    1.494   .     S
C86    C373    1.373   .     S
C87    C96     1.421   .     S
C87    C122    1.405   .     A
C87    C121    1.392   .     A
C88    C120    1.404   .     A
C89    N142    1.387   .     A
C89    C115    1.469   .     S
C89    C175    1.424   .     S
C90    C116    1.478   .     S
C90    N141    1.390   .     A
C91    H138    1.083   .     S
C91    N141    1.358   .     A
C92    N142    1.358   .     A
C92    H139    1.083   .     S
C92    C174    1.426   .     S
C93    O164    1.302   .     A
C93    C95     1.457   .     S
C93    O162    1.305   .     A
C94    C97     1.473   .     S
C94    O163    1.308   .     A
C94    O165    1.308   .     A
C95    C102    1.411   .     A
C95    C100    1.417   .     A
C96    O161    1.295   .     A
C96    O154    1.297   .     A
C97    C103    1.397   .     A
C97    C101    1.411   .     A
C98    H123    1.078   .     S
C98    C100    1.394   .     A
C98    C106    1.405   .     A
C99    C101    1.404   .     A
C99    C108    1.406   .     A
C99    H133    1.075   .     S
C100   O150    1.381   .     S
C101   O149    1.375   .     S
C102   O148    1.385   .     S
C102   C104    1.399   .     A
C103   C105    1.402   .     A
C103   O147    1.373   .     S
C104   C109    1.416   .     A
C104   C106    1.416   .     A
C105   C110    1.410   .     A
C105   C108    1.403   .     A
C106   C874    1.409   .     S
C107   C110    1.405   .     A
C107   H134    1.080   .     S
C107   C118    1.387   .     A
C108   C875    1.405   1_554 S
C109   C117    1.415   .     A
C109   C866    1.412   .     S
C110   C865    1.412   1_554 S
C111   O144    1.399   .     S
C111   C118    1.469   .     S
C111   O166    1.222   .     D
C112   O145    1.222   .     D
C112   C119    1.476   .     S
C112   O230    1.398   .     S
C113   O151    1.223   .     D
C113   C122    1.488   .     S
C113   O152    1.399   .     S
C114   O155    1.400   .     S
C114   O153    1.214   .     D
C115   O157    1.397   .     S
C115   O156    1.217   .     D
C116   O159    1.393   .     S
C116   O158    1.223   .     D
C117   H135    1.080   .     S
C117   C119    1.401   .     A
C118   C862    1.409   1_554 S
C119   C864    1.405   .     S
C120   H136    1.085   .     S
C120   C374    1.380   .     S
C121   H137    1.086   .     S
C121   C590    1.373   1_545 S
C122   C624    1.380   1_545 S
H124   O146    1.012   .     S
H125   O147    0.993   .     S
H126   O148    0.991   .     S
H127   O149    0.990   .     S
H128   O150    0.988   .     S
H129   O152    1.014   .     S
H130   O155    1.014   .     S
H131   O157    1.014   .     S
H132   O159    1.014   .     S
H140   O228    1.009   .     S
N141   Zn167   2.043   .     S
N142   Zn168   2.043   .     S
O143   Zn167   2.017   .     S
O154   Zn168   2.017   .     S
O160   Zn168   1.992   .     S
O161   Zn167   1.992   .     S
O162   Zn167   1.947   .     S
O163   Zn168   1.947   .     S
O164   Zn168   1.925   .     S
O165   Zn167   1.925   .     S
C169   O227    1.293   .     A
C169   O244    1.305   .     A
C169   C172    1.432   .     S
C170   C172    1.421   .     A
C170   C198    1.494   .     S
C170   C457    1.373   .     S
C171   C180    1.421   .     S
C171   C206    1.405   .     A
C171   C205    1.392   .     A
C172   C204    1.404   .     A
C173   N226    1.387   .     A
C173   C199    1.469   .     S
C173   C7      1.424   1_655 S
C174   C200    1.478   .     S
C174   N225    1.390   .     A
C175   H222    1.083   .     S
C175   N225    1.358   .     A
C176   N226    1.358   .     A
C176   H223    1.083   .     S
C176   C6      1.426   1_655 S
C177   O248    1.302   .     A
C177   C179    1.457   .     S
C177   O246    1.305   .     A
C178   C181    1.473   .     S
C178   O247    1.308   .     A
C178   O249    1.308   .     A
C179   C186    1.411   .     A
C179   C184    1.417   .     A
C180   O245    1.295   .     A
C180   O238    1.297   .     A
C181   C187    1.397   .     A
C181   C185    1.411   .     A
C182   H207    1.078   .     S
C182   C184    1.394   .     A
C182   C190    1.405   .     A
C183   C185    1.404   .     A
C183   C192    1.406   .     A
C183   H217    1.075   .     S
C184   O234    1.381   .     S
C185   O233    1.375   .     S
C186   O232    1.385   .     S
C186   C188    1.399   .     A
C187   C189    1.402   .     A
C187   O231    1.373   .     S
C188   C193    1.416   .     A
C188   C190    1.416   .     A
C189   C194    1.410   .     A
C189   C192    1.403   .     A
C190   C958    1.409   .     S
C191   C194    1.405   .     A
C191   H218    1.080   .     S
C191   C202    1.387   .     A
C192   C959    1.405   1_554 S
C193   C201    1.415   .     A
C193   C950    1.412   .     S
C194   C949    1.412   1_554 S
C195   O228    1.399   .     S
C195   C202    1.469   .     S
C195   O250    1.222   .     D
C196   O229    1.222   .     D
C196   C203    1.476   .     S
C196   O62     1.398   1_655 S
C197   O235    1.223   .     D
C197   C206    1.488   .     S
C197   O236    1.399   .     S
C198   O239    1.400   .     S
C198   O237    1.214   .     D
C199   O241    1.397   .     S
C199   O240    1.217   .     D
C200   O243    1.393   .     S
C200   O242    1.223   .     D
C201   H219    1.080   .     S
C201   C203    1.401   .     A
C202   C946    1.409   1_554 S
C203   C948    1.405   .     S
C204   H220    1.085   .     S
C204   C458    1.380   .     S
C205   H221    1.086   .     S
C205   C674    1.373   1_545 S
C206   C708    1.380   1_545 S
H208   O230    1.012   .     S
H209   O231    0.993   .     S
H210   O232    0.991   .     S
H211   O233    0.990   .     S
H212   O234    0.988   .     S
H213   O236    1.014   .     S
H214   O239    1.014   .     S
H215   O241    1.014   .     S
H216   O243    1.014   .     S
H224   O60     1.009   1_655 S
N225   Zn251   2.043   .     S
N226   Zn252   2.043   .     S
O227   Zn251   2.017   .     S
O238   Zn252   2.017   .     S
O244   Zn252   1.992   .     S
O245   Zn251   1.992   .     S
O246   Zn251   1.947   .     S
O247   Zn252   1.947   .     S
O248   Zn252   1.925   .     S
O249   Zn251   1.925   .     S
C253   O311    1.293   .     A
C253   O328    1.305   .     A
C253   C256    1.432   .     S
C254   C256    1.421   .     A
C254   C282    1.494   .     S
C254   C541    1.373   .     S
C255   C264    1.421   .     S
C255   C290    1.405   .     A
C255   C289    1.392   .     A
C256   C288    1.404   .     A
C257   N310    1.387   .     A
C257   C283    1.469   .     S
C257   C343    1.424   .     S
C258   C284    1.478   .     S
C258   N309    1.390   .     A
C258   C428    1.426   1_455 S
C259   H306    1.083   .     S
C259   N309    1.358   .     A
C259   C425    1.424   1_455 S
C260   N310    1.358   .     A
C260   H307    1.083   .     S
C260   C342    1.426   .     S
C261   O332    1.302   .     A
C261   C263    1.457   .     S
C261   O330    1.305   .     A
C262   C265    1.473   .     S
C262   O331    1.308   .     A
C262   O333    1.308   .     A
C263   C270    1.411   .     A
C263   C268    1.417   .     A
C264   O329    1.295   .     A
C264   O322    1.297   .     A
C265   C271    1.397   .     A
C265   C269    1.411   .     A
C266   H291    1.078   .     S
C266   C268    1.394   .     A
C266   C274    1.405   .     A
C267   C269    1.404   .     A
C267   C276    1.406   .     A
C267   H301    1.075   .     S
C268   O318    1.381   .     S
C269   O317    1.375   .     S
C270   O316    1.385   .     S
C270   C272    1.399   .     A
C271   C273    1.402   .     A
C271   O315    1.373   .     S
C272   C277    1.416   .     A
C272   C274    1.416   .     A
C273   C278    1.410   .     A
C273   C276    1.403   .     A
C274   C1042   1.409   .     S
C275   C278    1.405   .     A
C275   H302    1.080   .     S
C275   C286    1.387   .     A
C276   C1043   1.405   1_554 S
C277   C285    1.415   .     A
C277   C1034   1.412   .     S
C278   C1033   1.412   1_554 S
C279   O312    1.399   .     S
C279   C286    1.469   .     S
C279   O334    1.222   .     D
C280   O313    1.222   .     D
C280   C287    1.476   .     S
C280   O398    1.398   .     S
C281   O319    1.223   .     D
C281   C290    1.488   .     S
C281   O320    1.399   .     S
C282   O323    1.400   .     S
C282   O321    1.214   .     D
C283   O325    1.397   .     S
C283   O324    1.217   .     D
C284   O327    1.393   .     S
C284   O326    1.223   .     D
C285   H303    1.080   .     S
C285   C287    1.401   .     A
C286   C1030   1.409   1_554 S
C287   C1032   1.405   .     S
C288   H304    1.085   .     S
C288   C542    1.380   .     S
C289   H305    1.086   .     S
H292   O314    1.012   .     S
H293   O315    0.993   .     S
H294   O316    0.991   .     S
H295   O317    0.990   .     S
H296   O318    0.988   .     S
H297   O320    1.014   .     S
H298   O323    1.014   .     S
H299   O325    1.014   .     S
H300   O327    1.014   .     S
H308   O396    1.009   .     S
N309   Zn335   2.043   .     S
N310   Zn336   2.043   .     S
O311   Zn335   2.017   .     S
O312   H476    1.009   1_455 S
O314   C448    1.398   1_455 S
O322   Zn336   2.017   .     S
O328   Zn336   1.992   .     S
O329   Zn335   1.992   .     S
O330   Zn335   1.947   .     S
O331   Zn336   1.947   .     S
O332   Zn336   1.925   .     S
O333   Zn335   1.925   .     S
C337   O395    1.293   .     A
C337   O412    1.305   .     A
C337   C340    1.432   .     S
C338   C340    1.421   .     A
C338   C366    1.494   .     S
C338   C625    1.373   .     S
C339   C348    1.421   .     S
C339   C374    1.405   .     A
C339   C373    1.392   .     A
C340   C372    1.404   .     A
C341   N394    1.387   .     A
C341   C367    1.469   .     S
C341   C427    1.424   .     S
C342   C368    1.478   .     S
C342   N393    1.390   .     A
C343   H390    1.083   .     S
C343   N393    1.358   .     A
C344   N394    1.358   .     A
C344   H391    1.083   .     S
C344   C426    1.426   .     S
C345   O416    1.302   .     A
C345   C347    1.457   .     S
C345   O414    1.305   .     A
C346   C349    1.473   .     S
C346   O415    1.308   .     A
C346   O417    1.308   .     A
C347   C354    1.411   .     A
C347   C352    1.417   .     A
C348   O413    1.295   .     A
C348   O406    1.297   .     A
C349   C355    1.397   .     A
C349   C353    1.411   .     A
C350   H375    1.078   .     S
C350   C352    1.394   .     A
C350   C358    1.405   .     A
C351   C353    1.404   .     A
C351   C360    1.406   .     A
C351   H385    1.075   .     S
C352   O402    1.381   .     S
C353   O401    1.375   .     S
C354   O400    1.385   .     S
C354   C356    1.399   .     A
C355   C357    1.402   .     A
C355   O399    1.373   .     S
C356   C361    1.416   .     A
C356   C358    1.416   .     A
C357   C362    1.410   .     A
C357   C360    1.403   .     A
C358   C1126   1.409   .     S
C359   C362    1.405   .     A
C359   H386    1.080   .     S
C359   C370    1.387   .     A
C360   C1127   1.405   1_554 S
C361   C369    1.415   .     A
C361   C1118   1.412   .     S
C362   C1117   1.412   1_554 S
C363   O396    1.399   .     S
C363   C370    1.469   .     S
C363   O418    1.222   .     D
C364   O397    1.222   .     D
C364   C371    1.476   .     S
C364   O482    1.398   .     S
C365   O403    1.223   .     D
C365   C374    1.488   .     S
C365   O404    1.399   .     S
C366   O407    1.400   .     S
C366   O405    1.214   .     D
C367   O409    1.397   .     S
C367   O408    1.217   .     D
C368   O411    1.393   .     S
C368   O410    1.223   .     D
C369   H387    1.080   .     S
C369   C371    1.401   .     A
C370   C1114   1.409   1_554 S
C371   C1116   1.405   .     S
C372   H388    1.085   .     S
C372   C626    1.380   .     S
C373   H389    1.086   .     S
H376   O398    1.012   .     S
H377   O399    0.993   .     S
H378   O400    0.991   .     S
H379   O401    0.990   .     S
H380   O402    0.988   .     S
H381   O404    1.014   .     S
H382   O407    1.014   .     S
H383   O409    1.014   .     S
H384   O411    1.014   .     S
H392   O480    1.009   .     S
N393   Zn419   2.043   .     S
N394   Zn420   2.043   .     S
O395   Zn419   2.017   .     S
O406   Zn420   2.017   .     S
O412   Zn420   1.992   .     S
O413   Zn419   1.992   .     S
O414   Zn419   1.947   .     S
O415   Zn420   1.947   .     S
O416   Zn420   1.925   .     S
O417   Zn419   1.925   .     S
C421   O479    1.293   .     A
C421   O496    1.305   .     A
C421   C424    1.432   .     S
C422   C424    1.421   .     A
C422   C450    1.494   .     S
C422   C709    1.373   .     S
C423   C432    1.421   .     S
C423   C458    1.405   .     A
C423   C457    1.392   .     A
C424   C456    1.404   .     A
C425   N478    1.387   .     A
C425   C451    1.469   .     S
C425   C259    1.424   1_655 S
C426   C452    1.478   .     S
C426   N477    1.390   .     A
C427   H474    1.083   .     S
C427   N477    1.358   .     A
C428   N478    1.358   .     A
C428   H475    1.083   .     S
C428   C258    1.426   1_655 S
C429   O500    1.302   .     A
C429   C431    1.457   .     S
C429   O498    1.305   .     A
C430   C433    1.473   .     S
C430   O499    1.308   .     A
C430   O501    1.308   .     A
C431   C438    1.411   .     A
C431   C436    1.417   .     A
C432   O497    1.295   .     A
C432   O490    1.297   .     A
C433   C439    1.397   .     A
C433   C437    1.411   .     A
C434   H459    1.078   .     S
C434   C436    1.394   .     A
C434   C442    1.405   .     A
C435   C437    1.404   .     A
C435   C444    1.406   .     A
C435   H469    1.075   .     S
C436   O486    1.381   .     S
C437   O485    1.375   .     S
C438   O484    1.385   .     S
C438   C440    1.399   .     A
C439   C441    1.402   .     A
C439   O483    1.373   .     S
C440   C445    1.416   .     A
C440   C442    1.416   .     A
C441   C446    1.410   .     A
C441   C444    1.403   .     A
C442   C1210   1.409   .     S
C443   C446    1.405   .     A
C443   H470    1.080   .     S
C443   C454    1.387   .     A
C444   C1211   1.405   1_554 S
C445   C453    1.415   .     A
C445   C1202   1.412   .     S
C446   C1201   1.412   1_554 S
C447   O480    1.399   .     S
C447   C454    1.469   .     S
C447   O502    1.222   .     D
C448   O481    1.222   .     D
C448   C455    1.476   .     S
C448   O314    1.398   1_655 S
C449   O487    1.223   .     D
C449   C458    1.488   .     S
C449   O488    1.399   .     S
C450   O491    1.400   .     S
C450   O489    1.214   .     D
C451   O493    1.397   .     S
C451   O492    1.217   .     D
C452   O495    1.393   .     S
C452   O494    1.223   .     D
C453   H471    1.080   .     S
C453   C455    1.401   .     A
C454   C1198   1.409   1_554 S
C455   C1200   1.405   .     S
C456   H472    1.085   .     S
C456   C710    1.380   .     S
C457   H473    1.086   .     S
H460   O482    1.012   .     S
H461   O483    0.993   .     S
H462   O484    0.991   .     S
H463   O485    0.990   .     S
H464   O486    0.988   .     S
H465   O488    1.014   .     S
H466   O491    1.014   .     S
H467   O493    1.014   .     S
H468   O495    1.014   .     S
H476   O312    1.009   1_655 S
N477   Zn503   2.043   .     S
N478   Zn504   2.043   .     S
O479   Zn503   2.017   .     S
O490   Zn504   2.017   .     S
O496   Zn504   1.992   .     S
O497   Zn503   1.992   .     S
O498   Zn503   1.947   .     S
O499   Zn504   1.947   .     S
O500   Zn504   1.925   .     S
O501   Zn503   1.925   .     S
C505   O563    1.293   .     A
C505   O580    1.305   .     A
C505   C508    1.432   .     S
C506   C508    1.421   .     A
C506   C534    1.494   .     S
C506   C37     1.373   1_565 S
C507   C516    1.421   .     S
C507   C542    1.405   .     A
C507   C541    1.392   .     A
C508   C540    1.404   .     A
C509   N562    1.387   .     A
C509   C535    1.469   .     S
C509   C595    1.424   .     S
C510   C536    1.478   .     S
C510   N561    1.390   .     A
C510   C680    1.426   1_455 S
C511   H558    1.083   .     S
C511   N561    1.358   .     A
C511   C677    1.424   1_455 S
C512   N562    1.358   .     A
C512   H559    1.083   .     S
C512   C594    1.426   .     S
C513   O584    1.302   .     A
C513   C515    1.457   .     S
C513   O582    1.305   .     A
C514   C517    1.473   .     S
C514   O583    1.308   .     A
C514   O585    1.308   .     A
C515   C522    1.411   .     A
C515   C520    1.417   .     A
C516   O581    1.295   .     A
C516   O574    1.297   .     A
C517   C523    1.397   .     A
C517   C521    1.411   .     A
C518   H543    1.078   .     S
C518   C520    1.394   .     A
C518   C526    1.405   .     A
C519   C521    1.404   .     A
C519   C528    1.406   .     A
C519   H553    1.075   .     S
C520   O570    1.381   .     S
C521   O569    1.375   .     S
C522   O568    1.385   .     S
C522   C524    1.399   .     A
C523   C525    1.402   .     A
C523   O567    1.373   .     S
C524   C529    1.416   .     A
C524   C526    1.416   .     A
C525   C530    1.410   .     A
C525   C528    1.403   .     A
C526   C1294   1.409   .     S
C527   C530    1.405   .     A
C527   H554    1.080   .     S
C527   C538    1.387   .     A
C528   C1295   1.405   1_554 S
C529   C537    1.415   .     A
C529   C1286   1.412   .     S
C530   C1285   1.412   1_554 S
C531   O564    1.399   .     S
C531   C538    1.469   .     S
C531   O586    1.222   .     D
C532   O565    1.222   .     D
C532   C539    1.476   .     S
C532   O650    1.398   .     S
C533   O571    1.223   .     D
C533   C542    1.488   .     S
C533   O572    1.399   .     S
C534   O575    1.400   .     S
C534   O573    1.214   .     D
C535   O577    1.397   .     S
C535   O576    1.217   .     D
C536   O579    1.393   .     S
C536   O578    1.223   .     D
C537   H555    1.080   .     S
C537   C539    1.401   .     A
C538   C1282   1.409   1_554 S
C539   C1284   1.405   .     S
C540   H556    1.085   .     S
C540   C38     1.380   1_565 S
C541   H557    1.086   .     S
H544   O566    1.012   .     S
H545   O567    0.993   .     S
H546   O568    0.991   .     S
H547   O569    0.990   .     S
H548   O570    0.988   .     S
H549   O572    1.014   .     S
H550   O575    1.014   .     S
H551   O577    1.014   .     S
H552   O579    1.014   .     S
H560   O648    1.009   .     S
N561   Zn587   2.043   .     S
N562   Zn588   2.043   .     S
O563   Zn587   2.017   .     S
O564   H728    1.009   1_455 S
O566   C700    1.398   1_455 S
O574   Zn588   2.017   .     S
O580   Zn588   1.992   .     S
O581   Zn587   1.992   .     S
O582   Zn587   1.947   .     S
O583   Zn588   1.947   .     S
O584   Zn588   1.925   .     S
O585   Zn587   1.925   .     S
C589   O647    1.293   .     A
C589   O664    1.305   .     A
C589   C592    1.432   .     S
C590   C592    1.421   .     A
C590   C618    1.494   .     S
C590   C121    1.373   1_565 S
C591   C600    1.421   .     S
C591   C626    1.405   .     A
C591   C625    1.392   .     A
C592   C624    1.404   .     A
C593   N646    1.387   .     A
C593   C619    1.469   .     S
C593   C679    1.424   .     S
C594   C620    1.478   .     S
C594   N645    1.390   .     A
C595   H642    1.083   .     S
C595   N645    1.358   .     A
C596   N646    1.358   .     A
C596   H643    1.083   .     S
C596   C678    1.426   .     S
C597   O668    1.302   .     A
C597   C599    1.457   .     S
C597   O666    1.305   .     A
C598   C601    1.473   .     S
C598   O667    1.308   .     A
C598   O669    1.308   .     A
C599   C606    1.411   .     A
C599   C604    1.417   .     A
C600   O665    1.295   .     A
C600   O658    1.297   .     A
C601   C607    1.397   .     A
C601   C605    1.411   .     A
C602   H627    1.078   .     S
C602   C604    1.394   .     A
C602   C610    1.405   .     A
C603   C605    1.404   .     A
C603   C612    1.406   .     A
C603   H637    1.075   .     S
C604   O654    1.381   .     S
C605   O653    1.375   .     S
C606   O652    1.385   .     S
C606   C608    1.399   .     A
C607   C609    1.402   .     A
C607   O651    1.373   .     S
C608   C613    1.416   .     A
C608   C610    1.416   .     A
C609   C614    1.410   .     A
C609   C612    1.403   .     A
C610   C1378   1.409   .     S
C611   C614    1.405   .     A
C611   H638    1.080   .     S
C611   C622    1.387   .     A
C612   C1379   1.405   1_554 S
C613   C621    1.415   .     A
C613   C1370   1.412   .     S
C614   C1369   1.412   1_554 S
C615   O648    1.399   .     S
C615   C622    1.469   .     S
C615   O670    1.222   .     D
C616   O649    1.222   .     D
C616   C623    1.476   .     S
C616   O734    1.398   .     S
C617   O655    1.223   .     D
C617   C626    1.488   .     S
C617   O656    1.399   .     S
C618   O659    1.400   .     S
C618   O657    1.214   .     D
C619   O661    1.397   .     S
C619   O660    1.217   .     D
C620   O663    1.393   .     S
C620   O662    1.223   .     D
C621   H639    1.080   .     S
C621   C623    1.401   .     A
C622   C1366   1.409   1_554 S
C623   C1368   1.405   .     S
C624   H640    1.085   .     S
C624   C122    1.380   1_565 S
C625   H641    1.086   .     S
H628   O650    1.012   .     S
H629   O651    0.993   .     S
H630   O652    0.991   .     S
H631   O653    0.990   .     S
H632   O654    0.988   .     S
H633   O656    1.014   .     S
H634   O659    1.014   .     S
H635   O661    1.014   .     S
H636   O663    1.014   .     S
H644   O732    1.009   .     S
N645   Zn671   2.043   .     S
N646   Zn672   2.043   .     S
O647   Zn671   2.017   .     S
O658   Zn672   2.017   .     S
O664   Zn672   1.992   .     S
O665   Zn671   1.992   .     S
O666   Zn671   1.947   .     S
O667   Zn672   1.947   .     S
O668   Zn672   1.925   .     S
O669   Zn671   1.925   .     S
C673   O731    1.293   .     A
C673   O748    1.305   .     A
C673   C676    1.432   .     S
C674   C676    1.421   .     A
C674   C702    1.494   .     S
C674   C205    1.373   1_565 S
C675   C684    1.421   .     S
C675   C710    1.405   .     A
C675   C709    1.392   .     A
C676   C708    1.404   .     A
C677   N730    1.387   .     A
C677   C703    1.469   .     S
C677   C511    1.424   1_655 S
C678   C704    1.478   .     S
C678   N729    1.390   .     A
C679   H726    1.083   .     S
C679   N729    1.358   .     A
C680   N730    1.358   .     A
C680   H727    1.083   .     S
C680   C510    1.426   1_655 S
C681   O752    1.302   .     A
C681   C683    1.457   .     S
C681   O750    1.305   .     A
C682   C685    1.473   .     S
C682   O751    1.308   .     A
C682   O753    1.308   .     A
C683   C690    1.411   .     A
C683   C688    1.417   .     A
C684   O749    1.295   .     A
C684   O742    1.297   .     A
C685   C691    1.397   .     A
C685   C689    1.411   .     A
C686   H711    1.078   .     S
C686   C688    1.394   .     A
C686   C694    1.405   .     A
C687   C689    1.404   .     A
C687   C696    1.406   .     A
C687   H721    1.075   .     S
C688   O738    1.381   .     S
C689   O737    1.375   .     S
C690   O736    1.385   .     S
C690   C692    1.399   .     A
C691   C693    1.402   .     A
C691   O735    1.373   .     S
C692   C697    1.416   .     A
C692   C694    1.416   .     A
C693   C698    1.410   .     A
C693   C696    1.403   .     A
C694   C1462   1.409   .     S
C695   C698    1.405   .     A
C695   H722    1.080   .     S
C695   C706    1.387   .     A
C696   C1463   1.405   1_554 S
C697   C705    1.415   .     A
C697   C1454   1.412   .     S
C698   C1453   1.412   1_554 S
C699   O732    1.399   .     S
C699   C706    1.469   .     S
C699   O754    1.222   .     D
C700   O733    1.222   .     D
C700   C707    1.476   .     S
C700   O566    1.398   1_655 S
C701   O739    1.223   .     D
C701   C710    1.488   .     S
C701   O740    1.399   .     S
C702   O743    1.400   .     S
C702   O741    1.214   .     D
C703   O745    1.397   .     S
C703   O744    1.217   .     D
C704   O747    1.393   .     S
C704   O746    1.223   .     D
C705   H723    1.080   .     S
C705   C707    1.401   .     A
C706   C1450   1.409   1_554 S
C707   C1452   1.405   .     S
C708   H724    1.085   .     S
C708   C206    1.380   1_565 S
C709   H725    1.086   .     S
H712   O734    1.012   .     S
H713   O735    0.993   .     S
H714   O736    0.991   .     S
H715   O737    0.990   .     S
H716   O738    0.988   .     S
H717   O740    1.014   .     S
H718   O743    1.014   .     S
H719   O745    1.014   .     S
H720   O747    1.014   .     S
H728   O564    1.009   1_655 S
N729   Zn755   2.043   .     S
N730   Zn756   2.043   .     S
O731   Zn755   2.017   .     S
O742   Zn756   2.017   .     S
O748   Zn756   1.992   .     S
O749   Zn755   1.992   .     S
O750   Zn755   1.947   .     S
O751   Zn756   1.947   .     S
O752   Zn756   1.925   .     S
O753   Zn755   1.925   .     S
C757   O815    1.293   .     A
C757   O832    1.305   .     A
C757   C760    1.432   .     S
C758   C760    1.421   .     A
C758   C786    1.494   .     S
C758   C1045   1.373   .     S
C759   C768    1.421   .     S
C759   C794    1.405   .     A
C759   C793    1.392   .     A
C760   C792    1.404   .     A
C761   N814    1.387   .     A
C761   C787    1.469   .     S
C761   C847    1.424   .     S
C762   C788    1.478   .     S
C762   N813    1.390   .     A
C762   C932    1.426   1_455 S
C763   H810    1.083   .     S
C763   N813    1.358   .     A
C763   C929    1.424   1_455 S
C764   N814    1.358   .     A
C764   H811    1.083   .     S
C764   C846    1.426   .     S
C765   O836    1.302   .     A
C765   C767    1.457   .     S
C765   O834    1.305   .     A
C766   C769    1.473   .     S
C766   O835    1.308   .     A
C766   O837    1.308   .     A
C767   C774    1.411   .     A
C767   C772    1.417   .     A
C768   O833    1.295   .     A
C768   O826    1.297   .     A
C769   C775    1.397   .     A
C769   C773    1.411   .     A
C770   H795    1.078   .     S
C770   C772    1.394   .     A
C770   C778    1.405   .     A
C771   C773    1.404   .     A
C771   C780    1.406   .     A
C771   H805    1.075   .     S
C772   O822    1.381   .     S
C773   O821    1.375   .     S
C774   O820    1.385   .     S
C774   C776    1.399   .     A
C775   C777    1.402   .     A
C775   O819    1.373   .     S
C776   C781    1.416   .     A
C776   C778    1.416   .     A
C777   C782    1.410   .     A
C777   C780    1.403   .     A
C778   C34     1.409   1_556 S
C779   C782    1.405   .     A
C779   H806    1.080   .     S
C779   C790    1.387   .     A
C781   C789    1.415   .     A
C781   C26     1.412   1_556 S
C783   O816    1.399   .     S
C783   C790    1.469   .     S
C783   O838    1.222   .     D
C784   O817    1.222   .     D
C784   C791    1.476   .     S
C784   O902    1.398   .     S
C785   O823    1.223   .     D
C785   C794    1.488   .     S
C785   O824    1.399   .     S
C786   O827    1.400   .     S
C786   O825    1.214   .     D
C787   O829    1.397   .     S
C787   O828    1.217   .     D
C788   O831    1.393   .     S
C788   O830    1.223   .     D
C789   H807    1.080   .     S
C789   C791    1.401   .     A
C791   C24     1.405   1_556 S
C792   H808    1.085   .     S
C792   C1046   1.380   .     S
C793   H809    1.086   .     S
C793   C1262   1.373   1_545 S
C794   C1296   1.380   1_545 S
H796   O818    1.012   .     S
H797   O819    0.993   .     S
H798   O820    0.991   .     S
H799   O821    0.990   .     S
H800   O822    0.988   .     S
H801   O824    1.014   .     S
H802   O827    1.014   .     S
H803   O829    1.014   .     S
H804   O831    1.014   .     S
H812   O900    1.009   .     S
N813   Zn839   2.043   .     S
N814   Zn840   2.043   .     S
O815   Zn839   2.017   .     S
O816   H980    1.009   1_455 S
O818   C952    1.398   1_455 S
O826   Zn840   2.017   .     S
O832   Zn840   1.992   .     S
O833   Zn839   1.992   .     S
O834   Zn839   1.947   .     S
O835   Zn840   1.947   .     S
O836   Zn840   1.925   .     S
O837   Zn839   1.925   .     S
C841   O899    1.293   .     A
C841   O916    1.305   .     A
C841   C844    1.432   .     S
C842   C844    1.421   .     A
C842   C870    1.494   .     S
C842   C1129   1.373   .     S
C843   C852    1.421   .     S
C843   C878    1.405   .     A
C843   C877    1.392   .     A
C844   C876    1.404   .     A
C845   N898    1.387   .     A
C845   C871    1.469   .     S
C845   C931    1.424   .     S
C846   C872    1.478   .     S
C846   N897    1.390   .     A
C847   H894    1.083   .     S
C847   N897    1.358   .     A
C848   N898    1.358   .     A
C848   H895    1.083   .     S
C848   C930    1.426   .     S
C849   O920    1.302   .     A
C849   C851    1.457   .     S
C849   O918    1.305   .     A
C850   C853    1.473   .     S
C850   O919    1.308   .     A
C850   O921    1.308   .     A
C851   C858    1.411   .     A
C851   C856    1.417   .     A
C852   O917    1.295   .     A
C852   O910    1.297   .     A
C853   C859    1.397   .     A
C853   C857    1.411   .     A
C854   H879    1.078   .     S
C854   C856    1.394   .     A
C854   C862    1.405   .     A
C855   C857    1.404   .     A
C855   C864    1.406   .     A
C855   H889    1.075   .     S
C856   O906    1.381   .     S
C857   O905    1.375   .     S
C858   O904    1.385   .     S
C858   C860    1.399   .     A
C859   C861    1.402   .     A
C859   O903    1.373   .     S
C860   C865    1.416   .     A
C860   C862    1.416   .     A
C861   C866    1.410   .     A
C861   C864    1.403   .     A
C862   C118    1.409   1_556 S
C863   C866    1.405   .     A
C863   H890    1.080   .     S
C863   C874    1.387   .     A
C865   C873    1.415   .     A
C865   C110    1.412   1_556 S
C867   O900    1.399   .     S
C867   C874    1.469   .     S
C867   O922    1.222   .     D
C868   O901    1.222   .     D
C868   C875    1.476   .     S
C868   O986    1.398   .     S
C869   O907    1.223   .     D
C869   C878    1.488   .     S
C869   O908    1.399   .     S
C870   O911    1.400   .     S
C870   O909    1.214   .     D
C871   O913    1.397   .     S
C871   O912    1.217   .     D
C872   O915    1.393   .     S
C872   O914    1.223   .     D
C873   H891    1.080   .     S
C873   C875    1.401   .     A
C875   C108    1.405   1_556 S
C876   H892    1.085   .     S
C876   C1130   1.380   .     S
C877   H893    1.086   .     S
C877   C1346   1.373   1_545 S
C878   C1380   1.380   1_545 S
H880   O902    1.012   .     S
H881   O903    0.993   .     S
H882   O904    0.991   .     S
H883   O905    0.990   .     S
H884   O906    0.988   .     S
H885   O908    1.014   .     S
H886   O911    1.014   .     S
H887   O913    1.014   .     S
H888   O915    1.014   .     S
H896   O984    1.009   .     S
N897   Zn923   2.043   .     S
N898   Zn924   2.043   .     S
O899   Zn923   2.017   .     S
O910   Zn924   2.017   .     S
O916   Zn924   1.992   .     S
O917   Zn923   1.992   .     S
O918   Zn923   1.947   .     S
O919   Zn924   1.947   .     S
O920   Zn924   1.925   .     S
O921   Zn923   1.925   .     S
C925   O983    1.293   .     A
C925   O1000   1.305   .     A
C925   C928    1.432   .     S
C926   C928    1.421   .     A
C926   C954    1.494   .     S
C926   C1213   1.373   .     S
C927   C936    1.421   .     S
C927   C962    1.405   .     A
C927   C961    1.392   .     A
C928   C960    1.404   .     A
C929   N982    1.387   .     A
C929   C955    1.469   .     S
C929   C763    1.424   1_655 S
C930   C956    1.478   .     S
C930   N981    1.390   .     A
C931   H978    1.083   .     S
C931   N981    1.358   .     A
C932   N982    1.358   .     A
C932   H979    1.083   .     S
C932   C762    1.426   1_655 S
C933   O1004   1.302   .     A
C933   C935    1.457   .     S
C933   O1002   1.305   .     A
C934   C937    1.473   .     S
C934   O1003   1.308   .     A
C934   O1005   1.308   .     A
C935   C942    1.411   .     A
C935   C940    1.417   .     A
C936   O1001   1.295   .     A
C936   O994    1.297   .     A
C937   C943    1.397   .     A
C937   C941    1.411   .     A
C938   H963    1.078   .     S
C938   C940    1.394   .     A
C938   C946    1.405   .     A
C939   C941    1.404   .     A
C939   C948    1.406   .     A
C939   H973    1.075   .     S
C940   O990    1.381   .     S
C941   O989    1.375   .     S
C942   O988    1.385   .     S
C942   C944    1.399   .     A
C943   C945    1.402   .     A
C943   O987    1.373   .     S
C944   C949    1.416   .     A
C944   C946    1.416   .     A
C945   C950    1.410   .     A
C945   C948    1.403   .     A
C946   C202    1.409   1_556 S
C947   C950    1.405   .     A
C947   H974    1.080   .     S
C947   C958    1.387   .     A
C949   C957    1.415   .     A
C949   C194    1.412   1_556 S
C951   O984    1.399   .     S
C951   C958    1.469   .     S
C951   O1006   1.222   .     D
C952   O985    1.222   .     D
C952   C959    1.476   .     S
C952   O818    1.398   1_655 S
C953   O991    1.223   .     D
C953   C962    1.488   .     S
C953   O992    1.399   .     S
C954   O995    1.400   .     S
C954   O993    1.214   .     D
C955   O997    1.397   .     S
C955   O996    1.217   .     D
C956   O999    1.393   .     S
C956   O998    1.223   .     D
C957   H975    1.080   .     S
C957   C959    1.401   .     A
C959   C192    1.405   1_556 S
C960   H976    1.085   .     S
C960   C1214   1.380   .     S
C961   H977    1.086   .     S
C961   C1430   1.373   1_545 S
C962   C1464   1.380   1_545 S
H964   O986    1.012   .     S
H965   O987    0.993   .     S
H966   O988    0.991   .     S
H967   O989    0.990   .     S
H968   O990    0.988   .     S
H969   O992    1.014   .     S
H970   O995    1.014   .     S
H971   O997    1.014   .     S
H972   O999    1.014   .     S
H980   O816    1.009   1_655 S
N981   Zn1007  2.043   .     S
N982   Zn1008  2.043   .     S
O983   Zn1007  2.017   .     S
O994   Zn1008  2.017   .     S
O1000  Zn1008  1.992   .     S
O1001  Zn1007  1.992   .     S
O1002  Zn1007  1.947   .     S
O1003  Zn1008  1.947   .     S
O1004  Zn1008  1.925   .     S
O1005  Zn1007  1.925   .     S
C1009  O1067   1.293   .     A
C1009  O1084   1.305   .     A
C1009  C1012   1.432   .     S
C1010  C1012   1.421   .     A
C1010  C1038   1.494   .     S
C1010  C1297   1.373   .     S
C1011  C1020   1.421   .     S
C1011  C1046   1.405   .     A
C1011  C1045   1.392   .     A
C1012  C1044   1.404   .     A
C1013  N1066   1.387   .     A
C1013  C1039   1.469   .     S
C1013  C1099   1.424   .     S
C1014  C1040   1.478   .     S
C1014  N1065   1.390   .     A
C1014  C1184   1.426   1_455 S
C1015  H1062   1.083   .     S
C1015  N1065   1.358   .     A
C1015  C1181   1.424   1_455 S
C1016  N1066   1.358   .     A
C1016  H1063   1.083   .     S
C1016  C1098   1.426   .     S
C1017  O1088   1.302   .     A
C1017  C1019   1.457   .     S
C1017  O1086   1.305   .     A
C1018  C1021   1.473   .     S
C1018  O1087   1.308   .     A
C1018  O1089   1.308   .     A
C1019  C1026   1.411   .     A
C1019  C1024   1.417   .     A
C1020  O1085   1.295   .     A
C1020  O1078   1.297   .     A
C1021  C1027   1.397   .     A
C1021  C1025   1.411   .     A
C1022  H1047   1.078   .     S
C1022  C1024   1.394   .     A
C1022  C1030   1.405   .     A
C1023  C1025   1.404   .     A
C1023  C1032   1.406   .     A
C1023  H1057   1.075   .     S
C1024  O1074   1.381   .     S
C1025  O1073   1.375   .     S
C1026  O1072   1.385   .     S
C1026  C1028   1.399   .     A
C1027  C1029   1.402   .     A
C1027  O1071   1.373   .     S
C1028  C1033   1.416   .     A
C1028  C1030   1.416   .     A
C1029  C1034   1.410   .     A
C1029  C1032   1.403   .     A
C1030  C286    1.409   1_556 S
C1031  C1034   1.405   .     A
C1031  H1058   1.080   .     S
C1031  C1042   1.387   .     A
C1033  C1041   1.415   .     A
C1033  C278    1.412   1_556 S
C1035  O1068   1.399   .     S
C1035  C1042   1.469   .     S
C1035  O1090   1.222   .     D
C1036  O1069   1.222   .     D
C1036  C1043   1.476   .     S
C1036  O1154   1.398   .     S
C1037  O1075   1.223   .     D
C1037  C1046   1.488   .     S
C1037  O1076   1.399   .     S
C1038  O1079   1.400   .     S
C1038  O1077   1.214   .     D
C1039  O1081   1.397   .     S
C1039  O1080   1.217   .     D
C1040  O1083   1.393   .     S
C1040  O1082   1.223   .     D
C1041  H1059   1.080   .     S
C1041  C1043   1.401   .     A
C1043  C276    1.405   1_556 S
C1044  H1060   1.085   .     S
C1044  C1298   1.380   .     S
C1045  H1061   1.086   .     S
H1048  O1070   1.012   .     S
H1049  O1071   0.993   .     S
H1050  O1072   0.991   .     S
H1051  O1073   0.990   .     S
H1052  O1074   0.988   .     S
H1053  O1076   1.014   .     S
H1054  O1079   1.014   .     S
H1055  O1081   1.014   .     S
H1056  O1083   1.014   .     S
H1064  O1152   1.009   .     S
N1065  Zn1091  2.043   .     S
N1066  Zn1092  2.043   .     S
O1067  Zn1091  2.017   .     S
O1068  H1232   1.009   1_455 S
O1070  C1204   1.398   1_455 S
O1078  Zn1092  2.017   .     S
O1084  Zn1092  1.992   .     S
O1085  Zn1091  1.992   .     S
O1086  Zn1091  1.947   .     S
O1087  Zn1092  1.947   .     S
O1088  Zn1092  1.925   .     S
O1089  Zn1091  1.925   .     S
C1093  O1151   1.293   .     A
C1093  O1168   1.305   .     A
C1093  C1096   1.432   .     S
C1094  C1096   1.421   .     A
C1094  C1122   1.494   .     S
C1094  C1381   1.373   .     S
C1095  C1104   1.421   .     S
C1095  C1130   1.405   .     A
C1095  C1129   1.392   .     A
C1096  C1128   1.404   .     A
C1097  N1150   1.387   .     A
C1097  C1123   1.469   .     S
C1097  C1183   1.424   .     S
C1098  C1124   1.478   .     S
C1098  N1149   1.390   .     A
C1099  H1146   1.083   .     S
C1099  N1149   1.358   .     A
C1100  N1150   1.358   .     A
C1100  H1147   1.083   .     S
C1100  C1182   1.426   .     S
C1101  O1172   1.302   .     A
C1101  C1103   1.457   .     S
C1101  O1170   1.305   .     A
C1102  C1105   1.473   .     S
C1102  O1171   1.308   .     A
C1102  O1173   1.308   .     A
C1103  C1110   1.411   .     A
C1103  C1108   1.417   .     A
C1104  O1169   1.295   .     A
C1104  O1162   1.297   .     A
C1105  C1111   1.397   .     A
C1105  C1109   1.411   .     A
C1106  H1131   1.078   .     S
C1106  C1108   1.394   .     A
C1106  C1114   1.405   .     A
C1107  C1109   1.404   .     A
C1107  C1116   1.406   .     A
C1107  H1141   1.075   .     S
C1108  O1158   1.381   .     S
C1109  O1157   1.375   .     S
C1110  O1156   1.385   .     S
C1110  C1112   1.399   .     A
C1111  C1113   1.402   .     A
C1111  O1155   1.373   .     S
C1112  C1117   1.416   .     A
C1112  C1114   1.416   .     A
C1113  C1118   1.410   .     A
C1113  C1116   1.403   .     A
C1114  C370    1.409   1_556 S
C1115  C1118   1.405   .     A
C1115  H1142   1.080   .     S
C1115  C1126   1.387   .     A
C1117  C1125   1.415   .     A
C1117  C362    1.412   1_556 S
C1119  O1152   1.399   .     S
C1119  C1126   1.469   .     S
C1119  O1174   1.222   .     D
C1120  O1153   1.222   .     D
C1120  C1127   1.476   .     S
C1120  O1238   1.398   .     S
C1121  O1159   1.223   .     D
C1121  C1130   1.488   .     S
C1121  O1160   1.399   .     S
C1122  O1163   1.400   .     S
C1122  O1161   1.214   .     D
C1123  O1165   1.397   .     S
C1123  O1164   1.217   .     D
C1124  O1167   1.393   .     S
C1124  O1166   1.223   .     D
C1125  H1143   1.080   .     S
C1125  C1127   1.401   .     A
C1127  C360    1.405   1_556 S
C1128  H1144   1.085   .     S
C1128  C1382   1.380   .     S
C1129  H1145   1.086   .     S
H1132  O1154   1.012   .     S
H1133  O1155   0.993   .     S
H1134  O1156   0.991   .     S
H1135  O1157   0.990   .     S
H1136  O1158   0.988   .     S
H1137  O1160   1.014   .     S
H1138  O1163   1.014   .     S
H1139  O1165   1.014   .     S
H1140  O1167   1.014   .     S
H1148  O1236   1.009   .     S
N1149  Zn1175  2.043   .     S
N1150  Zn1176  2.043   .     S
O1151  Zn1175  2.017   .     S
O1162  Zn1176  2.017   .     S
O1168  Zn1176  1.992   .     S
O1169  Zn1175  1.992   .     S
O1170  Zn1175  1.947   .     S
O1171  Zn1176  1.947   .     S
O1172  Zn1176  1.925   .     S
O1173  Zn1175  1.925   .     S
C1177  O1235   1.293   .     A
C1177  O1252   1.305   .     A
C1177  C1180   1.432   .     S
C1178  C1180   1.421   .     A
C1178  C1206   1.494   .     S
C1178  C1465   1.373   .     S
C1179  C1188   1.421   .     S
C1179  C1214   1.405   .     A
C1179  C1213   1.392   .     A
C1180  C1212   1.404   .     A
C1181  N1234   1.387   .     A
C1181  C1207   1.469   .     S
C1181  C1015   1.424   1_655 S
C1182  C1208   1.478   .     S
C1182  N1233   1.390   .     A
C1183  H1230   1.083   .     S
C1183  N1233   1.358   .     A
C1184  N1234   1.358   .     A
C1184  H1231   1.083   .     S
C1184  C1014   1.426   1_655 S
C1185  O1256   1.302   .     A
C1185  C1187   1.457   .     S
C1185  O1254   1.305   .     A
C1186  C1189   1.473   .     S
C1186  O1255   1.308   .     A
C1186  O1257   1.308   .     A
C1187  C1194   1.411   .     A
C1187  C1192   1.417   .     A
C1188  O1253   1.295   .     A
C1188  O1246   1.297   .     A
C1189  C1195   1.397   .     A
C1189  C1193   1.411   .     A
C1190  H1215   1.078   .     S
C1190  C1192   1.394   .     A
C1190  C1198   1.405   .     A
C1191  C1193   1.404   .     A
C1191  C1200   1.406   .     A
C1191  H1225   1.075   .     S
C1192  O1242   1.381   .     S
C1193  O1241   1.375   .     S
C1194  O1240   1.385   .     S
C1194  C1196   1.399   .     A
C1195  C1197   1.402   .     A
C1195  O1239   1.373   .     S
C1196  C1201   1.416   .     A
C1196  C1198   1.416   .     A
C1197  C1202   1.410   .     A
C1197  C1200   1.403   .     A
C1198  C454    1.409   1_556 S
C1199  C1202   1.405   .     A
C1199  H1226   1.080   .     S
C1199  C1210   1.387   .     A
C1201  C1209   1.415   .     A
C1201  C446    1.412   1_556 S
C1203  O1236   1.399   .     S
C1203  C1210   1.469   .     S
C1203  O1258   1.222   .     D
C1204  O1237   1.222   .     D
C1204  C1211   1.476   .     S
C1204  O1070   1.398   1_655 S
C1205  O1243   1.223   .     D
C1205  C1214   1.488   .     S
C1205  O1244   1.399   .     S
C1206  O1247   1.400   .     S
C1206  O1245   1.214   .     D
C1207  O1249   1.397   .     S
C1207  O1248   1.217   .     D
C1208  O1251   1.393   .     S
C1208  O1250   1.223   .     D
C1209  H1227   1.080   .     S
C1209  C1211   1.401   .     A
C1211  C444    1.405   1_556 S
C1212  H1228   1.085   .     S
C1212  C1466   1.380   .     S
C1213  H1229   1.086   .     S
H1216  O1238   1.012   .     S
H1217  O1239   0.993   .     S
H1218  O1240   0.991   .     S
H1219  O1241   0.990   .     S
H1220  O1242   0.988   .     S
H1221  O1244   1.014   .     S
H1222  O1247   1.014   .     S
H1223  O1249   1.014   .     S
H1224  O1251   1.014   .     S
H1232  O1068   1.009   1_655 S
N1233  Zn1259  2.043   .     S
N1234  Zn1260  2.043   .     S
O1235  Zn1259  2.017   .     S
O1246  Zn1260  2.017   .     S
O1252  Zn1260  1.992   .     S
O1253  Zn1259  1.992   .     S
O1254  Zn1259  1.947   .     S
O1255  Zn1260  1.947   .     S
O1256  Zn1260  1.925   .     S
O1257  Zn1259  1.925   .     S
C1261  O1319   1.293   .     A
C1261  O1336   1.305   .     A
C1261  C1264   1.432   .     S
C1262  C1264   1.421   .     A
C1262  C1290   1.494   .     S
C1262  C793    1.373   1_565 S
C1263  C1272   1.421   .     S
C1263  C1298   1.405   .     A
C1263  C1297   1.392   .     A
C1264  C1296   1.404   .     A
C1265  N1318   1.387   .     A
C1265  C1291   1.469   .     S
C1265  C1351   1.424   .     S
C1266  C1292   1.478   .     S
C1266  N1317   1.390   .     A
C1266  C1436   1.426   1_455 S
C1267  H1314   1.083   .     S
C1267  N1317   1.358   .     A
C1267  C1433   1.424   1_455 S
C1268  N1318   1.358   .     A
C1268  H1315   1.083   .     S
C1268  C1350   1.426   .     S
C1269  O1340   1.302   .     A
C1269  C1271   1.457   .     S
C1269  O1338   1.305   .     A
C1270  C1273   1.473   .     S
C1270  O1339   1.308   .     A
C1270  O1341   1.308   .     A
C1271  C1278   1.411   .     A
C1271  C1276   1.417   .     A
C1272  O1337   1.295   .     A
C1272  O1330   1.297   .     A
C1273  C1279   1.397   .     A
C1273  C1277   1.411   .     A
C1274  H1299   1.078   .     S
C1274  C1276   1.394   .     A
C1274  C1282   1.405   .     A
C1275  C1277   1.404   .     A
C1275  C1284   1.406   .     A
C1275  H1309   1.075   .     S
C1276  O1326   1.381   .     S
C1277  O1325   1.375   .     S
C1278  O1324   1.385   .     S
C1278  C1280   1.399   .     A
C1279  C1281   1.402   .     A
C1279  O1323   1.373   .     S
C1280  C1285   1.416   .     A
C1280  C1282   1.416   .     A
C1281  C1286   1.410   .     A
C1281  C1284   1.403   .     A
C1282  C538    1.409   1_556 S
C1283  C1286   1.405   .     A
C1283  H1310   1.080   .     S
C1283  C1294   1.387   .     A
C1285  C1293   1.415   .     A
C1285  C530    1.412   1_556 S
C1287  O1320   1.399   .     S
C1287  C1294   1.469   .     S
C1287  O1342   1.222   .     D
C1288  O1321   1.222   .     D
C1288  C1295   1.476   .     S
C1288  O1406   1.398   .     S
C1289  O1327   1.223   .     D
C1289  C1298   1.488   .     S
C1289  O1328   1.399   .     S
C1290  O1331   1.400   .     S
C1290  O1329   1.214   .     D
C1291  O1333   1.397   .     S
C1291  O1332   1.217   .     D
C1292  O1335   1.393   .     S
C1292  O1334   1.223   .     D
C1293  H1311   1.080   .     S
C1293  C1295   1.401   .     A
C1295  C528    1.405   1_556 S
C1296  H1312   1.085   .     S
C1296  C794    1.380   1_565 S
C1297  H1313   1.086   .     S
H1300  O1322   1.012   .     S
H1301  O1323   0.993   .     S
H1302  O1324   0.991   .     S
H1303  O1325   0.990   .     S
H1304  O1326   0.988   .     S
H1305  O1328   1.014   .     S
H1306  O1331   1.014   .     S
H1307  O1333   1.014   .     S
H1308  O1335   1.014   .     S
H1316  O1404   1.009   .     S
N1317  Zn1343  2.043   .     S
N1318  Zn1344  2.043   .     S
O1319  Zn1343  2.017   .     S
O1320  H1484   1.009   1_455 S
O1322  C1456   1.398   1_455 S
O1330  Zn1344  2.017   .     S
O1336  Zn1344  1.992   .     S
O1337  Zn1343  1.992   .     S
O1338  Zn1343  1.947   .     S
O1339  Zn1344  1.947   .     S
O1340  Zn1344  1.925   .     S
O1341  Zn1343  1.925   .     S
C1345  O1403   1.293   .     A
C1345  O1420   1.305   .     A
C1345  C1348   1.432   .     S
C1346  C1348   1.421   .     A
C1346  C1374   1.494   .     S
C1346  C877    1.373   1_565 S
C1347  C1356   1.421   .     S
C1347  C1382   1.405   .     A
C1347  C1381   1.392   .     A
C1348  C1380   1.404   .     A
C1349  N1402   1.387   .     A
C1349  C1375   1.469   .     S
C1349  C1435   1.424   .     S
C1350  C1376   1.478   .     S
C1350  N1401   1.390   .     A
C1351  H1398   1.083   .     S
C1351  N1401   1.358   .     A
C1352  N1402   1.358   .     A
C1352  H1399   1.083   .     S
C1352  C1434   1.426   .     S
C1353  O1424   1.302   .     A
C1353  C1355   1.457   .     S
C1353  O1422   1.305   .     A
C1354  C1357   1.473   .     S
C1354  O1423   1.308   .     A
C1354  O1425   1.308   .     A
C1355  C1362   1.411   .     A
C1355  C1360   1.417   .     A
C1356  O1421   1.295   .     A
C1356  O1414   1.297   .     A
C1357  C1363   1.397   .     A
C1357  C1361   1.411   .     A
C1358  H1383   1.078   .     S
C1358  C1360   1.394   .     A
C1358  C1366   1.405   .     A
C1359  C1361   1.404   .     A
C1359  C1368   1.406   .     A
C1359  H1393   1.075   .     S
C1360  O1410   1.381   .     S
C1361  O1409   1.375   .     S
C1362  O1408   1.385   .     S
C1362  C1364   1.399   .     A
C1363  C1365   1.402   .     A
C1363  O1407   1.373   .     S
C1364  C1369   1.416   .     A
C1364  C1366   1.416   .     A
C1365  C1370   1.410   .     A
C1365  C1368   1.403   .     A
C1366  C622    1.409   1_556 S
C1367  C1370   1.405   .     A
C1367  H1394   1.080   .     S
C1367  C1378   1.387   .     A
C1369  C1377   1.415   .     A
C1369  C614    1.412   1_556 S
C1371  O1404   1.399   .     S
C1371  C1378   1.469   .     S
C1371  O1426   1.222   .     D
C1372  O1405   1.222   .     D
C1372  C1379   1.476   .     S
C1372  O1490   1.398   .     S
C1373  O1411   1.223   .     D
C1373  C1382   1.488   .     S
C1373  O1412   1.399   .     S
C1374  O1415   1.400   .     S
C1374  O1413   1.214   .     D
C1375  O1417   1.397   .     S
C1375  O1416   1.217   .     D
C1376  O1419   1.393   .     S
C1376  O1418   1.223   .     D
C1377  H1395   1.080   .     S
C1377  C1379   1.401   .     A
C1379  C612    1.405   1_556 S
C1380  H1396   1.085   .     S
C1380  C878    1.380   1_565 S
C1381  H1397   1.086   .     S
H1384  O1406   1.012   .     S
H1385  O1407   0.993   .     S
H1386  O1408   0.991   .     S
H1387  O1409   0.990   .     S
H1388  O1410   0.988   .     S
H1389  O1412   1.014   .     S
H1390  O1415   1.014   .     S
H1391  O1417   1.014   .     S
H1392  O1419   1.014   .     S
H1400  O1488   1.009   .     S
N1401  Zn1427  2.043   .     S
N1402  Zn1428  2.043   .     S
O1403  Zn1427  2.017   .     S
O1414  Zn1428  2.017   .     S
O1420  Zn1428  1.992   .     S
O1421  Zn1427  1.992   .     S
O1422  Zn1427  1.947   .     S
O1423  Zn1428  1.947   .     S
O1424  Zn1428  1.925   .     S
O1425  Zn1427  1.925   .     S
C1429  O1487   1.293   .     A
C1429  O1504   1.305   .     A
C1429  C1432   1.432   .     S
C1430  C1432   1.421   .     A
C1430  C1458   1.494   .     S
C1430  C961    1.373   1_565 S
C1431  C1440   1.421   .     S
C1431  C1466   1.405   .     A
C1431  C1465   1.392   .     A
C1432  C1464   1.404   .     A
C1433  N1486   1.387   .     A
C1433  C1459   1.469   .     S
C1433  C1267   1.424   1_655 S
C1434  C1460   1.478   .     S
C1434  N1485   1.390   .     A
C1435  H1482   1.083   .     S
C1435  N1485   1.358   .     A
C1436  N1486   1.358   .     A
C1436  H1483   1.083   .     S
C1436  C1266   1.426   1_655 S
C1437  O1508   1.302   .     A
C1437  C1439   1.457   .     S
C1437  O1506   1.305   .     A
C1438  C1441   1.473   .     S
C1438  O1507   1.308   .     A
C1438  O1509   1.308   .     A
C1439  C1446   1.411   .     A
C1439  C1444   1.417   .     A
C1440  O1505   1.295   .     A
C1440  O1498   1.297   .     A
C1441  C1447   1.397   .     A
C1441  C1445   1.411   .     A
C1442  H1467   1.078   .     S
C1442  C1444   1.394   .     A
C1442  C1450   1.405   .     A
C1443  C1445   1.404   .     A
C1443  C1452   1.406   .     A
C1443  H1477   1.075   .     S
C1444  O1494   1.381   .     S
C1445  O1493   1.375   .     S
C1446  O1492   1.385   .     S
C1446  C1448   1.399   .     A
C1447  C1449   1.402   .     A
C1447  O1491   1.373   .     S
C1448  C1453   1.416   .     A
C1448  C1450   1.416   .     A
C1449  C1454   1.410   .     A
C1449  C1452   1.403   .     A
C1450  C706    1.409   1_556 S
C1451  C1454   1.405   .     A
C1451  H1478   1.080   .     S
C1451  C1462   1.387   .     A
C1453  C1461   1.415   .     A
C1453  C698    1.412   1_556 S
C1455  O1488   1.399   .     S
C1455  C1462   1.469   .     S
C1455  O1510   1.222   .     D
C1456  O1489   1.222   .     D
C1456  C1463   1.476   .     S
C1456  O1322   1.398   1_655 S
C1457  O1495   1.223   .     D
C1457  C1466   1.488   .     S
C1457  O1496   1.399   .     S
C1458  O1499   1.400   .     S
C1458  O1497   1.214   .     D
C1459  O1501   1.397   .     S
C1459  O1500   1.217   .     D
C1460  O1503   1.393   .     S
C1460  O1502   1.223   .     D
C1461  H1479   1.080   .     S
C1461  C1463   1.401   .     A
C1463  C696    1.405   1_556 S
C1464  H1480   1.085   .     S
C1464  C962    1.380   1_565 S
C1465  H1481   1.086   .     S
H1468  O1490   1.012   .     S
H1469  O1491   0.993   .     S
H1470  O1492   0.991   .     S
H1471  O1493   0.990   .     S
H1472  O1494   0.988   .     S
H1473  O1496   1.014   .     S
H1474  O1499   1.014   .     S
H1475  O1501   1.014   .     S
H1476  O1503   1.014   .     S
H1484  O1320   1.009   1_655 S
N1485  Zn1511  2.043   .     S
N1486  Zn1512  2.043   .     S
O1487  Zn1511  2.017   .     S
O1498  Zn1512  2.017   .     S
O1504  Zn1512  1.992   .     S
O1505  Zn1511  1.992   .     S
O1506  Zn1511  1.947   .     S
O1507  Zn1512  1.947   .     S
O1508  Zn1512  1.925   .     S
O1509  Zn1511  1.925   .     S
