data_str_m3_o1_o18_pcu_sym.150
_audit_creation_date              2020-01-03
_audit_creation_method            'Materials Studio'
_symmetry_space_group_name_H-M    'P1'
_symmetry_Int_Tables_number       1
_symmetry_cell_setting            triclinic
loop_
_symmetry_equiv_pos_as_xyz
  x,y,z
_cell_length_a                    29.7636
_cell_length_b                    31.9556
_cell_length_c                    31.0101
_cell_angle_alpha                 90.8004
_cell_angle_beta                  67.2983
_cell_angle_gamma                 89.3240
loop_
_atom_site_label
_atom_site_type_symbol
_atom_site_fract_x
_atom_site_fract_y
_atom_site_fract_z
_atom_site_U_iso_or_equiv
_atom_site_adp_type
_atom_site_occupancy
C1     C     0.16677   0.24652   0.24932   0.00000  Uiso   1.00
C2     C     0.16655   0.08682   0.25071   0.00000  Uiso   1.00
C3     C     0.12019   0.12427   0.04457   0.00000  Uiso   1.00
C4     C     0.22727   0.16406   0.44559   0.00000  Uiso   1.00
C5     C     0.08648   0.11915   0.02405   0.00000  Uiso   1.00
C6     C     0.26116   0.16902   0.46585   0.00000  Uiso   1.00
C7     C     0.20821   0.31143   0.21874   0.00000  Uiso   1.00
C8     C     0.12512   0.02192   0.28137   0.00000  Uiso   1.00
C9     C     0.20770   0.02126   0.22072   0.00000  Uiso   1.00
C10    C     0.12561   0.31208   0.27936   0.00000  Uiso   1.00
C11    C     0.16647   0.04266   0.25149   0.00000  Uiso   1.00
C12    C     0.16684   0.29069   0.24858   0.00000  Uiso   1.00
C13    C     0.32322   0.14329   0.21752   0.00000  Uiso   1.00
C14    C     0.01006   0.18982   0.28269   0.00000  Uiso   1.00
C15    C     0.03767   0.14253   0.21834   0.00000  Uiso   1.00
C16    C     0.29556   0.19053   0.28193   0.00000  Uiso   1.00
C17    C     0.13608   0.16645   0.33801   0.00000  Uiso   1.00
C18    C     0.19730   0.16606   0.16195   0.00000  Uiso   1.00
C19    C     0.11764   0.16070   0.38839   0.00000  Uiso   1.00
C20    C     0.21675   0.16338   0.11096   0.00000  Uiso   1.00
C21    C     0.06229   0.12859   0.45852   0.00000  Uiso   1.00
C22    C     0.27989   0.17457   0.03501   0.00000  Uiso   1.00
C23    C     0.07319   0.14151   0.41283   0.00000  Uiso   1.00
C24    C     0.26472   0.17389   0.08350   0.00000  Uiso   1.00
C25    C     0.14990   0.16813   0.41020   0.00000  Uiso   1.00
C26    C     0.18514   0.15138   0.08973   0.00000  Uiso   1.00
C27    C     0.14220   0.15155   0.45374   0.00000  Uiso   1.00
C28    C     0.19937   0.15170   0.04130   0.00000  Uiso   1.00
C29    C     0.09667   0.13318   0.47904   0.00000  Uiso   1.00
C30    C     0.24718   0.16470   0.01383   0.00000  Uiso   1.00
C31    C     0.17852   0.15323   0.47271   0.00000  Uiso   1.00
C32    C     0.16590   0.14280   0.02006   0.00000  Uiso   1.00
H33    H     0.05208   0.10454   0.04373   0.00000  Uiso   1.00
H34    H     0.29792   0.17791   0.44414   0.00000  Uiso   1.00
H35    H     0.14830   0.14432   0.11195   0.00000  Uiso   1.00
H36    H     0.18177   0.18618   0.39181   0.00000  Uiso   1.00
H37    H     0.28972   0.18316   0.09947   0.00000  Uiso   1.00
H38    H     0.04793   0.13518   0.39618   0.00000  Uiso   1.00
H39    H     0.02783   0.11370   0.47719   0.00000  Uiso   1.00
H40    H     0.31649   0.18445   0.01424   0.00000  Uiso   1.00
H41    H     0.11008   0.11196   0.07917   0.00000  Uiso   1.00
H42    H     0.24065   0.16790   0.40824   0.00000  Uiso   1.00
H43    H     0.23875   0.03823   0.19753   0.00000  Uiso   1.00
H44    H     0.09455   0.29511   0.30253   0.00000  Uiso   1.00
N45    N     0.04759   0.16668   0.25001   0.00000  Uiso   1.00
N46    N     0.28574   0.16666   0.24999   0.00000  Uiso   1.00
O47    O     0.12846   0.22775   0.25001   0.00000  Uiso   1.00
O48    O     0.20488   0.10558   0.25000   0.00000  Uiso   1.00
O49    O     0.20490   0.22774   0.25000   0.00000  Uiso   1.00
O50    O     0.12843   0.10559   0.25000   0.00000  Uiso   1.00
O51    O     0.10661   0.16667   0.31613   0.00000  Uiso   1.00
O52    O     0.22672   0.16666   0.18388   0.00000  Uiso   1.00
O53    O     0.18305   0.16666   0.31612   0.00000  Uiso   1.00
O54    O     0.15028   0.16667   0.18388   0.00000  Uiso   1.00
Zn55   Zn    0.11562   0.16667   0.25000   0.00000  Uiso   1.00
Zn56   Zn    0.21771   0.16666   0.25000   0.00000  Uiso   1.00
N57    N     0.24972   0.28856   0.18627   0.00000  Uiso   1.00
H58    H     0.23898   0.27439   0.16126   0.00000  Uiso   1.00
H59    H     0.27774   0.30892   0.16829   0.00000  Uiso   1.00
N60    N     0.08367   0.04480   0.31392   0.00000  Uiso   1.00
H61    H     0.09449   0.05896   0.33888   0.00000  Uiso   1.00
H62    H     0.05567   0.02445   0.33195   0.00000  Uiso   1.00
N63    N     0.31563   0.12078   0.18083   0.00000  Uiso   1.00
H64    H     0.30901   0.14224   0.15889   0.00000  Uiso   1.00
H65    H     0.28633   0.10097   0.19500   0.00000  Uiso   1.00
N66    N     0.01760   0.21194   0.31964   0.00000  Uiso   1.00
H67    H     0.04710   0.23160   0.30572   0.00000  Uiso   1.00
H68    H     0.02393   0.19021   0.34152   0.00000  Uiso   1.00
O69    O     0.07495   0.11760   0.18792   0.00000  Uiso   1.00
H70    H     0.06263   0.09935   0.16907   0.00000  Uiso   1.00
O71    O     0.25807   0.21498   0.31285   0.00000  Uiso   1.00
H72    H     0.27000   0.23234   0.33271   0.00000  Uiso   1.00
C73    C     0.50010   0.24652   0.24932   0.00000  Uiso   1.00
C74    C     0.49988   0.08682   0.25071   0.00000  Uiso   1.00
C75    C     0.45352   0.12427   0.04457   0.00000  Uiso   1.00
C76    C     0.56061   0.16406   0.44559   0.00000  Uiso   1.00
C77    C     0.41981   0.11915   0.02405   0.00000  Uiso   1.00
C78    C     0.59450   0.16902   0.46585   0.00000  Uiso   1.00
C79    C     0.54154   0.31143   0.21874   0.00000  Uiso   1.00
C80    C     0.45845   0.02192   0.28137   0.00000  Uiso   1.00
C81    C     0.54103   0.02126   0.22072   0.00000  Uiso   1.00
C82    C     0.45894   0.31208   0.27936   0.00000  Uiso   1.00
C83    C     0.49981   0.04266   0.25149   0.00000  Uiso   1.00
C84    C     0.50017   0.29069   0.24858   0.00000  Uiso   1.00
C85    C     0.65655   0.14329   0.21752   0.00000  Uiso   1.00
C86    C     0.34339   0.18982   0.28269   0.00000  Uiso   1.00
C87    C     0.37101   0.14253   0.21834   0.00000  Uiso   1.00
C88    C     0.62889   0.19053   0.28193   0.00000  Uiso   1.00
C89    C     0.46941   0.16645   0.33801   0.00000  Uiso   1.00
C90    C     0.53064   0.16606   0.16195   0.00000  Uiso   1.00
C91    C     0.45098   0.16070   0.38839   0.00000  Uiso   1.00
C92    C     0.55008   0.16338   0.11096   0.00000  Uiso   1.00
C93    C     0.39563   0.12859   0.45852   0.00000  Uiso   1.00
C94    C     0.61322   0.17457   0.03501   0.00000  Uiso   1.00
C95    C     0.40653   0.14151   0.41283   0.00000  Uiso   1.00
C96    C     0.59805   0.17389   0.08350   0.00000  Uiso   1.00
C97    C     0.48323   0.16813   0.41020   0.00000  Uiso   1.00
C98    C     0.51848   0.15138   0.08973   0.00000  Uiso   1.00
C99    C     0.47553   0.15155   0.45374   0.00000  Uiso   1.00
C100   C     0.53270   0.15170   0.04130   0.00000  Uiso   1.00
C101   C     0.43001   0.13318   0.47904   0.00000  Uiso   1.00
C102   C     0.58051   0.16470   0.01383   0.00000  Uiso   1.00
C103   C     0.51185   0.15323   0.47271   0.00000  Uiso   1.00
C104   C     0.49924   0.14280   0.02006   0.00000  Uiso   1.00
H105   H     0.38541   0.10454   0.04373   0.00000  Uiso   1.00
H106   H     0.63126   0.17791   0.44414   0.00000  Uiso   1.00
H107   H     0.48164   0.14432   0.11195   0.00000  Uiso   1.00
H108   H     0.51510   0.18618   0.39181   0.00000  Uiso   1.00
H109   H     0.62305   0.18316   0.09947   0.00000  Uiso   1.00
H110   H     0.38127   0.13518   0.39618   0.00000  Uiso   1.00
H111   H     0.36117   0.11370   0.47719   0.00000  Uiso   1.00
H112   H     0.64982   0.18445   0.01424   0.00000  Uiso   1.00
H113   H     0.44341   0.11196   0.07917   0.00000  Uiso   1.00
H114   H     0.57399   0.16790   0.40824   0.00000  Uiso   1.00
H115   H     0.57208   0.03823   0.19753   0.00000  Uiso   1.00
H116   H     0.42788   0.29511   0.30253   0.00000  Uiso   1.00
N117   N     0.38093   0.16668   0.25001   0.00000  Uiso   1.00
N118   N     0.61907   0.16666   0.24999   0.00000  Uiso   1.00
O119   O     0.46179   0.22775   0.25001   0.00000  Uiso   1.00
O120   O     0.53821   0.10558   0.25000   0.00000  Uiso   1.00
O121   O     0.53823   0.22774   0.25000   0.00000  Uiso   1.00
O122   O     0.46177   0.10559   0.25000   0.00000  Uiso   1.00
O123   O     0.43994   0.16667   0.31613   0.00000  Uiso   1.00
O124   O     0.56006   0.16666   0.18388   0.00000  Uiso   1.00
O125   O     0.51639   0.16666   0.31612   0.00000  Uiso   1.00
O126   O     0.48361   0.16667   0.18388   0.00000  Uiso   1.00
Zn127  Zn    0.44896   0.16667   0.25000   0.00000  Uiso   1.00
Zn128  Zn    0.55104   0.16666   0.25000   0.00000  Uiso   1.00
N129   N     0.58305   0.28856   0.18627   0.00000  Uiso   1.00
H130   H     0.57232   0.27439   0.16126   0.00000  Uiso   1.00
H131   H     0.61107   0.30892   0.16829   0.00000  Uiso   1.00
N132   N     0.41700   0.04480   0.31392   0.00000  Uiso   1.00
H133   H     0.42782   0.05896   0.33888   0.00000  Uiso   1.00
H134   H     0.38900   0.02445   0.33195   0.00000  Uiso   1.00
N135   N     0.64897   0.12078   0.18083   0.00000  Uiso   1.00
H136   H     0.64234   0.14224   0.15889   0.00000  Uiso   1.00
H137   H     0.61966   0.10097   0.19500   0.00000  Uiso   1.00
N138   N     0.35093   0.21194   0.31964   0.00000  Uiso   1.00
H139   H     0.38043   0.23160   0.30572   0.00000  Uiso   1.00
H140   H     0.35726   0.19021   0.34152   0.00000  Uiso   1.00
O141   O     0.40828   0.11760   0.18792   0.00000  Uiso   1.00
H142   H     0.39597   0.09935   0.16907   0.00000  Uiso   1.00
O143   O     0.59141   0.21498   0.31285   0.00000  Uiso   1.00
H144   H     0.60333   0.23234   0.33271   0.00000  Uiso   1.00
C145   C     0.83344   0.24652   0.24932   0.00000  Uiso   1.00
C146   C     0.83321   0.08682   0.25071   0.00000  Uiso   1.00
C147   C     0.78686   0.12427   0.04457   0.00000  Uiso   1.00
C148   C     0.89394   0.16406   0.44559   0.00000  Uiso   1.00
C149   C     0.75315   0.11915   0.02405   0.00000  Uiso   1.00
C150   C     0.92783   0.16902   0.46585   0.00000  Uiso   1.00
C151   C     0.87488   0.31143   0.21874   0.00000  Uiso   1.00
C152   C     0.79179   0.02192   0.28137   0.00000  Uiso   1.00
C153   C     0.87437   0.02126   0.22072   0.00000  Uiso   1.00
C154   C     0.79227   0.31208   0.27936   0.00000  Uiso   1.00
C155   C     0.83314   0.04266   0.25149   0.00000  Uiso   1.00
C156   C     0.83350   0.29069   0.24858   0.00000  Uiso   1.00
C157   C     0.98988   0.14329   0.21752   0.00000  Uiso   1.00
C158   C     0.67673   0.18982   0.28269   0.00000  Uiso   1.00
C159   C     0.70434   0.14253   0.21834   0.00000  Uiso   1.00
C160   C     0.96222   0.19053   0.28193   0.00000  Uiso   1.00
C161   C     0.80275   0.16645   0.33801   0.00000  Uiso   1.00
C162   C     0.86397   0.16606   0.16195   0.00000  Uiso   1.00
C163   C     0.78431   0.16070   0.38839   0.00000  Uiso   1.00
C164   C     0.88341   0.16338   0.11096   0.00000  Uiso   1.00
C165   C     0.72896   0.12859   0.45852   0.00000  Uiso   1.00
C166   C     0.94655   0.17457   0.03501   0.00000  Uiso   1.00
C167   C     0.73986   0.14151   0.41283   0.00000  Uiso   1.00
C168   C     0.93139   0.17389   0.08350   0.00000  Uiso   1.00
C169   C     0.81656   0.16813   0.41020   0.00000  Uiso   1.00
C170   C     0.85181   0.15138   0.08973   0.00000  Uiso   1.00
C171   C     0.80886   0.15155   0.45374   0.00000  Uiso   1.00
C172   C     0.86603   0.15170   0.04130   0.00000  Uiso   1.00
C173   C     0.76334   0.13318   0.47904   0.00000  Uiso   1.00
C174   C     0.91385   0.16470   0.01383   0.00000  Uiso   1.00
C175   C     0.84518   0.15323   0.47271   0.00000  Uiso   1.00
C176   C     0.83257   0.14280   0.02006   0.00000  Uiso   1.00
H177   H     0.71875   0.10454   0.04373   0.00000  Uiso   1.00
H178   H     0.96459   0.17791   0.44414   0.00000  Uiso   1.00
H179   H     0.81497   0.14432   0.11195   0.00000  Uiso   1.00
H180   H     0.84843   0.18618   0.39181   0.00000  Uiso   1.00
H181   H     0.95638   0.18316   0.09947   0.00000  Uiso   1.00
H182   H     0.71460   0.13518   0.39618   0.00000  Uiso   1.00
H183   H     0.69450   0.11370   0.47719   0.00000  Uiso   1.00
H184   H     0.98315   0.18445   0.01424   0.00000  Uiso   1.00
H185   H     0.77674   0.11196   0.07917   0.00000  Uiso   1.00
H186   H     0.90732   0.16790   0.40824   0.00000  Uiso   1.00
H187   H     0.90541   0.03823   0.19753   0.00000  Uiso   1.00
H188   H     0.76121   0.29511   0.30253   0.00000  Uiso   1.00
N189   N     0.71426   0.16668   0.25001   0.00000  Uiso   1.00
N190   N     0.95241   0.16666   0.24999   0.00000  Uiso   1.00
O191   O     0.79512   0.22775   0.25001   0.00000  Uiso   1.00
O192   O     0.87154   0.10558   0.25000   0.00000  Uiso   1.00
O193   O     0.87157   0.22774   0.25000   0.00000  Uiso   1.00
O194   O     0.79510   0.10559   0.25000   0.00000  Uiso   1.00
O195   O     0.77328   0.16667   0.31613   0.00000  Uiso   1.00
O196   O     0.89339   0.16666   0.18388   0.00000  Uiso   1.00
O197   O     0.84972   0.16666   0.31612   0.00000  Uiso   1.00
O198   O     0.81695   0.16667   0.18388   0.00000  Uiso   1.00
Zn199  Zn    0.78229   0.16667   0.25000   0.00000  Uiso   1.00
Zn200  Zn    0.88438   0.16666   0.25000   0.00000  Uiso   1.00
N201   N     0.91638   0.28856   0.18627   0.00000  Uiso   1.00
H202   H     0.90565   0.27439   0.16126   0.00000  Uiso   1.00
H203   H     0.94440   0.30892   0.16829   0.00000  Uiso   1.00
N204   N     0.75034   0.04480   0.31392   0.00000  Uiso   1.00
H205   H     0.76116   0.05896   0.33888   0.00000  Uiso   1.00
H206   H     0.72233   0.02445   0.33195   0.00000  Uiso   1.00
N207   N     0.98230   0.12078   0.18083   0.00000  Uiso   1.00
H208   H     0.97567   0.14224   0.15889   0.00000  Uiso   1.00
H209   H     0.95299   0.10097   0.19500   0.00000  Uiso   1.00
N210   N     0.68426   0.21194   0.31964   0.00000  Uiso   1.00
H211   H     0.71377   0.23160   0.30572   0.00000  Uiso   1.00
H212   H     0.69059   0.19021   0.34152   0.00000  Uiso   1.00
O213   O     0.74162   0.11760   0.18792   0.00000  Uiso   1.00
H214   H     0.72930   0.09935   0.16907   0.00000  Uiso   1.00
O215   O     0.92474   0.21498   0.31285   0.00000  Uiso   1.00
H216   H     0.93667   0.23234   0.33271   0.00000  Uiso   1.00
C217   C     0.16677   0.57985   0.24932   0.00000  Uiso   1.00
C218   C     0.16655   0.42015   0.25071   0.00000  Uiso   1.00
C219   C     0.12019   0.45760   0.04457   0.00000  Uiso   1.00
C220   C     0.22727   0.49739   0.44559   0.00000  Uiso   1.00
C221   C     0.08648   0.45248   0.02405   0.00000  Uiso   1.00
C222   C     0.26116   0.50235   0.46585   0.00000  Uiso   1.00
C223   C     0.20821   0.64476   0.21874   0.00000  Uiso   1.00
C224   C     0.12512   0.35526   0.28137   0.00000  Uiso   1.00
C225   C     0.20770   0.35460   0.22072   0.00000  Uiso   1.00
C226   C     0.12561   0.64542   0.27936   0.00000  Uiso   1.00
C227   C     0.16647   0.37599   0.25149   0.00000  Uiso   1.00
C228   C     0.16684   0.62402   0.24858   0.00000  Uiso   1.00
C229   C     0.32322   0.47662   0.21752   0.00000  Uiso   1.00
C230   C     0.01006   0.52316   0.28269   0.00000  Uiso   1.00
C231   C     0.03767   0.47586   0.21834   0.00000  Uiso   1.00
C232   C     0.29556   0.52387   0.28193   0.00000  Uiso   1.00
C233   C     0.13608   0.49978   0.33801   0.00000  Uiso   1.00
C234   C     0.19730   0.49939   0.16195   0.00000  Uiso   1.00
C235   C     0.11764   0.49403   0.38839   0.00000  Uiso   1.00
C236   C     0.21675   0.49672   0.11096   0.00000  Uiso   1.00
C237   C     0.06229   0.46192   0.45852   0.00000  Uiso   1.00
C238   C     0.27989   0.50790   0.03501   0.00000  Uiso   1.00
C239   C     0.07319   0.47485   0.41283   0.00000  Uiso   1.00
C240   C     0.26472   0.50722   0.08350   0.00000  Uiso   1.00
C241   C     0.14990   0.50146   0.41020   0.00000  Uiso   1.00
C242   C     0.18514   0.48471   0.08973   0.00000  Uiso   1.00
C243   C     0.14220   0.48488   0.45374   0.00000  Uiso   1.00
C244   C     0.19937   0.48504   0.04130   0.00000  Uiso   1.00
C245   C     0.09667   0.46652   0.47904   0.00000  Uiso   1.00
C246   C     0.24718   0.49803   0.01383   0.00000  Uiso   1.00
C247   C     0.17852   0.48656   0.47271   0.00000  Uiso   1.00
C248   C     0.16590   0.47613   0.02006   0.00000  Uiso   1.00
H249   H     0.05208   0.43788   0.04373   0.00000  Uiso   1.00
H250   H     0.29792   0.51124   0.44414   0.00000  Uiso   1.00
H251   H     0.14830   0.47765   0.11195   0.00000  Uiso   1.00
H252   H     0.18177   0.51951   0.39181   0.00000  Uiso   1.00
H253   H     0.28972   0.51650   0.09947   0.00000  Uiso   1.00
H254   H     0.04793   0.46852   0.39618   0.00000  Uiso   1.00
H255   H     0.02783   0.44703   0.47719   0.00000  Uiso   1.00
H256   H     0.31649   0.51779   0.01424   0.00000  Uiso   1.00
H257   H     0.11008   0.44529   0.07917   0.00000  Uiso   1.00
H258   H     0.24065   0.50123   0.40824   0.00000  Uiso   1.00
H259   H     0.23875   0.37156   0.19753   0.00000  Uiso   1.00
H260   H     0.09455   0.62844   0.30253   0.00000  Uiso   1.00
N261   N     0.04759   0.50001   0.25001   0.00000  Uiso   1.00
N262   N     0.28574   0.49999   0.24999   0.00000  Uiso   1.00
O263   O     0.12846   0.56108   0.25001   0.00000  Uiso   1.00
O264   O     0.20488   0.43892   0.25000   0.00000  Uiso   1.00
O265   O     0.20490   0.56107   0.25000   0.00000  Uiso   1.00
O266   O     0.12843   0.43893   0.25000   0.00000  Uiso   1.00
O267   O     0.10661   0.50001   0.31613   0.00000  Uiso   1.00
O268   O     0.22672   0.49999   0.18388   0.00000  Uiso   1.00
O269   O     0.18305   0.50000   0.31612   0.00000  Uiso   1.00
O270   O     0.15028   0.50000   0.18388   0.00000  Uiso   1.00
Zn271  Zn    0.11562   0.50001   0.25000   0.00000  Uiso   1.00
Zn272  Zn    0.21771   0.49999   0.25000   0.00000  Uiso   1.00
N273   N     0.24972   0.62189   0.18627   0.00000  Uiso   1.00
H274   H     0.23898   0.60772   0.16126   0.00000  Uiso   1.00
H275   H     0.27774   0.64226   0.16829   0.00000  Uiso   1.00
N276   N     0.08367   0.37814   0.31392   0.00000  Uiso   1.00
H277   H     0.09449   0.39230   0.33888   0.00000  Uiso   1.00
H278   H     0.05567   0.35778   0.33195   0.00000  Uiso   1.00
N279   N     0.31563   0.45412   0.18083   0.00000  Uiso   1.00
H280   H     0.30901   0.47558   0.15889   0.00000  Uiso   1.00
H281   H     0.28633   0.43430   0.19500   0.00000  Uiso   1.00
N282   N     0.01760   0.54527   0.31964   0.00000  Uiso   1.00
H283   H     0.04710   0.56494   0.30572   0.00000  Uiso   1.00
H284   H     0.02393   0.52354   0.34152   0.00000  Uiso   1.00
O285   O     0.07495   0.45094   0.18792   0.00000  Uiso   1.00
H286   H     0.06263   0.43268   0.16907   0.00000  Uiso   1.00
O287   O     0.25807   0.54831   0.31285   0.00000  Uiso   1.00
H288   H     0.27000   0.56568   0.33271   0.00000  Uiso   1.00
C289   C     0.50010   0.57985   0.24932   0.00000  Uiso   1.00
C290   C     0.49988   0.42015   0.25071   0.00000  Uiso   1.00
C291   C     0.45352   0.45760   0.04457   0.00000  Uiso   1.00
C292   C     0.56061   0.49739   0.44559   0.00000  Uiso   1.00
C293   C     0.41981   0.45248   0.02405   0.00000  Uiso   1.00
C294   C     0.59450   0.50235   0.46585   0.00000  Uiso   1.00
C295   C     0.54154   0.64476   0.21874   0.00000  Uiso   1.00
C296   C     0.45845   0.35526   0.28137   0.00000  Uiso   1.00
C297   C     0.54103   0.35460   0.22072   0.00000  Uiso   1.00
C298   C     0.45894   0.64542   0.27936   0.00000  Uiso   1.00
C299   C     0.49981   0.37599   0.25149   0.00000  Uiso   1.00
C300   C     0.50017   0.62402   0.24858   0.00000  Uiso   1.00
C301   C     0.65655   0.47662   0.21752   0.00000  Uiso   1.00
C302   C     0.34339   0.52316   0.28269   0.00000  Uiso   1.00
C303   C     0.37101   0.47586   0.21834   0.00000  Uiso   1.00
C304   C     0.62889   0.52387   0.28193   0.00000  Uiso   1.00
C305   C     0.46941   0.49978   0.33801   0.00000  Uiso   1.00
C306   C     0.53064   0.49939   0.16195   0.00000  Uiso   1.00
C307   C     0.45098   0.49403   0.38839   0.00000  Uiso   1.00
C308   C     0.55008   0.49672   0.11096   0.00000  Uiso   1.00
C309   C     0.39563   0.46192   0.45852   0.00000  Uiso   1.00
C310   C     0.61322   0.50790   0.03501   0.00000  Uiso   1.00
C311   C     0.40653   0.47485   0.41283   0.00000  Uiso   1.00
C312   C     0.59805   0.50722   0.08350   0.00000  Uiso   1.00
C313   C     0.48323   0.50146   0.41020   0.00000  Uiso   1.00
C314   C     0.51848   0.48471   0.08973   0.00000  Uiso   1.00
C315   C     0.47553   0.48488   0.45374   0.00000  Uiso   1.00
C316   C     0.53270   0.48504   0.04130   0.00000  Uiso   1.00
C317   C     0.43001   0.46652   0.47904   0.00000  Uiso   1.00
C318   C     0.58051   0.49803   0.01383   0.00000  Uiso   1.00
C319   C     0.51185   0.48656   0.47271   0.00000  Uiso   1.00
C320   C     0.49924   0.47613   0.02006   0.00000  Uiso   1.00
H321   H     0.38541   0.43788   0.04373   0.00000  Uiso   1.00
H322   H     0.63126   0.51124   0.44414   0.00000  Uiso   1.00
H323   H     0.48164   0.47765   0.11195   0.00000  Uiso   1.00
H324   H     0.51510   0.51951   0.39181   0.00000  Uiso   1.00
H325   H     0.62305   0.51650   0.09947   0.00000  Uiso   1.00
H326   H     0.38127   0.46852   0.39618   0.00000  Uiso   1.00
H327   H     0.36117   0.44703   0.47719   0.00000  Uiso   1.00
H328   H     0.64982   0.51779   0.01424   0.00000  Uiso   1.00
H329   H     0.44341   0.44529   0.07917   0.00000  Uiso   1.00
H330   H     0.57399   0.50123   0.40824   0.00000  Uiso   1.00
H331   H     0.57208   0.37156   0.19753   0.00000  Uiso   1.00
H332   H     0.42788   0.62844   0.30253   0.00000  Uiso   1.00
N333   N     0.38093   0.50001   0.25001   0.00000  Uiso   1.00
N334   N     0.61907   0.49999   0.24999   0.00000  Uiso   1.00
O335   O     0.46179   0.56108   0.25001   0.00000  Uiso   1.00
O336   O     0.53821   0.43892   0.25000   0.00000  Uiso   1.00
O337   O     0.53823   0.56107   0.25000   0.00000  Uiso   1.00
O338   O     0.46177   0.43893   0.25000   0.00000  Uiso   1.00
O339   O     0.43994   0.50001   0.31613   0.00000  Uiso   1.00
O340   O     0.56006   0.49999   0.18388   0.00000  Uiso   1.00
O341   O     0.51639   0.50000   0.31612   0.00000  Uiso   1.00
O342   O     0.48361   0.50000   0.18388   0.00000  Uiso   1.00
Zn343  Zn    0.44896   0.50001   0.25000   0.00000  Uiso   1.00
Zn344  Zn    0.55104   0.49999   0.25000   0.00000  Uiso   1.00
N345   N     0.58305   0.62189   0.18627   0.00000  Uiso   1.00
H346   H     0.57232   0.60772   0.16126   0.00000  Uiso   1.00
H347   H     0.61107   0.64226   0.16829   0.00000  Uiso   1.00
N348   N     0.41700   0.37814   0.31392   0.00000  Uiso   1.00
H349   H     0.42782   0.39230   0.33888   0.00000  Uiso   1.00
H350   H     0.38900   0.35778   0.33195   0.00000  Uiso   1.00
N351   N     0.64897   0.45412   0.18083   0.00000  Uiso   1.00
H352   H     0.64234   0.47558   0.15889   0.00000  Uiso   1.00
H353   H     0.61966   0.43430   0.19500   0.00000  Uiso   1.00
N354   N     0.35093   0.54527   0.31964   0.00000  Uiso   1.00
H355   H     0.38043   0.56494   0.30572   0.00000  Uiso   1.00
H356   H     0.35726   0.52354   0.34152   0.00000  Uiso   1.00
O357   O     0.40828   0.45094   0.18792   0.00000  Uiso   1.00
H358   H     0.39597   0.43268   0.16907   0.00000  Uiso   1.00
O359   O     0.59141   0.54831   0.31285   0.00000  Uiso   1.00
H360   H     0.60333   0.56568   0.33271   0.00000  Uiso   1.00
C361   C     0.83344   0.57985   0.24932   0.00000  Uiso   1.00
C362   C     0.83321   0.42015   0.25071   0.00000  Uiso   1.00
C363   C     0.78686   0.45760   0.04457   0.00000  Uiso   1.00
C364   C     0.89394   0.49739   0.44559   0.00000  Uiso   1.00
C365   C     0.75315   0.45248   0.02405   0.00000  Uiso   1.00
C366   C     0.92783   0.50235   0.46585   0.00000  Uiso   1.00
C367   C     0.87488   0.64476   0.21874   0.00000  Uiso   1.00
C368   C     0.79179   0.35526   0.28137   0.00000  Uiso   1.00
C369   C     0.87437   0.35460   0.22072   0.00000  Uiso   1.00
C370   C     0.79227   0.64542   0.27936   0.00000  Uiso   1.00
C371   C     0.83314   0.37599   0.25149   0.00000  Uiso   1.00
C372   C     0.83350   0.62402   0.24858   0.00000  Uiso   1.00
C373   C     0.98988   0.47662   0.21752   0.00000  Uiso   1.00
C374   C     0.67673   0.52316   0.28269   0.00000  Uiso   1.00
C375   C     0.70434   0.47586   0.21834   0.00000  Uiso   1.00
C376   C     0.96222   0.52387   0.28193   0.00000  Uiso   1.00
C377   C     0.80275   0.49978   0.33801   0.00000  Uiso   1.00
C378   C     0.86397   0.49939   0.16195   0.00000  Uiso   1.00
C379   C     0.78431   0.49403   0.38839   0.00000  Uiso   1.00
C380   C     0.88341   0.49672   0.11096   0.00000  Uiso   1.00
C381   C     0.72896   0.46192   0.45852   0.00000  Uiso   1.00
C382   C     0.94655   0.50790   0.03501   0.00000  Uiso   1.00
C383   C     0.73986   0.47485   0.41283   0.00000  Uiso   1.00
C384   C     0.93139   0.50722   0.08350   0.00000  Uiso   1.00
C385   C     0.81656   0.50146   0.41020   0.00000  Uiso   1.00
C386   C     0.85181   0.48471   0.08973   0.00000  Uiso   1.00
C387   C     0.80886   0.48488   0.45374   0.00000  Uiso   1.00
C388   C     0.86603   0.48504   0.04130   0.00000  Uiso   1.00
C389   C     0.76334   0.46652   0.47904   0.00000  Uiso   1.00
C390   C     0.91385   0.49803   0.01383   0.00000  Uiso   1.00
C391   C     0.84518   0.48656   0.47271   0.00000  Uiso   1.00
C392   C     0.83257   0.47613   0.02006   0.00000  Uiso   1.00
H393   H     0.71875   0.43788   0.04373   0.00000  Uiso   1.00
H394   H     0.96459   0.51124   0.44414   0.00000  Uiso   1.00
H395   H     0.81497   0.47765   0.11195   0.00000  Uiso   1.00
H396   H     0.84843   0.51951   0.39181   0.00000  Uiso   1.00
H397   H     0.95638   0.51650   0.09947   0.00000  Uiso   1.00
H398   H     0.71460   0.46852   0.39618   0.00000  Uiso   1.00
H399   H     0.69450   0.44703   0.47719   0.00000  Uiso   1.00
H400   H     0.98315   0.51779   0.01424   0.00000  Uiso   1.00
H401   H     0.77674   0.44529   0.07917   0.00000  Uiso   1.00
H402   H     0.90732   0.50123   0.40824   0.00000  Uiso   1.00
H403   H     0.90541   0.37156   0.19753   0.00000  Uiso   1.00
H404   H     0.76121   0.62844   0.30253   0.00000  Uiso   1.00
N405   N     0.71426   0.50001   0.25001   0.00000  Uiso   1.00
N406   N     0.95241   0.49999   0.24999   0.00000  Uiso   1.00
O407   O     0.79512   0.56108   0.25001   0.00000  Uiso   1.00
O408   O     0.87154   0.43892   0.25000   0.00000  Uiso   1.00
O409   O     0.87157   0.56107   0.25000   0.00000  Uiso   1.00
O410   O     0.79510   0.43893   0.25000   0.00000  Uiso   1.00
O411   O     0.77328   0.50001   0.31613   0.00000  Uiso   1.00
O412   O     0.89339   0.49999   0.18388   0.00000  Uiso   1.00
O413   O     0.84972   0.50000   0.31612   0.00000  Uiso   1.00
O414   O     0.81695   0.50000   0.18388   0.00000  Uiso   1.00
Zn415  Zn    0.78229   0.50001   0.25000   0.00000  Uiso   1.00
Zn416  Zn    0.88438   0.49999   0.25000   0.00000  Uiso   1.00
N417   N     0.91638   0.62189   0.18627   0.00000  Uiso   1.00
H418   H     0.90565   0.60772   0.16126   0.00000  Uiso   1.00
H419   H     0.94440   0.64226   0.16829   0.00000  Uiso   1.00
N420   N     0.75034   0.37814   0.31392   0.00000  Uiso   1.00
H421   H     0.76116   0.39230   0.33888   0.00000  Uiso   1.00
H422   H     0.72233   0.35778   0.33195   0.00000  Uiso   1.00
N423   N     0.98230   0.45412   0.18083   0.00000  Uiso   1.00
H424   H     0.97567   0.47558   0.15889   0.00000  Uiso   1.00
H425   H     0.95299   0.43430   0.19500   0.00000  Uiso   1.00
N426   N     0.68426   0.54527   0.31964   0.00000  Uiso   1.00
H427   H     0.71377   0.56494   0.30572   0.00000  Uiso   1.00
H428   H     0.69059   0.52354   0.34152   0.00000  Uiso   1.00
O429   O     0.74162   0.45094   0.18792   0.00000  Uiso   1.00
H430   H     0.72930   0.43268   0.16907   0.00000  Uiso   1.00
O431   O     0.92474   0.54831   0.31285   0.00000  Uiso   1.00
H432   H     0.93667   0.56568   0.33271   0.00000  Uiso   1.00
C433   C     0.16677   0.91319   0.24932   0.00000  Uiso   1.00
C434   C     0.16655   0.75349   0.25071   0.00000  Uiso   1.00
C435   C     0.12019   0.79094   0.04457   0.00000  Uiso   1.00
C436   C     0.22727   0.83072   0.44559   0.00000  Uiso   1.00
C437   C     0.08648   0.78582   0.02405   0.00000  Uiso   1.00
C438   C     0.26116   0.83569   0.46585   0.00000  Uiso   1.00
C439   C     0.20821   0.97810   0.21874   0.00000  Uiso   1.00
C440   C     0.12512   0.68859   0.28137   0.00000  Uiso   1.00
C441   C     0.20770   0.68793   0.22072   0.00000  Uiso   1.00
C442   C     0.12561   0.97875   0.27936   0.00000  Uiso   1.00
C443   C     0.16647   0.70933   0.25149   0.00000  Uiso   1.00
C444   C     0.16684   0.95735   0.24858   0.00000  Uiso   1.00
C445   C     0.32322   0.80996   0.21752   0.00000  Uiso   1.00
C446   C     0.01006   0.85649   0.28269   0.00000  Uiso   1.00
C447   C     0.03767   0.80920   0.21834   0.00000  Uiso   1.00
C448   C     0.29556   0.85720   0.28193   0.00000  Uiso   1.00
C449   C     0.13608   0.83311   0.33801   0.00000  Uiso   1.00
C450   C     0.19730   0.83273   0.16195   0.00000  Uiso   1.00
C451   C     0.11764   0.82736   0.38839   0.00000  Uiso   1.00
C452   C     0.21675   0.83005   0.11096   0.00000  Uiso   1.00
C453   C     0.06229   0.79526   0.45852   0.00000  Uiso   1.00
C454   C     0.27989   0.84123   0.03501   0.00000  Uiso   1.00
C455   C     0.07319   0.80818   0.41283   0.00000  Uiso   1.00
C456   C     0.26472   0.84056   0.08350   0.00000  Uiso   1.00
C457   C     0.14990   0.83479   0.41020   0.00000  Uiso   1.00
C458   C     0.18514   0.81805   0.08973   0.00000  Uiso   1.00
C459   C     0.14220   0.81821   0.45374   0.00000  Uiso   1.00
C460   C     0.19937   0.81837   0.04130   0.00000  Uiso   1.00
C461   C     0.09667   0.79985   0.47904   0.00000  Uiso   1.00
C462   C     0.24718   0.83137   0.01383   0.00000  Uiso   1.00
C463   C     0.17852   0.81990   0.47271   0.00000  Uiso   1.00
C464   C     0.16590   0.80947   0.02006   0.00000  Uiso   1.00
H465   H     0.05208   0.77121   0.04373   0.00000  Uiso   1.00
H466   H     0.29792   0.84458   0.44414   0.00000  Uiso   1.00
H467   H     0.14830   0.81099   0.11195   0.00000  Uiso   1.00
H468   H     0.18177   0.85285   0.39181   0.00000  Uiso   1.00
H469   H     0.28972   0.84983   0.09947   0.00000  Uiso   1.00
H470   H     0.04793   0.80185   0.39618   0.00000  Uiso   1.00
H471   H     0.02783   0.78037   0.47719   0.00000  Uiso   1.00
H472   H     0.31649   0.85112   0.01424   0.00000  Uiso   1.00
H473   H     0.11008   0.77863   0.07917   0.00000  Uiso   1.00
H474   H     0.24065   0.83457   0.40824   0.00000  Uiso   1.00
H475   H     0.23875   0.70490   0.19753   0.00000  Uiso   1.00
H476   H     0.09455   0.96178   0.30253   0.00000  Uiso   1.00
N477   N     0.04759   0.83334   0.25001   0.00000  Uiso   1.00
N478   N     0.28574   0.83332   0.24999   0.00000  Uiso   1.00
O479   O     0.12846   0.89442   0.25001   0.00000  Uiso   1.00
O480   O     0.20488   0.77225   0.25000   0.00000  Uiso   1.00
O481   O     0.20490   0.89441   0.25000   0.00000  Uiso   1.00
O482   O     0.12843   0.77226   0.25000   0.00000  Uiso   1.00
O483   O     0.10661   0.83334   0.31613   0.00000  Uiso   1.00
O484   O     0.22672   0.83333   0.18388   0.00000  Uiso   1.00
O485   O     0.18305   0.83333   0.31612   0.00000  Uiso   1.00
O486   O     0.15028   0.83334   0.18388   0.00000  Uiso   1.00
Zn487  Zn    0.11562   0.83334   0.25000   0.00000  Uiso   1.00
Zn488  Zn    0.21771   0.83333   0.25000   0.00000  Uiso   1.00
N489   N     0.24972   0.95523   0.18627   0.00000  Uiso   1.00
H490   H     0.23898   0.94105   0.16126   0.00000  Uiso   1.00
H491   H     0.27774   0.97559   0.16829   0.00000  Uiso   1.00
N492   N     0.08367   0.71147   0.31392   0.00000  Uiso   1.00
H493   H     0.09449   0.72563   0.33888   0.00000  Uiso   1.00
H494   H     0.05567   0.69112   0.33195   0.00000  Uiso   1.00
N495   N     0.31563   0.78745   0.18083   0.00000  Uiso   1.00
H496   H     0.30901   0.80891   0.15889   0.00000  Uiso   1.00
H497   H     0.28633   0.76763   0.19500   0.00000  Uiso   1.00
N498   N     0.01760   0.87861   0.31964   0.00000  Uiso   1.00
H499   H     0.04710   0.89827   0.30572   0.00000  Uiso   1.00
H500   H     0.02393   0.85687   0.34152   0.00000  Uiso   1.00
O501   O     0.07495   0.78427   0.18792   0.00000  Uiso   1.00
H502   H     0.06263   0.76601   0.16907   0.00000  Uiso   1.00
O503   O     0.25807   0.88164   0.31285   0.00000  Uiso   1.00
H504   H     0.27000   0.89901   0.33271   0.00000  Uiso   1.00
C505   C     0.50010   0.91319   0.24932   0.00000  Uiso   1.00
C506   C     0.49988   0.75349   0.25071   0.00000  Uiso   1.00
C507   C     0.45352   0.79094   0.04457   0.00000  Uiso   1.00
C508   C     0.56061   0.83072   0.44559   0.00000  Uiso   1.00
C509   C     0.41981   0.78582   0.02405   0.00000  Uiso   1.00
C510   C     0.59450   0.83569   0.46585   0.00000  Uiso   1.00
C511   C     0.54154   0.97810   0.21874   0.00000  Uiso   1.00
C512   C     0.45845   0.68859   0.28137   0.00000  Uiso   1.00
C513   C     0.54103   0.68793   0.22072   0.00000  Uiso   1.00
C514   C     0.45894   0.97875   0.27936   0.00000  Uiso   1.00
C515   C     0.49981   0.70933   0.25149   0.00000  Uiso   1.00
C516   C     0.50017   0.95735   0.24858   0.00000  Uiso   1.00
C517   C     0.65655   0.80996   0.21752   0.00000  Uiso   1.00
C518   C     0.34339   0.85649   0.28269   0.00000  Uiso   1.00
C519   C     0.37101   0.80920   0.21834   0.00000  Uiso   1.00
C520   C     0.62889   0.85720   0.28193   0.00000  Uiso   1.00
C521   C     0.46941   0.83311   0.33801   0.00000  Uiso   1.00
C522   C     0.53064   0.83273   0.16195   0.00000  Uiso   1.00
C523   C     0.45098   0.82736   0.38839   0.00000  Uiso   1.00
C524   C     0.55008   0.83005   0.11096   0.00000  Uiso   1.00
C525   C     0.39563   0.79526   0.45852   0.00000  Uiso   1.00
C526   C     0.61322   0.84123   0.03501   0.00000  Uiso   1.00
C527   C     0.40653   0.80818   0.41283   0.00000  Uiso   1.00
C528   C     0.59805   0.84056   0.08350   0.00000  Uiso   1.00
C529   C     0.48323   0.83479   0.41020   0.00000  Uiso   1.00
C530   C     0.51848   0.81805   0.08973   0.00000  Uiso   1.00
C531   C     0.47553   0.81821   0.45374   0.00000  Uiso   1.00
C532   C     0.53270   0.81837   0.04130   0.00000  Uiso   1.00
C533   C     0.43001   0.79985   0.47904   0.00000  Uiso   1.00
C534   C     0.58051   0.83137   0.01383   0.00000  Uiso   1.00
C535   C     0.51185   0.81990   0.47271   0.00000  Uiso   1.00
C536   C     0.49924   0.80947   0.02006   0.00000  Uiso   1.00
H537   H     0.38541   0.77121   0.04373   0.00000  Uiso   1.00
H538   H     0.63126   0.84458   0.44414   0.00000  Uiso   1.00
H539   H     0.48164   0.81099   0.11195   0.00000  Uiso   1.00
H540   H     0.51510   0.85285   0.39181   0.00000  Uiso   1.00
H541   H     0.62305   0.84983   0.09947   0.00000  Uiso   1.00
H542   H     0.38127   0.80185   0.39618   0.00000  Uiso   1.00
H543   H     0.36117   0.78037   0.47719   0.00000  Uiso   1.00
H544   H     0.64982   0.85112   0.01424   0.00000  Uiso   1.00
H545   H     0.44341   0.77863   0.07917   0.00000  Uiso   1.00
H546   H     0.57399   0.83457   0.40824   0.00000  Uiso   1.00
H547   H     0.57208   0.70490   0.19753   0.00000  Uiso   1.00
H548   H     0.42788   0.96178   0.30253   0.00000  Uiso   1.00
N549   N     0.38093   0.83334   0.25001   0.00000  Uiso   1.00
N550   N     0.61907   0.83332   0.24999   0.00000  Uiso   1.00
O551   O     0.46179   0.89442   0.25001   0.00000  Uiso   1.00
O552   O     0.53821   0.77225   0.25000   0.00000  Uiso   1.00
O553   O     0.53823   0.89441   0.25000   0.00000  Uiso   1.00
O554   O     0.46177   0.77226   0.25000   0.00000  Uiso   1.00
O555   O     0.43994   0.83334   0.31613   0.00000  Uiso   1.00
O556   O     0.56006   0.83333   0.18388   0.00000  Uiso   1.00
O557   O     0.51639   0.83333   0.31612   0.00000  Uiso   1.00
O558   O     0.48361   0.83334   0.18388   0.00000  Uiso   1.00
Zn559  Zn    0.44896   0.83334   0.25000   0.00000  Uiso   1.00
Zn560  Zn    0.55104   0.83333   0.25000   0.00000  Uiso   1.00
N561   N     0.58305   0.95523   0.18627   0.00000  Uiso   1.00
H562   H     0.57232   0.94105   0.16126   0.00000  Uiso   1.00
H563   H     0.61107   0.97559   0.16829   0.00000  Uiso   1.00
N564   N     0.41700   0.71147   0.31392   0.00000  Uiso   1.00
H565   H     0.42782   0.72563   0.33888   0.00000  Uiso   1.00
H566   H     0.38900   0.69112   0.33195   0.00000  Uiso   1.00
N567   N     0.64897   0.78745   0.18083   0.00000  Uiso   1.00
H568   H     0.64234   0.80891   0.15889   0.00000  Uiso   1.00
H569   H     0.61966   0.76763   0.19500   0.00000  Uiso   1.00
N570   N     0.35093   0.87861   0.31964   0.00000  Uiso   1.00
H571   H     0.38043   0.89827   0.30572   0.00000  Uiso   1.00
H572   H     0.35726   0.85687   0.34152   0.00000  Uiso   1.00
O573   O     0.40828   0.78427   0.18792   0.00000  Uiso   1.00
H574   H     0.39597   0.76601   0.16907   0.00000  Uiso   1.00
O575   O     0.59141   0.88164   0.31285   0.00000  Uiso   1.00
H576   H     0.60333   0.89901   0.33271   0.00000  Uiso   1.00
C577   C     0.83344   0.91319   0.24932   0.00000  Uiso   1.00
C578   C     0.83321   0.75349   0.25071   0.00000  Uiso   1.00
C579   C     0.78686   0.79094   0.04457   0.00000  Uiso   1.00
C580   C     0.89394   0.83072   0.44559   0.00000  Uiso   1.00
C581   C     0.75315   0.78582   0.02405   0.00000  Uiso   1.00
C582   C     0.92783   0.83569   0.46585   0.00000  Uiso   1.00
C583   C     0.87488   0.97810   0.21874   0.00000  Uiso   1.00
C584   C     0.79179   0.68859   0.28137   0.00000  Uiso   1.00
C585   C     0.87437   0.68793   0.22072   0.00000  Uiso   1.00
C586   C     0.79227   0.97875   0.27936   0.00000  Uiso   1.00
C587   C     0.83314   0.70933   0.25149   0.00000  Uiso   1.00
C588   C     0.83350   0.95735   0.24858   0.00000  Uiso   1.00
C589   C     0.98988   0.80996   0.21752   0.00000  Uiso   1.00
C590   C     0.67673   0.85649   0.28269   0.00000  Uiso   1.00
C591   C     0.70434   0.80920   0.21834   0.00000  Uiso   1.00
C592   C     0.96222   0.85720   0.28193   0.00000  Uiso   1.00
C593   C     0.80275   0.83311   0.33801   0.00000  Uiso   1.00
C594   C     0.86397   0.83273   0.16195   0.00000  Uiso   1.00
C595   C     0.78431   0.82736   0.38839   0.00000  Uiso   1.00
C596   C     0.88341   0.83005   0.11096   0.00000  Uiso   1.00
C597   C     0.72896   0.79526   0.45852   0.00000  Uiso   1.00
C598   C     0.94655   0.84123   0.03501   0.00000  Uiso   1.00
C599   C     0.73986   0.80818   0.41283   0.00000  Uiso   1.00
C600   C     0.93139   0.84056   0.08350   0.00000  Uiso   1.00
C601   C     0.81656   0.83479   0.41020   0.00000  Uiso   1.00
C602   C     0.85181   0.81805   0.08973   0.00000  Uiso   1.00
C603   C     0.80886   0.81821   0.45374   0.00000  Uiso   1.00
C604   C     0.86603   0.81837   0.04130   0.00000  Uiso   1.00
C605   C     0.76334   0.79985   0.47904   0.00000  Uiso   1.00
C606   C     0.91385   0.83137   0.01383   0.00000  Uiso   1.00
C607   C     0.84518   0.81990   0.47271   0.00000  Uiso   1.00
C608   C     0.83257   0.80947   0.02006   0.00000  Uiso   1.00
H609   H     0.71875   0.77121   0.04373   0.00000  Uiso   1.00
H610   H     0.96459   0.84458   0.44414   0.00000  Uiso   1.00
H611   H     0.81497   0.81099   0.11195   0.00000  Uiso   1.00
H612   H     0.84843   0.85285   0.39181   0.00000  Uiso   1.00
H613   H     0.95638   0.84983   0.09947   0.00000  Uiso   1.00
H614   H     0.71460   0.80185   0.39618   0.00000  Uiso   1.00
H615   H     0.69450   0.78037   0.47719   0.00000  Uiso   1.00
H616   H     0.98315   0.85112   0.01424   0.00000  Uiso   1.00
H617   H     0.77674   0.77863   0.07917   0.00000  Uiso   1.00
H618   H     0.90732   0.83457   0.40824   0.00000  Uiso   1.00
H619   H     0.90541   0.70490   0.19753   0.00000  Uiso   1.00
H620   H     0.76121   0.96178   0.30253   0.00000  Uiso   1.00
N621   N     0.71426   0.83334   0.25001   0.00000  Uiso   1.00
N622   N     0.95241   0.83332   0.24999   0.00000  Uiso   1.00
O623   O     0.79512   0.89442   0.25001   0.00000  Uiso   1.00
O624   O     0.87154   0.77225   0.25000   0.00000  Uiso   1.00
O625   O     0.87157   0.89441   0.25000   0.00000  Uiso   1.00
O626   O     0.79510   0.77226   0.25000   0.00000  Uiso   1.00
O627   O     0.77328   0.83334   0.31613   0.00000  Uiso   1.00
O628   O     0.89339   0.83333   0.18388   0.00000  Uiso   1.00
O629   O     0.84972   0.83333   0.31612   0.00000  Uiso   1.00
O630   O     0.81695   0.83334   0.18388   0.00000  Uiso   1.00
Zn631  Zn    0.78229   0.83334   0.25000   0.00000  Uiso   1.00
Zn632  Zn    0.88438   0.83333   0.25000   0.00000  Uiso   1.00
N633   N     0.91638   0.95523   0.18627   0.00000  Uiso   1.00
H634   H     0.90565   0.94105   0.16126   0.00000  Uiso   1.00
H635   H     0.94440   0.97559   0.16829   0.00000  Uiso   1.00
N636   N     0.75034   0.71147   0.31392   0.00000  Uiso   1.00
H637   H     0.76116   0.72563   0.33888   0.00000  Uiso   1.00
H638   H     0.72233   0.69112   0.33195   0.00000  Uiso   1.00
N639   N     0.98230   0.78745   0.18083   0.00000  Uiso   1.00
H640   H     0.97567   0.80891   0.15889   0.00000  Uiso   1.00
H641   H     0.95299   0.76763   0.19500   0.00000  Uiso   1.00
N642   N     0.68426   0.87861   0.31964   0.00000  Uiso   1.00
H643   H     0.71377   0.89827   0.30572   0.00000  Uiso   1.00
H644   H     0.69059   0.85687   0.34152   0.00000  Uiso   1.00
O645   O     0.74162   0.78427   0.18792   0.00000  Uiso   1.00
H646   H     0.72930   0.76601   0.16907   0.00000  Uiso   1.00
O647   O     0.92474   0.88164   0.31285   0.00000  Uiso   1.00
H648   H     0.93667   0.89901   0.33271   0.00000  Uiso   1.00
C649   C     0.16677   0.24652   0.74932   0.00000  Uiso   1.00
C650   C     0.16655   0.08682   0.75071   0.00000  Uiso   1.00
C651   C     0.12019   0.12427   0.54457   0.00000  Uiso   1.00
C652   C     0.22727   0.16406   0.94559   0.00000  Uiso   1.00
C653   C     0.08648   0.11915   0.52405   0.00000  Uiso   1.00
C654   C     0.26116   0.16902   0.96585   0.00000  Uiso   1.00
C655   C     0.20821   0.31143   0.71874   0.00000  Uiso   1.00
C656   C     0.12512   0.02192   0.78137   0.00000  Uiso   1.00
C657   C     0.20770   0.02126   0.72072   0.00000  Uiso   1.00
C658   C     0.12561   0.31208   0.77936   0.00000  Uiso   1.00
C659   C     0.16647   0.04266   0.75149   0.00000  Uiso   1.00
C660   C     0.16684   0.29069   0.74858   0.00000  Uiso   1.00
C661   C     0.32322   0.14329   0.71752   0.00000  Uiso   1.00
C662   C     0.01006   0.18982   0.78269   0.00000  Uiso   1.00
C663   C     0.03767   0.14253   0.71834   0.00000  Uiso   1.00
C664   C     0.29556   0.19053   0.78193   0.00000  Uiso   1.00
C665   C     0.13608   0.16645   0.83801   0.00000  Uiso   1.00
C666   C     0.19730   0.16606   0.66195   0.00000  Uiso   1.00
C667   C     0.11764   0.16070   0.88839   0.00000  Uiso   1.00
C668   C     0.21675   0.16338   0.61096   0.00000  Uiso   1.00
C669   C     0.06229   0.12859   0.95852   0.00000  Uiso   1.00
C670   C     0.27989   0.17457   0.53501   0.00000  Uiso   1.00
C671   C     0.07319   0.14151   0.91283   0.00000  Uiso   1.00
C672   C     0.26472   0.17389   0.58350   0.00000  Uiso   1.00
C673   C     0.14990   0.16813   0.91020   0.00000  Uiso   1.00
C674   C     0.18514   0.15138   0.58973   0.00000  Uiso   1.00
C675   C     0.14220   0.15155   0.95374   0.00000  Uiso   1.00
C676   C     0.19937   0.15170   0.54130   0.00000  Uiso   1.00
C677   C     0.09667   0.13318   0.97904   0.00000  Uiso   1.00
C678   C     0.24718   0.16470   0.51383   0.00000  Uiso   1.00
C679   C     0.17852   0.15323   0.97271   0.00000  Uiso   1.00
C680   C     0.16590   0.14280   0.52006   0.00000  Uiso   1.00
H681   H     0.05208   0.10454   0.54373   0.00000  Uiso   1.00
H682   H     0.29792   0.17791   0.94414   0.00000  Uiso   1.00
H683   H     0.14830   0.14432   0.61195   0.00000  Uiso   1.00
H684   H     0.18177   0.18618   0.89181   0.00000  Uiso   1.00
H685   H     0.28972   0.18316   0.59947   0.00000  Uiso   1.00
H686   H     0.04793   0.13518   0.89618   0.00000  Uiso   1.00
H687   H     0.02783   0.11370   0.97719   0.00000  Uiso   1.00
H688   H     0.31649   0.18445   0.51424   0.00000  Uiso   1.00
H689   H     0.11008   0.11196   0.57917   0.00000  Uiso   1.00
H690   H     0.24065   0.16790   0.90824   0.00000  Uiso   1.00
H691   H     0.23875   0.03823   0.69753   0.00000  Uiso   1.00
H692   H     0.09455   0.29511   0.80253   0.00000  Uiso   1.00
N693   N     0.04759   0.16668   0.75001   0.00000  Uiso   1.00
N694   N     0.28574   0.16666   0.74999   0.00000  Uiso   1.00
O695   O     0.12846   0.22775   0.75001   0.00000  Uiso   1.00
O696   O     0.20488   0.10558   0.75000   0.00000  Uiso   1.00
O697   O     0.20490   0.22774   0.75000   0.00000  Uiso   1.00
O698   O     0.12843   0.10559   0.75000   0.00000  Uiso   1.00
O699   O     0.10661   0.16667   0.81613   0.00000  Uiso   1.00
O700   O     0.22672   0.16666   0.68388   0.00000  Uiso   1.00
O701   O     0.18305   0.16666   0.81612   0.00000  Uiso   1.00
O702   O     0.15028   0.16667   0.68388   0.00000  Uiso   1.00
Zn703  Zn    0.11562   0.16667   0.75000   0.00000  Uiso   1.00
Zn704  Zn    0.21771   0.16666   0.75000   0.00000  Uiso   1.00
N705   N     0.24972   0.28856   0.68627   0.00000  Uiso   1.00
H706   H     0.23898   0.27439   0.66126   0.00000  Uiso   1.00
H707   H     0.27774   0.30892   0.66829   0.00000  Uiso   1.00
N708   N     0.08367   0.04480   0.81392   0.00000  Uiso   1.00
H709   H     0.09449   0.05896   0.83888   0.00000  Uiso   1.00
H710   H     0.05567   0.02445   0.83195   0.00000  Uiso   1.00
N711   N     0.31563   0.12078   0.68083   0.00000  Uiso   1.00
H712   H     0.30901   0.14224   0.65889   0.00000  Uiso   1.00
H713   H     0.28633   0.10097   0.69500   0.00000  Uiso   1.00
N714   N     0.01760   0.21194   0.81964   0.00000  Uiso   1.00
H715   H     0.04710   0.23160   0.80572   0.00000  Uiso   1.00
H716   H     0.02393   0.19021   0.84152   0.00000  Uiso   1.00
O717   O     0.07495   0.11760   0.68792   0.00000  Uiso   1.00
H718   H     0.06263   0.09935   0.66907   0.00000  Uiso   1.00
O719   O     0.25807   0.21498   0.81285   0.00000  Uiso   1.00
H720   H     0.27000   0.23234   0.83271   0.00000  Uiso   1.00
C721   C     0.50010   0.24652   0.74932   0.00000  Uiso   1.00
C722   C     0.49988   0.08682   0.75071   0.00000  Uiso   1.00
C723   C     0.45352   0.12427   0.54457   0.00000  Uiso   1.00
C724   C     0.56061   0.16406   0.94559   0.00000  Uiso   1.00
C725   C     0.41981   0.11915   0.52405   0.00000  Uiso   1.00
C726   C     0.59450   0.16902   0.96585   0.00000  Uiso   1.00
C727   C     0.54154   0.31143   0.71874   0.00000  Uiso   1.00
C728   C     0.45845   0.02192   0.78137   0.00000  Uiso   1.00
C729   C     0.54103   0.02126   0.72072   0.00000  Uiso   1.00
C730   C     0.45894   0.31208   0.77936   0.00000  Uiso   1.00
C731   C     0.49981   0.04266   0.75149   0.00000  Uiso   1.00
C732   C     0.50017   0.29069   0.74858   0.00000  Uiso   1.00
C733   C     0.65655   0.14329   0.71752   0.00000  Uiso   1.00
C734   C     0.34339   0.18982   0.78269   0.00000  Uiso   1.00
C735   C     0.37101   0.14253   0.71834   0.00000  Uiso   1.00
C736   C     0.62889   0.19053   0.78193   0.00000  Uiso   1.00
C737   C     0.46941   0.16645   0.83801   0.00000  Uiso   1.00
C738   C     0.53064   0.16606   0.66195   0.00000  Uiso   1.00
C739   C     0.45098   0.16070   0.88839   0.00000  Uiso   1.00
C740   C     0.55008   0.16338   0.61096   0.00000  Uiso   1.00
C741   C     0.39563   0.12859   0.95852   0.00000  Uiso   1.00
C742   C     0.61322   0.17457   0.53501   0.00000  Uiso   1.00
C743   C     0.40653   0.14151   0.91283   0.00000  Uiso   1.00
C744   C     0.59805   0.17389   0.58350   0.00000  Uiso   1.00
C745   C     0.48323   0.16813   0.91020   0.00000  Uiso   1.00
C746   C     0.51848   0.15138   0.58973   0.00000  Uiso   1.00
C747   C     0.47553   0.15155   0.95374   0.00000  Uiso   1.00
C748   C     0.53270   0.15170   0.54130   0.00000  Uiso   1.00
C749   C     0.43001   0.13318   0.97904   0.00000  Uiso   1.00
C750   C     0.58051   0.16470   0.51383   0.00000  Uiso   1.00
C751   C     0.51185   0.15323   0.97271   0.00000  Uiso   1.00
C752   C     0.49924   0.14280   0.52006   0.00000  Uiso   1.00
H753   H     0.38541   0.10454   0.54373   0.00000  Uiso   1.00
H754   H     0.63126   0.17791   0.94414   0.00000  Uiso   1.00
H755   H     0.48164   0.14432   0.61195   0.00000  Uiso   1.00
H756   H     0.51510   0.18618   0.89181   0.00000  Uiso   1.00
H757   H     0.62305   0.18316   0.59947   0.00000  Uiso   1.00
H758   H     0.38127   0.13518   0.89618   0.00000  Uiso   1.00
H759   H     0.36117   0.11370   0.97719   0.00000  Uiso   1.00
H760   H     0.64982   0.18445   0.51424   0.00000  Uiso   1.00
H761   H     0.44341   0.11196   0.57917   0.00000  Uiso   1.00
H762   H     0.57399   0.16790   0.90824   0.00000  Uiso   1.00
H763   H     0.57208   0.03823   0.69753   0.00000  Uiso   1.00
H764   H     0.42788   0.29511   0.80253   0.00000  Uiso   1.00
N765   N     0.38093   0.16668   0.75001   0.00000  Uiso   1.00
N766   N     0.61907   0.16666   0.74999   0.00000  Uiso   1.00
O767   O     0.46179   0.22775   0.75001   0.00000  Uiso   1.00
O768   O     0.53821   0.10558   0.75000   0.00000  Uiso   1.00
O769   O     0.53823   0.22774   0.75000   0.00000  Uiso   1.00
O770   O     0.46177   0.10559   0.75000   0.00000  Uiso   1.00
O771   O     0.43994   0.16667   0.81613   0.00000  Uiso   1.00
O772   O     0.56006   0.16666   0.68388   0.00000  Uiso   1.00
O773   O     0.51639   0.16666   0.81612   0.00000  Uiso   1.00
O774   O     0.48361   0.16667   0.68388   0.00000  Uiso   1.00
Zn775  Zn    0.44896   0.16667   0.75000   0.00000  Uiso   1.00
Zn776  Zn    0.55104   0.16666   0.75000   0.00000  Uiso   1.00
N777   N     0.58305   0.28856   0.68627   0.00000  Uiso   1.00
H778   H     0.57232   0.27439   0.66126   0.00000  Uiso   1.00
H779   H     0.61107   0.30892   0.66829   0.00000  Uiso   1.00
N780   N     0.41700   0.04480   0.81392   0.00000  Uiso   1.00
H781   H     0.42782   0.05896   0.83888   0.00000  Uiso   1.00
H782   H     0.38900   0.02445   0.83195   0.00000  Uiso   1.00
N783   N     0.64897   0.12078   0.68083   0.00000  Uiso   1.00
H784   H     0.64234   0.14224   0.65889   0.00000  Uiso   1.00
H785   H     0.61966   0.10097   0.69500   0.00000  Uiso   1.00
N786   N     0.35093   0.21194   0.81964   0.00000  Uiso   1.00
H787   H     0.38043   0.23160   0.80572   0.00000  Uiso   1.00
H788   H     0.35726   0.19021   0.84152   0.00000  Uiso   1.00
O789   O     0.40828   0.11760   0.68792   0.00000  Uiso   1.00
H790   H     0.39597   0.09935   0.66907   0.00000  Uiso   1.00
O791   O     0.59141   0.21498   0.81285   0.00000  Uiso   1.00
H792   H     0.60333   0.23234   0.83271   0.00000  Uiso   1.00
C793   C     0.83344   0.24652   0.74932   0.00000  Uiso   1.00
C794   C     0.83321   0.08682   0.75071   0.00000  Uiso   1.00
C795   C     0.78686   0.12427   0.54457   0.00000  Uiso   1.00
C796   C     0.89394   0.16406   0.94559   0.00000  Uiso   1.00
C797   C     0.75315   0.11915   0.52405   0.00000  Uiso   1.00
C798   C     0.92783   0.16902   0.96585   0.00000  Uiso   1.00
C799   C     0.87488   0.31143   0.71874   0.00000  Uiso   1.00
C800   C     0.79179   0.02192   0.78137   0.00000  Uiso   1.00
C801   C     0.87437   0.02126   0.72072   0.00000  Uiso   1.00
C802   C     0.79227   0.31208   0.77936   0.00000  Uiso   1.00
C803   C     0.83314   0.04266   0.75149   0.00000  Uiso   1.00
C804   C     0.83350   0.29069   0.74858   0.00000  Uiso   1.00
C805   C     0.98988   0.14329   0.71752   0.00000  Uiso   1.00
C806   C     0.67673   0.18982   0.78269   0.00000  Uiso   1.00
C807   C     0.70434   0.14253   0.71834   0.00000  Uiso   1.00
C808   C     0.96222   0.19053   0.78193   0.00000  Uiso   1.00
C809   C     0.80275   0.16645   0.83801   0.00000  Uiso   1.00
C810   C     0.86397   0.16606   0.66195   0.00000  Uiso   1.00
C811   C     0.78431   0.16070   0.88839   0.00000  Uiso   1.00
C812   C     0.88341   0.16338   0.61096   0.00000  Uiso   1.00
C813   C     0.72896   0.12859   0.95852   0.00000  Uiso   1.00
C814   C     0.94655   0.17457   0.53501   0.00000  Uiso   1.00
C815   C     0.73986   0.14151   0.91283   0.00000  Uiso   1.00
C816   C     0.93139   0.17389   0.58350   0.00000  Uiso   1.00
C817   C     0.81656   0.16813   0.91020   0.00000  Uiso   1.00
C818   C     0.85181   0.15138   0.58973   0.00000  Uiso   1.00
C819   C     0.80886   0.15155   0.95374   0.00000  Uiso   1.00
C820   C     0.86603   0.15170   0.54130   0.00000  Uiso   1.00
C821   C     0.76334   0.13318   0.97904   0.00000  Uiso   1.00
C822   C     0.91385   0.16470   0.51383   0.00000  Uiso   1.00
C823   C     0.84518   0.15323   0.97271   0.00000  Uiso   1.00
C824   C     0.83257   0.14280   0.52006   0.00000  Uiso   1.00
H825   H     0.71875   0.10454   0.54373   0.00000  Uiso   1.00
H826   H     0.96459   0.17791   0.94414   0.00000  Uiso   1.00
H827   H     0.81497   0.14432   0.61195   0.00000  Uiso   1.00
H828   H     0.84843   0.18618   0.89181   0.00000  Uiso   1.00
H829   H     0.95638   0.18316   0.59947   0.00000  Uiso   1.00
H830   H     0.71460   0.13518   0.89618   0.00000  Uiso   1.00
H831   H     0.69450   0.11370   0.97719   0.00000  Uiso   1.00
H832   H     0.98315   0.18445   0.51424   0.00000  Uiso   1.00
H833   H     0.77674   0.11196   0.57917   0.00000  Uiso   1.00
H834   H     0.90732   0.16790   0.90824   0.00000  Uiso   1.00
H835   H     0.90541   0.03823   0.69753   0.00000  Uiso   1.00
H836   H     0.76121   0.29511   0.80253   0.00000  Uiso   1.00
N837   N     0.71426   0.16668   0.75001   0.00000  Uiso   1.00
N838   N     0.95241   0.16666   0.74999   0.00000  Uiso   1.00
O839   O     0.79512   0.22775   0.75001   0.00000  Uiso   1.00
O840   O     0.87154   0.10558   0.75000   0.00000  Uiso   1.00
O841   O     0.87157   0.22774   0.75000   0.00000  Uiso   1.00
O842   O     0.79510   0.10559   0.75000   0.00000  Uiso   1.00
O843   O     0.77328   0.16667   0.81613   0.00000  Uiso   1.00
O844   O     0.89339   0.16666   0.68388   0.00000  Uiso   1.00
O845   O     0.84972   0.16666   0.81612   0.00000  Uiso   1.00
O846   O     0.81695   0.16667   0.68388   0.00000  Uiso   1.00
Zn847  Zn    0.78229   0.16667   0.75000   0.00000  Uiso   1.00
Zn848  Zn    0.88438   0.16666   0.75000   0.00000  Uiso   1.00
N849   N     0.91638   0.28856   0.68627   0.00000  Uiso   1.00
H850   H     0.90565   0.27439   0.66126   0.00000  Uiso   1.00
H851   H     0.94440   0.30892   0.66829   0.00000  Uiso   1.00
N852   N     0.75034   0.04480   0.81392   0.00000  Uiso   1.00
H853   H     0.76116   0.05896   0.83888   0.00000  Uiso   1.00
H854   H     0.72233   0.02445   0.83195   0.00000  Uiso   1.00
N855   N     0.98230   0.12078   0.68083   0.00000  Uiso   1.00
H856   H     0.97567   0.14224   0.65889   0.00000  Uiso   1.00
H857   H     0.95299   0.10097   0.69500   0.00000  Uiso   1.00
N858   N     0.68426   0.21194   0.81964   0.00000  Uiso   1.00
H859   H     0.71377   0.23160   0.80572   0.00000  Uiso   1.00
H860   H     0.69059   0.19021   0.84152   0.00000  Uiso   1.00
O861   O     0.74162   0.11760   0.68792   0.00000  Uiso   1.00
H862   H     0.72930   0.09935   0.66907   0.00000  Uiso   1.00
O863   O     0.92474   0.21498   0.81285   0.00000  Uiso   1.00
H864   H     0.93667   0.23234   0.83271   0.00000  Uiso   1.00
C865   C     0.16677   0.57985   0.74932   0.00000  Uiso   1.00
C866   C     0.16655   0.42015   0.75071   0.00000  Uiso   1.00
C867   C     0.12019   0.45760   0.54457   0.00000  Uiso   1.00
C868   C     0.22727   0.49739   0.94559   0.00000  Uiso   1.00
C869   C     0.08648   0.45248   0.52405   0.00000  Uiso   1.00
C870   C     0.26116   0.50235   0.96585   0.00000  Uiso   1.00
C871   C     0.20821   0.64476   0.71874   0.00000  Uiso   1.00
C872   C     0.12512   0.35526   0.78137   0.00000  Uiso   1.00
C873   C     0.20770   0.35460   0.72072   0.00000  Uiso   1.00
C874   C     0.12561   0.64542   0.77936   0.00000  Uiso   1.00
C875   C     0.16647   0.37599   0.75149   0.00000  Uiso   1.00
C876   C     0.16684   0.62402   0.74858   0.00000  Uiso   1.00
C877   C     0.32322   0.47662   0.71752   0.00000  Uiso   1.00
C878   C     0.01006   0.52316   0.78269   0.00000  Uiso   1.00
C879   C     0.03767   0.47586   0.71834   0.00000  Uiso   1.00
C880   C     0.29556   0.52387   0.78193   0.00000  Uiso   1.00
C881   C     0.13608   0.49978   0.83801   0.00000  Uiso   1.00
C882   C     0.19730   0.49939   0.66195   0.00000  Uiso   1.00
C883   C     0.11764   0.49403   0.88839   0.00000  Uiso   1.00
C884   C     0.21675   0.49672   0.61096   0.00000  Uiso   1.00
C885   C     0.06229   0.46192   0.95852   0.00000  Uiso   1.00
C886   C     0.27989   0.50790   0.53501   0.00000  Uiso   1.00
C887   C     0.07319   0.47485   0.91283   0.00000  Uiso   1.00
C888   C     0.26472   0.50722   0.58350   0.00000  Uiso   1.00
C889   C     0.14990   0.50146   0.91020   0.00000  Uiso   1.00
C890   C     0.18514   0.48471   0.58973   0.00000  Uiso   1.00
C891   C     0.14220   0.48488   0.95374   0.00000  Uiso   1.00
C892   C     0.19937   0.48504   0.54130   0.00000  Uiso   1.00
C893   C     0.09667   0.46652   0.97904   0.00000  Uiso   1.00
C894   C     0.24718   0.49803   0.51383   0.00000  Uiso   1.00
C895   C     0.17852   0.48656   0.97271   0.00000  Uiso   1.00
C896   C     0.16590   0.47613   0.52006   0.00000  Uiso   1.00
H897   H     0.05208   0.43788   0.54373   0.00000  Uiso   1.00
H898   H     0.29792   0.51124   0.94414   0.00000  Uiso   1.00
H899   H     0.14830   0.47765   0.61195   0.00000  Uiso   1.00
H900   H     0.18177   0.51951   0.89181   0.00000  Uiso   1.00
H901   H     0.28972   0.51650   0.59947   0.00000  Uiso   1.00
H902   H     0.04793   0.46852   0.89618   0.00000  Uiso   1.00
H903   H     0.02783   0.44703   0.97719   0.00000  Uiso   1.00
H904   H     0.31649   0.51779   0.51424   0.00000  Uiso   1.00
H905   H     0.11008   0.44529   0.57917   0.00000  Uiso   1.00
H906   H     0.24065   0.50123   0.90824   0.00000  Uiso   1.00
H907   H     0.23875   0.37156   0.69753   0.00000  Uiso   1.00
H908   H     0.09455   0.62844   0.80253   0.00000  Uiso   1.00
N909   N     0.04759   0.50001   0.75001   0.00000  Uiso   1.00
N910   N     0.28574   0.49999   0.74999   0.00000  Uiso   1.00
O911   O     0.12846   0.56108   0.75001   0.00000  Uiso   1.00
O912   O     0.20488   0.43892   0.75000   0.00000  Uiso   1.00
O913   O     0.20490   0.56107   0.75000   0.00000  Uiso   1.00
O914   O     0.12843   0.43893   0.75000   0.00000  Uiso   1.00
O915   O     0.10661   0.50001   0.81613   0.00000  Uiso   1.00
O916   O     0.22672   0.49999   0.68388   0.00000  Uiso   1.00
O917   O     0.18305   0.50000   0.81612   0.00000  Uiso   1.00
O918   O     0.15028   0.50000   0.68388   0.00000  Uiso   1.00
Zn919  Zn    0.11562   0.50001   0.75000   0.00000  Uiso   1.00
Zn920  Zn    0.21771   0.49999   0.75000   0.00000  Uiso   1.00
N921   N     0.24972   0.62189   0.68627   0.00000  Uiso   1.00
H922   H     0.23898   0.60772   0.66126   0.00000  Uiso   1.00
H923   H     0.27774   0.64226   0.66829   0.00000  Uiso   1.00
N924   N     0.08367   0.37814   0.81392   0.00000  Uiso   1.00
H925   H     0.09449   0.39230   0.83888   0.00000  Uiso   1.00
H926   H     0.05567   0.35778   0.83195   0.00000  Uiso   1.00
N927   N     0.31563   0.45412   0.68083   0.00000  Uiso   1.00
H928   H     0.30901   0.47558   0.65889   0.00000  Uiso   1.00
H929   H     0.28633   0.43430   0.69500   0.00000  Uiso   1.00
N930   N     0.01760   0.54527   0.81964   0.00000  Uiso   1.00
H931   H     0.04710   0.56494   0.80572   0.00000  Uiso   1.00
H932   H     0.02393   0.52354   0.84152   0.00000  Uiso   1.00
O933   O     0.07495   0.45094   0.68792   0.00000  Uiso   1.00
H934   H     0.06263   0.43268   0.66907   0.00000  Uiso   1.00
O935   O     0.25807   0.54831   0.81285   0.00000  Uiso   1.00
H936   H     0.27000   0.56568   0.83271   0.00000  Uiso   1.00
C937   C     0.50010   0.57985   0.74932   0.00000  Uiso   1.00
C938   C     0.49988   0.42015   0.75071   0.00000  Uiso   1.00
C939   C     0.45352   0.45760   0.54457   0.00000  Uiso   1.00
C940   C     0.56061   0.49739   0.94559   0.00000  Uiso   1.00
C941   C     0.41981   0.45248   0.52405   0.00000  Uiso   1.00
C942   C     0.59450   0.50235   0.96585   0.00000  Uiso   1.00
C943   C     0.54154   0.64476   0.71874   0.00000  Uiso   1.00
C944   C     0.45845   0.35526   0.78137   0.00000  Uiso   1.00
C945   C     0.54103   0.35460   0.72072   0.00000  Uiso   1.00
C946   C     0.45894   0.64542   0.77936   0.00000  Uiso   1.00
C947   C     0.49981   0.37599   0.75149   0.00000  Uiso   1.00
C948   C     0.50017   0.62402   0.74858   0.00000  Uiso   1.00
C949   C     0.65655   0.47662   0.71752   0.00000  Uiso   1.00
C950   C     0.34339   0.52316   0.78269   0.00000  Uiso   1.00
C951   C     0.37101   0.47586   0.71834   0.00000  Uiso   1.00
C952   C     0.62889   0.52387   0.78193   0.00000  Uiso   1.00
C953   C     0.46941   0.49978   0.83801   0.00000  Uiso   1.00
C954   C     0.53064   0.49939   0.66195   0.00000  Uiso   1.00
C955   C     0.45098   0.49403   0.88839   0.00000  Uiso   1.00
C956   C     0.55008   0.49672   0.61096   0.00000  Uiso   1.00
C957   C     0.39563   0.46192   0.95852   0.00000  Uiso   1.00
C958   C     0.61322   0.50790   0.53501   0.00000  Uiso   1.00
C959   C     0.40653   0.47485   0.91283   0.00000  Uiso   1.00
C960   C     0.59805   0.50722   0.58350   0.00000  Uiso   1.00
C961   C     0.48323   0.50146   0.91020   0.00000  Uiso   1.00
C962   C     0.51848   0.48471   0.58973   0.00000  Uiso   1.00
C963   C     0.47553   0.48488   0.95374   0.00000  Uiso   1.00
C964   C     0.53270   0.48504   0.54130   0.00000  Uiso   1.00
C965   C     0.43001   0.46652   0.97904   0.00000  Uiso   1.00
C966   C     0.58051   0.49803   0.51383   0.00000  Uiso   1.00
C967   C     0.51185   0.48656   0.97271   0.00000  Uiso   1.00
C968   C     0.49924   0.47613   0.52006   0.00000  Uiso   1.00
H969   H     0.38541   0.43788   0.54373   0.00000  Uiso   1.00
H970   H     0.63126   0.51124   0.94414   0.00000  Uiso   1.00
H971   H     0.48164   0.47765   0.61195   0.00000  Uiso   1.00
H972   H     0.51510   0.51951   0.89181   0.00000  Uiso   1.00
H973   H     0.62305   0.51650   0.59947   0.00000  Uiso   1.00
H974   H     0.38127   0.46852   0.89618   0.00000  Uiso   1.00
H975   H     0.36117   0.44703   0.97719   0.00000  Uiso   1.00
H976   H     0.64982   0.51779   0.51424   0.00000  Uiso   1.00
H977   H     0.44341   0.44529   0.57917   0.00000  Uiso   1.00
H978   H     0.57399   0.50123   0.90824   0.00000  Uiso   1.00
H979   H     0.57208   0.37156   0.69753   0.00000  Uiso   1.00
H980   H     0.42788   0.62844   0.80253   0.00000  Uiso   1.00
N981   N     0.38093   0.50001   0.75001   0.00000  Uiso   1.00
N982   N     0.61907   0.49999   0.74999   0.00000  Uiso   1.00
O983   O     0.46179   0.56108   0.75001   0.00000  Uiso   1.00
O984   O     0.53821   0.43892   0.75000   0.00000  Uiso   1.00
O985   O     0.53823   0.56107   0.75000   0.00000  Uiso   1.00
O986   O     0.46177   0.43893   0.75000   0.00000  Uiso   1.00
O987   O     0.43994   0.50001   0.81613   0.00000  Uiso   1.00
O988   O     0.56006   0.49999   0.68388   0.00000  Uiso   1.00
O989   O     0.51639   0.50000   0.81612   0.00000  Uiso   1.00
O990   O     0.48361   0.50000   0.68388   0.00000  Uiso   1.00
Zn991  Zn    0.44896   0.50001   0.75000   0.00000  Uiso   1.00
Zn992  Zn    0.55104   0.49999   0.75000   0.00000  Uiso   1.00
N993   N     0.58305   0.62189   0.68627   0.00000  Uiso   1.00
H994   H     0.57232   0.60772   0.66126   0.00000  Uiso   1.00
H995   H     0.61107   0.64226   0.66829   0.00000  Uiso   1.00
N996   N     0.41700   0.37814   0.81392   0.00000  Uiso   1.00
H997   H     0.42782   0.39230   0.83888   0.00000  Uiso   1.00
H998   H     0.38900   0.35778   0.83195   0.00000  Uiso   1.00
N999   N     0.64897   0.45412   0.68083   0.00000  Uiso   1.00
H1000  H     0.64234   0.47558   0.65889   0.00000  Uiso   1.00
H1001  H     0.61966   0.43430   0.69500   0.00000  Uiso   1.00
N1002  N     0.35093   0.54527   0.81964   0.00000  Uiso   1.00
H1003  H     0.38043   0.56494   0.80572   0.00000  Uiso   1.00
H1004  H     0.35726   0.52354   0.84152   0.00000  Uiso   1.00
O1005  O     0.40828   0.45094   0.68792   0.00000  Uiso   1.00
H1006  H     0.39597   0.43268   0.66907   0.00000  Uiso   1.00
O1007  O     0.59141   0.54831   0.81285   0.00000  Uiso   1.00
H1008  H     0.60333   0.56568   0.83271   0.00000  Uiso   1.00
C1009  C     0.83344   0.57985   0.74932   0.00000  Uiso   1.00
C1010  C     0.83321   0.42015   0.75071   0.00000  Uiso   1.00
C1011  C     0.78686   0.45760   0.54457   0.00000  Uiso   1.00
C1012  C     0.89394   0.49739   0.94559   0.00000  Uiso   1.00
C1013  C     0.75315   0.45248   0.52405   0.00000  Uiso   1.00
C1014  C     0.92783   0.50235   0.96585   0.00000  Uiso   1.00
C1015  C     0.87488   0.64476   0.71874   0.00000  Uiso   1.00
C1016  C     0.79179   0.35526   0.78137   0.00000  Uiso   1.00
C1017  C     0.87437   0.35460   0.72072   0.00000  Uiso   1.00
C1018  C     0.79227   0.64542   0.77936   0.00000  Uiso   1.00
C1019  C     0.83314   0.37599   0.75149   0.00000  Uiso   1.00
C1020  C     0.83350   0.62402   0.74858   0.00000  Uiso   1.00
C1021  C     0.98988   0.47662   0.71752   0.00000  Uiso   1.00
C1022  C     0.67673   0.52316   0.78269   0.00000  Uiso   1.00
C1023  C     0.70434   0.47586   0.71834   0.00000  Uiso   1.00
C1024  C     0.96222   0.52387   0.78193   0.00000  Uiso   1.00
C1025  C     0.80275   0.49978   0.83801   0.00000  Uiso   1.00
C1026  C     0.86397   0.49939   0.66195   0.00000  Uiso   1.00
C1027  C     0.78431   0.49403   0.88839   0.00000  Uiso   1.00
C1028  C     0.88341   0.49672   0.61096   0.00000  Uiso   1.00
C1029  C     0.72896   0.46192   0.95852   0.00000  Uiso   1.00
C1030  C     0.94655   0.50790   0.53501   0.00000  Uiso   1.00
C1031  C     0.73986   0.47485   0.91283   0.00000  Uiso   1.00
C1032  C     0.93139   0.50722   0.58350   0.00000  Uiso   1.00
C1033  C     0.81656   0.50146   0.91020   0.00000  Uiso   1.00
C1034  C     0.85181   0.48471   0.58973   0.00000  Uiso   1.00
C1035  C     0.80886   0.48488   0.95374   0.00000  Uiso   1.00
C1036  C     0.86603   0.48504   0.54130   0.00000  Uiso   1.00
C1037  C     0.76334   0.46652   0.97904   0.00000  Uiso   1.00
C1038  C     0.91385   0.49803   0.51383   0.00000  Uiso   1.00
C1039  C     0.84518   0.48656   0.97271   0.00000  Uiso   1.00
C1040  C     0.83257   0.47613   0.52006   0.00000  Uiso   1.00
H1041  H     0.71875   0.43788   0.54373   0.00000  Uiso   1.00
H1042  H     0.96459   0.51124   0.94414   0.00000  Uiso   1.00
H1043  H     0.81497   0.47765   0.61195   0.00000  Uiso   1.00
H1044  H     0.84843   0.51951   0.89181   0.00000  Uiso   1.00
H1045  H     0.95638   0.51650   0.59947   0.00000  Uiso   1.00
H1046  H     0.71460   0.46852   0.89618   0.00000  Uiso   1.00
H1047  H     0.69450   0.44703   0.97719   0.00000  Uiso   1.00
H1048  H     0.98315   0.51779   0.51424   0.00000  Uiso   1.00
H1049  H     0.77674   0.44529   0.57917   0.00000  Uiso   1.00
H1050  H     0.90732   0.50123   0.90824   0.00000  Uiso   1.00
H1051  H     0.90541   0.37156   0.69753   0.00000  Uiso   1.00
H1052  H     0.76121   0.62844   0.80253   0.00000  Uiso   1.00
N1053  N     0.71426   0.50001   0.75001   0.00000  Uiso   1.00
N1054  N     0.95241   0.49999   0.74999   0.00000  Uiso   1.00
O1055  O     0.79512   0.56108   0.75001   0.00000  Uiso   1.00
O1056  O     0.87154   0.43892   0.75000   0.00000  Uiso   1.00
O1057  O     0.87157   0.56107   0.75000   0.00000  Uiso   1.00
O1058  O     0.79510   0.43893   0.75000   0.00000  Uiso   1.00
O1059  O     0.77328   0.50001   0.81613   0.00000  Uiso   1.00
O1060  O     0.89339   0.49999   0.68388   0.00000  Uiso   1.00
O1061  O     0.84972   0.50000   0.81612   0.00000  Uiso   1.00
O1062  O     0.81695   0.50000   0.68388   0.00000  Uiso   1.00
Zn1063 Zn    0.78229   0.50001   0.75000   0.00000  Uiso   1.00
Zn1064 Zn    0.88438   0.49999   0.75000   0.00000  Uiso   1.00
N1065  N     0.91638   0.62189   0.68627   0.00000  Uiso   1.00
H1066  H     0.90565   0.60772   0.66126   0.00000  Uiso   1.00
H1067  H     0.94440   0.64226   0.66829   0.00000  Uiso   1.00
N1068  N     0.75034   0.37814   0.81392   0.00000  Uiso   1.00
H1069  H     0.76116   0.39230   0.83888   0.00000  Uiso   1.00
H1070  H     0.72233   0.35778   0.83195   0.00000  Uiso   1.00
N1071  N     0.98230   0.45412   0.68083   0.00000  Uiso   1.00
H1072  H     0.97567   0.47558   0.65889   0.00000  Uiso   1.00
H1073  H     0.95299   0.43430   0.69500   0.00000  Uiso   1.00
N1074  N     0.68426   0.54527   0.81964   0.00000  Uiso   1.00
H1075  H     0.71377   0.56494   0.80572   0.00000  Uiso   1.00
H1076  H     0.69059   0.52354   0.84152   0.00000  Uiso   1.00
O1077  O     0.74162   0.45094   0.68792   0.00000  Uiso   1.00
H1078  H     0.72930   0.43268   0.66907   0.00000  Uiso   1.00
O1079  O     0.92474   0.54831   0.81285   0.00000  Uiso   1.00
H1080  H     0.93667   0.56568   0.83271   0.00000  Uiso   1.00
C1081  C     0.16677   0.91319   0.74932   0.00000  Uiso   1.00
C1082  C     0.16655   0.75349   0.75071   0.00000  Uiso   1.00
C1083  C     0.12019   0.79094   0.54457   0.00000  Uiso   1.00
C1084  C     0.22727   0.83072   0.94559   0.00000  Uiso   1.00
C1085  C     0.08648   0.78582   0.52405   0.00000  Uiso   1.00
C1086  C     0.26116   0.83569   0.96585   0.00000  Uiso   1.00
C1087  C     0.20821   0.97810   0.71874   0.00000  Uiso   1.00
C1088  C     0.12512   0.68859   0.78137   0.00000  Uiso   1.00
C1089  C     0.20770   0.68793   0.72072   0.00000  Uiso   1.00
C1090  C     0.12561   0.97875   0.77936   0.00000  Uiso   1.00
C1091  C     0.16647   0.70933   0.75149   0.00000  Uiso   1.00
C1092  C     0.16684   0.95735   0.74858   0.00000  Uiso   1.00
C1093  C     0.32322   0.80996   0.71752   0.00000  Uiso   1.00
C1094  C     0.01006   0.85649   0.78269   0.00000  Uiso   1.00
C1095  C     0.03767   0.80920   0.71834   0.00000  Uiso   1.00
C1096  C     0.29556   0.85720   0.78193   0.00000  Uiso   1.00
C1097  C     0.13608   0.83311   0.83801   0.00000  Uiso   1.00
C1098  C     0.19730   0.83273   0.66195   0.00000  Uiso   1.00
C1099  C     0.11764   0.82736   0.88839   0.00000  Uiso   1.00
C1100  C     0.21675   0.83005   0.61096   0.00000  Uiso   1.00
C1101  C     0.06229   0.79526   0.95852   0.00000  Uiso   1.00
C1102  C     0.27989   0.84123   0.53501   0.00000  Uiso   1.00
C1103  C     0.07319   0.80818   0.91283   0.00000  Uiso   1.00
C1104  C     0.26472   0.84056   0.58350   0.00000  Uiso   1.00
C1105  C     0.14990   0.83479   0.91020   0.00000  Uiso   1.00
C1106  C     0.18514   0.81805   0.58973   0.00000  Uiso   1.00
C1107  C     0.14220   0.81821   0.95374   0.00000  Uiso   1.00
C1108  C     0.19937   0.81837   0.54130   0.00000  Uiso   1.00
C1109  C     0.09667   0.79985   0.97904   0.00000  Uiso   1.00
C1110  C     0.24718   0.83137   0.51383   0.00000  Uiso   1.00
C1111  C     0.17852   0.81990   0.97271   0.00000  Uiso   1.00
C1112  C     0.16590   0.80947   0.52006   0.00000  Uiso   1.00
H1113  H     0.05208   0.77121   0.54373   0.00000  Uiso   1.00
H1114  H     0.29792   0.84458   0.94414   0.00000  Uiso   1.00
H1115  H     0.14830   0.81099   0.61195   0.00000  Uiso   1.00
H1116  H     0.18177   0.85285   0.89181   0.00000  Uiso   1.00
H1117  H     0.28972   0.84983   0.59947   0.00000  Uiso   1.00
H1118  H     0.04793   0.80185   0.89618   0.00000  Uiso   1.00
H1119  H     0.02783   0.78037   0.97719   0.00000  Uiso   1.00
H1120  H     0.31649   0.85112   0.51424   0.00000  Uiso   1.00
H1121  H     0.11008   0.77863   0.57917   0.00000  Uiso   1.00
H1122  H     0.24065   0.83457   0.90824   0.00000  Uiso   1.00
H1123  H     0.23875   0.70490   0.69753   0.00000  Uiso   1.00
H1124  H     0.09455   0.96178   0.80253   0.00000  Uiso   1.00
N1125  N     0.04759   0.83334   0.75001   0.00000  Uiso   1.00
N1126  N     0.28574   0.83332   0.74999   0.00000  Uiso   1.00
O1127  O     0.12846   0.89442   0.75001   0.00000  Uiso   1.00
O1128  O     0.20488   0.77225   0.75000   0.00000  Uiso   1.00
O1129  O     0.20490   0.89441   0.75000   0.00000  Uiso   1.00
O1130  O     0.12843   0.77226   0.75000   0.00000  Uiso   1.00
O1131  O     0.10661   0.83334   0.81613   0.00000  Uiso   1.00
O1132  O     0.22672   0.83333   0.68388   0.00000  Uiso   1.00
O1133  O     0.18305   0.83333   0.81612   0.00000  Uiso   1.00
O1134  O     0.15028   0.83334   0.68388   0.00000  Uiso   1.00
Zn1135 Zn    0.11562   0.83334   0.75000   0.00000  Uiso   1.00
Zn1136 Zn    0.21771   0.83333   0.75000   0.00000  Uiso   1.00
N1137  N     0.24972   0.95523   0.68627   0.00000  Uiso   1.00
H1138  H     0.23898   0.94105   0.66126   0.00000  Uiso   1.00
H1139  H     0.27774   0.97559   0.66829   0.00000  Uiso   1.00
N1140  N     0.08367   0.71147   0.81392   0.00000  Uiso   1.00
H1141  H     0.09449   0.72563   0.83888   0.00000  Uiso   1.00
H1142  H     0.05567   0.69112   0.83195   0.00000  Uiso   1.00
N1143  N     0.31563   0.78745   0.68083   0.00000  Uiso   1.00
H1144  H     0.30901   0.80891   0.65889   0.00000  Uiso   1.00
H1145  H     0.28633   0.76763   0.69500   0.00000  Uiso   1.00
N1146  N     0.01760   0.87861   0.81964   0.00000  Uiso   1.00
H1147  H     0.04710   0.89827   0.80572   0.00000  Uiso   1.00
H1148  H     0.02393   0.85687   0.84152   0.00000  Uiso   1.00
O1149  O     0.07495   0.78427   0.68792   0.00000  Uiso   1.00
H1150  H     0.06263   0.76601   0.66907   0.00000  Uiso   1.00
O1151  O     0.25807   0.88164   0.81285   0.00000  Uiso   1.00
H1152  H     0.27000   0.89901   0.83271   0.00000  Uiso   1.00
C1153  C     0.50010   0.91319   0.74932   0.00000  Uiso   1.00
C1154  C     0.49988   0.75349   0.75071   0.00000  Uiso   1.00
C1155  C     0.45352   0.79094   0.54457   0.00000  Uiso   1.00
C1156  C     0.56061   0.83072   0.94559   0.00000  Uiso   1.00
C1157  C     0.41981   0.78582   0.52405   0.00000  Uiso   1.00
C1158  C     0.59450   0.83569   0.96585   0.00000  Uiso   1.00
C1159  C     0.54154   0.97810   0.71874   0.00000  Uiso   1.00
C1160  C     0.45845   0.68859   0.78137   0.00000  Uiso   1.00
C1161  C     0.54103   0.68793   0.72072   0.00000  Uiso   1.00
C1162  C     0.45894   0.97875   0.77936   0.00000  Uiso   1.00
C1163  C     0.49981   0.70933   0.75149   0.00000  Uiso   1.00
C1164  C     0.50017   0.95735   0.74858   0.00000  Uiso   1.00
C1165  C     0.65655   0.80996   0.71752   0.00000  Uiso   1.00
C1166  C     0.34339   0.85649   0.78269   0.00000  Uiso   1.00
C1167  C     0.37101   0.80920   0.71834   0.00000  Uiso   1.00
C1168  C     0.62889   0.85720   0.78193   0.00000  Uiso   1.00
C1169  C     0.46941   0.83311   0.83801   0.00000  Uiso   1.00
C1170  C     0.53064   0.83273   0.66195   0.00000  Uiso   1.00
C1171  C     0.45098   0.82736   0.88839   0.00000  Uiso   1.00
C1172  C     0.55008   0.83005   0.61096   0.00000  Uiso   1.00
C1173  C     0.39563   0.79526   0.95852   0.00000  Uiso   1.00
C1174  C     0.61322   0.84123   0.53501   0.00000  Uiso   1.00
C1175  C     0.40653   0.80818   0.91283   0.00000  Uiso   1.00
C1176  C     0.59805   0.84056   0.58350   0.00000  Uiso   1.00
C1177  C     0.48323   0.83479   0.91020   0.00000  Uiso   1.00
C1178  C     0.51848   0.81805   0.58973   0.00000  Uiso   1.00
C1179  C     0.47553   0.81821   0.95374   0.00000  Uiso   1.00
C1180  C     0.53270   0.81837   0.54130   0.00000  Uiso   1.00
C1181  C     0.43001   0.79985   0.97904   0.00000  Uiso   1.00
C1182  C     0.58051   0.83137   0.51383   0.00000  Uiso   1.00
C1183  C     0.51185   0.81990   0.97271   0.00000  Uiso   1.00
C1184  C     0.49924   0.80947   0.52006   0.00000  Uiso   1.00
H1185  H     0.38541   0.77121   0.54373   0.00000  Uiso   1.00
H1186  H     0.63126   0.84458   0.94414   0.00000  Uiso   1.00
H1187  H     0.48164   0.81099   0.61195   0.00000  Uiso   1.00
H1188  H     0.51510   0.85285   0.89181   0.00000  Uiso   1.00
H1189  H     0.62305   0.84983   0.59947   0.00000  Uiso   1.00
H1190  H     0.38127   0.80185   0.89618   0.00000  Uiso   1.00
H1191  H     0.36117   0.78037   0.97719   0.00000  Uiso   1.00
H1192  H     0.64982   0.85112   0.51424   0.00000  Uiso   1.00
H1193  H     0.44341   0.77863   0.57917   0.00000  Uiso   1.00
H1194  H     0.57399   0.83457   0.90824   0.00000  Uiso   1.00
H1195  H     0.57208   0.70490   0.69753   0.00000  Uiso   1.00
H1196  H     0.42788   0.96178   0.80253   0.00000  Uiso   1.00
N1197  N     0.38093   0.83334   0.75001   0.00000  Uiso   1.00
N1198  N     0.61907   0.83332   0.74999   0.00000  Uiso   1.00
O1199  O     0.46179   0.89442   0.75001   0.00000  Uiso   1.00
O1200  O     0.53821   0.77225   0.75000   0.00000  Uiso   1.00
O1201  O     0.53823   0.89441   0.75000   0.00000  Uiso   1.00
O1202  O     0.46177   0.77226   0.75000   0.00000  Uiso   1.00
O1203  O     0.43994   0.83334   0.81613   0.00000  Uiso   1.00
O1204  O     0.56006   0.83333   0.68388   0.00000  Uiso   1.00
O1205  O     0.51639   0.83333   0.81612   0.00000  Uiso   1.00
O1206  O     0.48361   0.83334   0.68388   0.00000  Uiso   1.00
Zn1207 Zn    0.44896   0.83334   0.75000   0.00000  Uiso   1.00
Zn1208 Zn    0.55104   0.83333   0.75000   0.00000  Uiso   1.00
N1209  N     0.58305   0.95523   0.68627   0.00000  Uiso   1.00
H1210  H     0.57232   0.94105   0.66126   0.00000  Uiso   1.00
H1211  H     0.61107   0.97559   0.66829   0.00000  Uiso   1.00
N1212  N     0.41700   0.71147   0.81392   0.00000  Uiso   1.00
H1213  H     0.42782   0.72563   0.83888   0.00000  Uiso   1.00
H1214  H     0.38900   0.69112   0.83195   0.00000  Uiso   1.00
N1215  N     0.64897   0.78745   0.68083   0.00000  Uiso   1.00
H1216  H     0.64234   0.80891   0.65889   0.00000  Uiso   1.00
H1217  H     0.61966   0.76763   0.69500   0.00000  Uiso   1.00
N1218  N     0.35093   0.87861   0.81964   0.00000  Uiso   1.00
H1219  H     0.38043   0.89827   0.80572   0.00000  Uiso   1.00
H1220  H     0.35726   0.85687   0.84152   0.00000  Uiso   1.00
O1221  O     0.40828   0.78427   0.68792   0.00000  Uiso   1.00
H1222  H     0.39597   0.76601   0.66907   0.00000  Uiso   1.00
O1223  O     0.59141   0.88164   0.81285   0.00000  Uiso   1.00
H1224  H     0.60333   0.89901   0.83271   0.00000  Uiso   1.00
C1225  C     0.83344   0.91319   0.74932   0.00000  Uiso   1.00
C1226  C     0.83321   0.75349   0.75071   0.00000  Uiso   1.00
C1227  C     0.78686   0.79094   0.54457   0.00000  Uiso   1.00
C1228  C     0.89394   0.83072   0.94559   0.00000  Uiso   1.00
C1229  C     0.75315   0.78582   0.52405   0.00000  Uiso   1.00
C1230  C     0.92783   0.83569   0.96585   0.00000  Uiso   1.00
C1231  C     0.87488   0.97810   0.71874   0.00000  Uiso   1.00
C1232  C     0.79179   0.68859   0.78137   0.00000  Uiso   1.00
C1233  C     0.87437   0.68793   0.72072   0.00000  Uiso   1.00
C1234  C     0.79227   0.97875   0.77936   0.00000  Uiso   1.00
C1235  C     0.83314   0.70933   0.75149   0.00000  Uiso   1.00
C1236  C     0.83350   0.95735   0.74858   0.00000  Uiso   1.00
C1237  C     0.98988   0.80996   0.71752   0.00000  Uiso   1.00
C1238  C     0.67673   0.85649   0.78269   0.00000  Uiso   1.00
C1239  C     0.70434   0.80920   0.71834   0.00000  Uiso   1.00
C1240  C     0.96222   0.85720   0.78193   0.00000  Uiso   1.00
C1241  C     0.80275   0.83311   0.83801   0.00000  Uiso   1.00
C1242  C     0.86397   0.83273   0.66195   0.00000  Uiso   1.00
C1243  C     0.78431   0.82736   0.88839   0.00000  Uiso   1.00
C1244  C     0.88341   0.83005   0.61096   0.00000  Uiso   1.00
C1245  C     0.72896   0.79526   0.95852   0.00000  Uiso   1.00
C1246  C     0.94655   0.84123   0.53501   0.00000  Uiso   1.00
C1247  C     0.73986   0.80818   0.91283   0.00000  Uiso   1.00
C1248  C     0.93139   0.84056   0.58350   0.00000  Uiso   1.00
C1249  C     0.81656   0.83479   0.91020   0.00000  Uiso   1.00
C1250  C     0.85181   0.81805   0.58973   0.00000  Uiso   1.00
C1251  C     0.80886   0.81821   0.95374   0.00000  Uiso   1.00
C1252  C     0.86603   0.81837   0.54130   0.00000  Uiso   1.00
C1253  C     0.76334   0.79985   0.97904   0.00000  Uiso   1.00
C1254  C     0.91385   0.83137   0.51383   0.00000  Uiso   1.00
C1255  C     0.84518   0.81990   0.97271   0.00000  Uiso   1.00
C1256  C     0.83257   0.80947   0.52006   0.00000  Uiso   1.00
H1257  H     0.71875   0.77121   0.54373   0.00000  Uiso   1.00
H1258  H     0.96459   0.84458   0.94414   0.00000  Uiso   1.00
H1259  H     0.81497   0.81099   0.61195   0.00000  Uiso   1.00
H1260  H     0.84843   0.85285   0.89181   0.00000  Uiso   1.00
H1261  H     0.95638   0.84983   0.59947   0.00000  Uiso   1.00
H1262  H     0.71460   0.80185   0.89618   0.00000  Uiso   1.00
H1263  H     0.69450   0.78037   0.97719   0.00000  Uiso   1.00
H1264  H     0.98315   0.85112   0.51424   0.00000  Uiso   1.00
H1265  H     0.77674   0.77863   0.57917   0.00000  Uiso   1.00
H1266  H     0.90732   0.83457   0.90824   0.00000  Uiso   1.00
H1267  H     0.90541   0.70490   0.69753   0.00000  Uiso   1.00
H1268  H     0.76121   0.96178   0.80253   0.00000  Uiso   1.00
N1269  N     0.71426   0.83334   0.75001   0.00000  Uiso   1.00
N1270  N     0.95241   0.83332   0.74999   0.00000  Uiso   1.00
O1271  O     0.79512   0.89442   0.75001   0.00000  Uiso   1.00
O1272  O     0.87154   0.77225   0.75000   0.00000  Uiso   1.00
O1273  O     0.87157   0.89441   0.75000   0.00000  Uiso   1.00
O1274  O     0.79510   0.77226   0.75000   0.00000  Uiso   1.00
O1275  O     0.77328   0.83334   0.81613   0.00000  Uiso   1.00
O1276  O     0.89339   0.83333   0.68388   0.00000  Uiso   1.00
O1277  O     0.84972   0.83333   0.81612   0.00000  Uiso   1.00
O1278  O     0.81695   0.83334   0.68388   0.00000  Uiso   1.00
Zn1279 Zn    0.78229   0.83334   0.75000   0.00000  Uiso   1.00
Zn1280 Zn    0.88438   0.83333   0.75000   0.00000  Uiso   1.00
N1281  N     0.91638   0.95523   0.68627   0.00000  Uiso   1.00
H1282  H     0.90565   0.94105   0.66126   0.00000  Uiso   1.00
H1283  H     0.94440   0.97559   0.66829   0.00000  Uiso   1.00
N1284  N     0.75034   0.71147   0.81392   0.00000  Uiso   1.00
H1285  H     0.76116   0.72563   0.83888   0.00000  Uiso   1.00
H1286  H     0.72233   0.69112   0.83195   0.00000  Uiso   1.00
N1287  N     0.98230   0.78745   0.68083   0.00000  Uiso   1.00
H1288  H     0.97567   0.80891   0.65889   0.00000  Uiso   1.00
H1289  H     0.95299   0.76763   0.69500   0.00000  Uiso   1.00
N1290  N     0.68426   0.87861   0.81964   0.00000  Uiso   1.00
H1291  H     0.71377   0.89827   0.80572   0.00000  Uiso   1.00
H1292  H     0.69059   0.85687   0.84152   0.00000  Uiso   1.00
O1293  O     0.74162   0.78427   0.68792   0.00000  Uiso   1.00
H1294  H     0.72930   0.76601   0.66907   0.00000  Uiso   1.00
O1295  O     0.92474   0.88164   0.81285   0.00000  Uiso   1.00
H1296  H     0.93667   0.89901   0.83271   0.00000  Uiso   1.00
loop_
_geom_bond_atom_site_label_1
_geom_bond_atom_site_label_2
_geom_bond_distance
_geom_bond_site_symmetry_2
_ccdc_geom_bond_type
C1     O49     1.285   .     A
C1     O47     1.288   .     A
C1     C12     1.412   .     S
C2     O48     1.288   .     A
C2     O50     1.285   .     A
C2     C11     1.412   .     S
C3     H41     1.078   .     S
C3     C32     1.419   .     A
C3     C5      1.390   .     A
C4     C6      1.388   .     A
C4     H42     1.079   .     S
C4     C31     1.418   .     A
C5     H33     1.084   .     S
C5     C677    1.391   1_554 S
C6     H34     1.084   .     S
C6     C678    1.391   .     S
C7     C12     1.403   .     A
C7     N57     1.439   .     S
C7     C225    1.380   .     S
C8     N60     1.440   .     S
C8     C11     1.403   .     A
C8     C442    1.380   1_545 S
C9     C11     1.394   .     A
C9     H43     1.084   .     S
C9     C439    1.380   1_545 S
C10    C12     1.394   .     A
C10    H44     1.084   .     S
C10    C224    1.380   .     S
C13    N46     1.381   .     A
C13    N63     1.429   .     S
C13    C87     1.432   .     S
C14    N66     1.429   .     S
C14    N45     1.381   .     A
C14    C160    1.433   1_455 S
C15    O69     1.381   .     S
C15    N45     1.362   .     A
C15    C157    1.432   1_455 S
C16    O71     1.381   .     S
C16    N46     1.362   .     A
C16    C86     1.433   .     S
C17    O51     1.300   .     A
C17    O53     1.297   .     A
C17    C19     1.457   .     S
C18    O52     1.300   .     A
C18    C20     1.460   .     S
C18    O54     1.298   .     A
C19    C23     1.400   .     A
C19    C25     1.392   .     A
C20    C24     1.399   .     A
C20    C26     1.394   .     A
C21    C29     1.406   .     A
C21    H39     1.084   .     S
C21    C23     1.396   .     A
C22    H40     1.083   .     S
C22    C24     1.394   .     A
C22    C30     1.405   .     A
C23    H38     1.083   .     S
C24    H37     1.083   .     S
C25    C27     1.393   .     A
C25    H36     1.078   .     S
C26    H35     1.075   .     S
C26    C28     1.395   .     A
C27    C29     1.417   .     A
C27    C31     1.417   .     A
C28    C30     1.418   .     A
C28    C32     1.419   .     A
C29    C653    1.391   .     S
C30    C654    1.391   1_554 S
C31    C680    1.414   .     S
C32    C679    1.414   1_554 S
N45    Zn55    2.025   .     S
N46    Zn56    2.025   .     S
O47    Zn55    1.993   .     S
O48    Zn56    1.993   .     S
O49    Zn56    1.984   .     S
O50    Zn55    1.984   .     S
O51    Zn55    1.963   .     S
O52    Zn56    1.963   .     S
O53    Zn56    1.907   .     S
O54    Zn55    1.907   .     S
N57    H58     1.046   .     S
N57    H59     1.046   .     S
N60    H62     1.046   .     S
N60    H61     1.046   .     S
N63    H65     1.039   .     S
N63    H64     1.042   .     S
N66    H68     1.043   .     S
N66    H67     1.039   .     S
O69    H70     0.989   .     S
O71    H72     0.989   .     S
C73    O121    1.285   .     A
C73    O119    1.288   .     A
C73    C84     1.412   .     S
C74    O120    1.288   .     A
C74    O122    1.285   .     A
C74    C83     1.412   .     S
C75    H113    1.078   .     S
C75    C104    1.419   .     A
C75    C77     1.390   .     A
C76    C78     1.388   .     A
C76    H114    1.079   .     S
C76    C103    1.418   .     A
C77    H105    1.084   .     S
C77    C749    1.391   1_554 S
C78    H106    1.084   .     S
C78    C750    1.391   .     S
C79    C84     1.403   .     A
C79    N129    1.439   .     S
C79    C297    1.380   .     S
C80    N132    1.440   .     S
C80    C83     1.403   .     A
C80    C514    1.380   1_545 S
C81    C83     1.394   .     A
C81    H115    1.084   .     S
C81    C511    1.380   1_545 S
C82    C84     1.394   .     A
C82    H116    1.084   .     S
C82    C296    1.380   .     S
C85    N118    1.381   .     A
C85    N135    1.429   .     S
C85    C159    1.432   .     S
C86    N138    1.429   .     S
C86    N117    1.381   .     A
C87    O141    1.381   .     S
C87    N117    1.362   .     A
C88    O143    1.381   .     S
C88    N118    1.362   .     A
C88    C158    1.433   .     S
C89    O123    1.300   .     A
C89    O125    1.297   .     A
C89    C91     1.457   .     S
C90    O124    1.300   .     A
C90    C92     1.460   .     S
C90    O126    1.298   .     A
C91    C95     1.400   .     A
C91    C97     1.392   .     A
C92    C96     1.399   .     A
C92    C98     1.394   .     A
C93    C101    1.406   .     A
C93    H111    1.084   .     S
C93    C95     1.396   .     A
C94    H112    1.083   .     S
C94    C96     1.394   .     A
C94    C102    1.405   .     A
C95    H110    1.083   .     S
C96    H109    1.083   .     S
C97    C99     1.393   .     A
C97    H108    1.078   .     S
C98    H107    1.075   .     S
C98    C100    1.395   .     A
C99    C101    1.417   .     A
C99    C103    1.417   .     A
C100   C102    1.418   .     A
C100   C104    1.419   .     A
C101   C725    1.391   .     S
C102   C726    1.391   1_554 S
C103   C752    1.414   .     S
C104   C751    1.414   1_554 S
N117   Zn127   2.025   .     S
N118   Zn128   2.025   .     S
O119   Zn127   1.993   .     S
O120   Zn128   1.993   .     S
O121   Zn128   1.984   .     S
O122   Zn127   1.984   .     S
O123   Zn127   1.963   .     S
O124   Zn128   1.963   .     S
O125   Zn128   1.907   .     S
O126   Zn127   1.907   .     S
N129   H130    1.046   .     S
N129   H131    1.046   .     S
N132   H134    1.046   .     S
N132   H133    1.046   .     S
N135   H137    1.039   .     S
N135   H136    1.042   .     S
N138   H140    1.043   .     S
N138   H139    1.039   .     S
O141   H142    0.989   .     S
O143   H144    0.989   .     S
C145   O193    1.285   .     A
C145   O191    1.288   .     A
C145   C156    1.412   .     S
C146   O192    1.288   .     A
C146   O194    1.285   .     A
C146   C155    1.412   .     S
C147   H185    1.078   .     S
C147   C176    1.419   .     A
C147   C149    1.390   .     A
C148   C150    1.388   .     A
C148   H186    1.079   .     S
C148   C175    1.418   .     A
C149   H177    1.084   .     S
C149   C821    1.391   1_554 S
C150   H178    1.084   .     S
C150   C822    1.391   .     S
C151   C156    1.403   .     A
C151   N201    1.439   .     S
C151   C369    1.380   .     S
C152   N204    1.440   .     S
C152   C155    1.403   .     A
C152   C586    1.380   1_545 S
C153   C155    1.394   .     A
C153   H187    1.084   .     S
C153   C583    1.380   1_545 S
C154   C156    1.394   .     A
C154   H188    1.084   .     S
C154   C368    1.380   .     S
C157   N190    1.381   .     A
C157   N207    1.429   .     S
C157   C15     1.432   1_655 S
C158   N210    1.429   .     S
C158   N189    1.381   .     A
C159   O213    1.381   .     S
C159   N189    1.362   .     A
C160   O215    1.381   .     S
C160   N190    1.362   .     A
C160   C14     1.433   1_655 S
C161   O195    1.300   .     A
C161   O197    1.297   .     A
C161   C163    1.457   .     S
C162   O196    1.300   .     A
C162   C164    1.460   .     S
C162   O198    1.298   .     A
C163   C167    1.400   .     A
C163   C169    1.392   .     A
C164   C168    1.399   .     A
C164   C170    1.394   .     A
C165   C173    1.406   .     A
C165   H183    1.084   .     S
C165   C167    1.396   .     A
C166   H184    1.083   .     S
C166   C168    1.394   .     A
C166   C174    1.405   .     A
C167   H182    1.083   .     S
C168   H181    1.083   .     S
C169   C171    1.393   .     A
C169   H180    1.078   .     S
C170   H179    1.075   .     S
C170   C172    1.395   .     A
C171   C173    1.417   .     A
C171   C175    1.417   .     A
C172   C174    1.418   .     A
C172   C176    1.419   .     A
C173   C797    1.391   .     S
C174   C798    1.391   1_554 S
C175   C824    1.414   .     S
C176   C823    1.414   1_554 S
N189   Zn199   2.025   .     S
N190   Zn200   2.025   .     S
O191   Zn199   1.993   .     S
O192   Zn200   1.993   .     S
O193   Zn200   1.984   .     S
O194   Zn199   1.984   .     S
O195   Zn199   1.963   .     S
O196   Zn200   1.963   .     S
O197   Zn200   1.907   .     S
O198   Zn199   1.907   .     S
N201   H202    1.046   .     S
N201   H203    1.046   .     S
N204   H206    1.046   .     S
N204   H205    1.046   .     S
N207   H209    1.039   .     S
N207   H208    1.042   .     S
N210   H212    1.043   .     S
N210   H211    1.039   .     S
O213   H214    0.989   .     S
O215   H216    0.989   .     S
C217   O265    1.285   .     A
C217   O263    1.288   .     A
C217   C228    1.412   .     S
C218   O264    1.288   .     A
C218   O266    1.285   .     A
C218   C227    1.412   .     S
C219   H257    1.078   .     S
C219   C248    1.419   .     A
C219   C221    1.390   .     A
C220   C222    1.388   .     A
C220   H258    1.079   .     S
C220   C247    1.418   .     A
C221   H249    1.084   .     S
C221   C893    1.391   1_554 S
C222   H250    1.084   .     S
C222   C894    1.391   .     S
C223   C228    1.403   .     A
C223   N273    1.439   .     S
C223   C441    1.380   .     S
C224   N276    1.440   .     S
C224   C227    1.403   .     A
C225   C227    1.394   .     A
C225   H259    1.084   .     S
C226   C228    1.394   .     A
C226   H260    1.084   .     S
C226   C440    1.380   .     S
C229   N262    1.381   .     A
C229   N279    1.429   .     S
C229   C303    1.432   .     S
C230   N282    1.429   .     S
C230   N261    1.381   .     A
C230   C376    1.433   1_455 S
C231   O285    1.381   .     S
C231   N261    1.362   .     A
C231   C373    1.432   1_455 S
C232   O287    1.381   .     S
C232   N262    1.362   .     A
C232   C302    1.433   .     S
C233   O267    1.300   .     A
C233   O269    1.297   .     A
C233   C235    1.457   .     S
C234   O268    1.300   .     A
C234   C236    1.460   .     S
C234   O270    1.298   .     A
C235   C239    1.400   .     A
C235   C241    1.392   .     A
C236   C240    1.399   .     A
C236   C242    1.394   .     A
C237   C245    1.406   .     A
C237   H255    1.084   .     S
C237   C239    1.396   .     A
C238   H256    1.083   .     S
C238   C240    1.394   .     A
C238   C246    1.405   .     A
C239   H254    1.083   .     S
C240   H253    1.083   .     S
C241   C243    1.393   .     A
C241   H252    1.078   .     S
C242   H251    1.075   .     S
C242   C244    1.395   .     A
C243   C245    1.417   .     A
C243   C247    1.417   .     A
C244   C246    1.418   .     A
C244   C248    1.419   .     A
C245   C869    1.391   .     S
C246   C870    1.391   1_554 S
C247   C896    1.414   .     S
C248   C895    1.414   1_554 S
N261   Zn271   2.025   .     S
N262   Zn272   2.025   .     S
O263   Zn271   1.993   .     S
O264   Zn272   1.993   .     S
O265   Zn272   1.984   .     S
O266   Zn271   1.984   .     S
O267   Zn271   1.963   .     S
O268   Zn272   1.963   .     S
O269   Zn272   1.907   .     S
O270   Zn271   1.907   .     S
N273   H274    1.046   .     S
N273   H275    1.046   .     S
N276   H278    1.046   .     S
N276   H277    1.046   .     S
N279   H281    1.039   .     S
N279   H280    1.042   .     S
N282   H284    1.043   .     S
N282   H283    1.039   .     S
O285   H286    0.989   .     S
O287   H288    0.989   .     S
C289   O337    1.285   .     A
C289   O335    1.288   .     A
C289   C300    1.412   .     S
C290   O336    1.288   .     A
C290   O338    1.285   .     A
C290   C299    1.412   .     S
C291   H329    1.078   .     S
C291   C320    1.419   .     A
C291   C293    1.390   .     A
C292   C294    1.388   .     A
C292   H330    1.079   .     S
C292   C319    1.418   .     A
C293   H321    1.084   .     S
C293   C965    1.391   1_554 S
C294   H322    1.084   .     S
C294   C966    1.391   .     S
C295   C300    1.403   .     A
C295   N345    1.439   .     S
C295   C513    1.380   .     S
C296   N348    1.440   .     S
C296   C299    1.403   .     A
C297   C299    1.394   .     A
C297   H331    1.084   .     S
C298   C300    1.394   .     A
C298   H332    1.084   .     S
C298   C512    1.380   .     S
C301   N334    1.381   .     A
C301   N351    1.429   .     S
C301   C375    1.432   .     S
C302   N354    1.429   .     S
C302   N333    1.381   .     A
C303   O357    1.381   .     S
C303   N333    1.362   .     A
C304   O359    1.381   .     S
C304   N334    1.362   .     A
C304   C374    1.433   .     S
C305   O339    1.300   .     A
C305   O341    1.297   .     A
C305   C307    1.457   .     S
C306   O340    1.300   .     A
C306   C308    1.460   .     S
C306   O342    1.298   .     A
C307   C311    1.400   .     A
C307   C313    1.392   .     A
C308   C312    1.399   .     A
C308   C314    1.394   .     A
C309   C317    1.406   .     A
C309   H327    1.084   .     S
C309   C311    1.396   .     A
C310   H328    1.083   .     S
C310   C312    1.394   .     A
C310   C318    1.405   .     A
C311   H326    1.083   .     S
C312   H325    1.083   .     S
C313   C315    1.393   .     A
C313   H324    1.078   .     S
C314   H323    1.075   .     S
C314   C316    1.395   .     A
C315   C317    1.417   .     A
C315   C319    1.417   .     A
C316   C318    1.418   .     A
C316   C320    1.419   .     A
C317   C941    1.391   .     S
C318   C942    1.391   1_554 S
C319   C968    1.414   .     S
C320   C967    1.414   1_554 S
N333   Zn343   2.025   .     S
N334   Zn344   2.025   .     S
O335   Zn343   1.993   .     S
O336   Zn344   1.993   .     S
O337   Zn344   1.984   .     S
O338   Zn343   1.984   .     S
O339   Zn343   1.963   .     S
O340   Zn344   1.963   .     S
O341   Zn344   1.907   .     S
O342   Zn343   1.907   .     S
N345   H346    1.046   .     S
N345   H347    1.046   .     S
N348   H350    1.046   .     S
N348   H349    1.046   .     S
N351   H353    1.039   .     S
N351   H352    1.042   .     S
N354   H356    1.043   .     S
N354   H355    1.039   .     S
O357   H358    0.989   .     S
O359   H360    0.989   .     S
C361   O409    1.285   .     A
C361   O407    1.288   .     A
C361   C372    1.412   .     S
C362   O408    1.288   .     A
C362   O410    1.285   .     A
C362   C371    1.412   .     S
C363   H401    1.078   .     S
C363   C392    1.419   .     A
C363   C365    1.390   .     A
C364   C366    1.388   .     A
C364   H402    1.079   .     S
C364   C391    1.418   .     A
C365   H393    1.084   .     S
C365   C1037   1.391   1_554 S
C366   H394    1.084   .     S
C366   C1038   1.391   .     S
C367   C372    1.403   .     A
C367   N417    1.439   .     S
C367   C585    1.380   .     S
C368   N420    1.440   .     S
C368   C371    1.403   .     A
C369   C371    1.394   .     A
C369   H403    1.084   .     S
C370   C372    1.394   .     A
C370   H404    1.084   .     S
C370   C584    1.380   .     S
C373   N406    1.381   .     A
C373   N423    1.429   .     S
C373   C231    1.432   1_655 S
C374   N426    1.429   .     S
C374   N405    1.381   .     A
C375   O429    1.381   .     S
C375   N405    1.362   .     A
C376   O431    1.381   .     S
C376   N406    1.362   .     A
C376   C230    1.433   1_655 S
C377   O411    1.300   .     A
C377   O413    1.297   .     A
C377   C379    1.457   .     S
C378   O412    1.300   .     A
C378   C380    1.460   .     S
C378   O414    1.298   .     A
C379   C383    1.400   .     A
C379   C385    1.392   .     A
C380   C384    1.399   .     A
C380   C386    1.394   .     A
C381   C389    1.406   .     A
C381   H399    1.084   .     S
C381   C383    1.396   .     A
C382   H400    1.083   .     S
C382   C384    1.394   .     A
C382   C390    1.405   .     A
C383   H398    1.083   .     S
C384   H397    1.083   .     S
C385   C387    1.393   .     A
C385   H396    1.078   .     S
C386   H395    1.075   .     S
C386   C388    1.395   .     A
C387   C389    1.417   .     A
C387   C391    1.417   .     A
C388   C390    1.418   .     A
C388   C392    1.419   .     A
C389   C1013   1.391   .     S
C390   C1014   1.391   1_554 S
C391   C1040   1.414   .     S
C392   C1039   1.414   1_554 S
N405   Zn415   2.025   .     S
N406   Zn416   2.025   .     S
O407   Zn415   1.993   .     S
O408   Zn416   1.993   .     S
O409   Zn416   1.984   .     S
O410   Zn415   1.984   .     S
O411   Zn415   1.963   .     S
O412   Zn416   1.963   .     S
O413   Zn416   1.907   .     S
O414   Zn415   1.907   .     S
N417   H418    1.046   .     S
N417   H419    1.046   .     S
N420   H422    1.046   .     S
N420   H421    1.046   .     S
N423   H425    1.039   .     S
N423   H424    1.042   .     S
N426   H428    1.043   .     S
N426   H427    1.039   .     S
O429   H430    0.989   .     S
O431   H432    0.989   .     S
C433   O481    1.285   .     A
C433   O479    1.288   .     A
C433   C444    1.412   .     S
C434   O480    1.288   .     A
C434   O482    1.285   .     A
C434   C443    1.412   .     S
C435   H473    1.078   .     S
C435   C464    1.419   .     A
C435   C437    1.390   .     A
C436   C438    1.388   .     A
C436   H474    1.079   .     S
C436   C463    1.418   .     A
C437   H465    1.084   .     S
C437   C1109   1.391   1_554 S
C438   H466    1.084   .     S
C438   C1110   1.391   .     S
C439   C444    1.403   .     A
C439   N489    1.439   .     S
C439   C9      1.380   1_565 S
C440   N492    1.440   .     S
C440   C443    1.403   .     A
C441   C443    1.394   .     A
C441   H475    1.084   .     S
C442   C444    1.394   .     A
C442   H476    1.084   .     S
C442   C8      1.380   1_565 S
C445   N478    1.381   .     A
C445   N495    1.429   .     S
C445   C519    1.432   .     S
C446   N498    1.429   .     S
C446   N477    1.381   .     A
C446   C592    1.433   1_455 S
C447   O501    1.381   .     S
C447   N477    1.362   .     A
C447   C589    1.432   1_455 S
C448   O503    1.381   .     S
C448   N478    1.362   .     A
C448   C518    1.433   .     S
C449   O483    1.300   .     A
C449   O485    1.297   .     A
C449   C451    1.457   .     S
C450   O484    1.300   .     A
C450   C452    1.460   .     S
C450   O486    1.298   .     A
C451   C455    1.400   .     A
C451   C457    1.392   .     A
C452   C456    1.399   .     A
C452   C458    1.394   .     A
C453   C461    1.406   .     A
C453   H471    1.084   .     S
C453   C455    1.396   .     A
C454   H472    1.083   .     S
C454   C456    1.394   .     A
C454   C462    1.405   .     A
C455   H470    1.083   .     S
C456   H469    1.083   .     S
C457   C459    1.393   .     A
C457   H468    1.078   .     S
C458   H467    1.075   .     S
C458   C460    1.395   .     A
C459   C461    1.417   .     A
C459   C463    1.417   .     A
C460   C462    1.418   .     A
C460   C464    1.419   .     A
C461   C1085   1.391   .     S
C462   C1086   1.391   1_554 S
C463   C1112   1.414   .     S
C464   C1111   1.414   1_554 S
N477   Zn487   2.025   .     S
N478   Zn488   2.025   .     S
O479   Zn487   1.993   .     S
O480   Zn488   1.993   .     S
O481   Zn488   1.984   .     S
O482   Zn487   1.984   .     S
O483   Zn487   1.963   .     S
O484   Zn488   1.963   .     S
O485   Zn488   1.907   .     S
O486   Zn487   1.907   .     S
N489   H490    1.046   .     S
N489   H491    1.046   .     S
N492   H494    1.046   .     S
N492   H493    1.046   .     S
N495   H497    1.039   .     S
N495   H496    1.042   .     S
N498   H500    1.043   .     S
N498   H499    1.039   .     S
O501   H502    0.989   .     S
O503   H504    0.989   .     S
C505   O553    1.285   .     A
C505   O551    1.288   .     A
C505   C516    1.412   .     S
C506   O552    1.288   .     A
C506   O554    1.285   .     A
C506   C515    1.412   .     S
C507   H545    1.078   .     S
C507   C536    1.419   .     A
C507   C509    1.390   .     A
C508   C510    1.388   .     A
C508   H546    1.079   .     S
C508   C535    1.418   .     A
C509   H537    1.084   .     S
C509   C1181   1.391   1_554 S
C510   H538    1.084   .     S
C510   C1182   1.391   .     S
C511   C516    1.403   .     A
C511   N561    1.439   .     S
C511   C81     1.380   1_565 S
C512   N564    1.440   .     S
C512   C515    1.403   .     A
C513   C515    1.394   .     A
C513   H547    1.084   .     S
C514   C516    1.394   .     A
C514   H548    1.084   .     S
C514   C80     1.380   1_565 S
C517   N550    1.381   .     A
C517   N567    1.429   .     S
C517   C591    1.432   .     S
C518   N570    1.429   .     S
C518   N549    1.381   .     A
C519   O573    1.381   .     S
C519   N549    1.362   .     A
C520   O575    1.381   .     S
C520   N550    1.362   .     A
C520   C590    1.433   .     S
C521   O555    1.300   .     A
C521   O557    1.297   .     A
C521   C523    1.457   .     S
C522   O556    1.300   .     A
C522   C524    1.460   .     S
C522   O558    1.298   .     A
C523   C527    1.400   .     A
C523   C529    1.392   .     A
C524   C528    1.399   .     A
C524   C530    1.394   .     A
C525   C533    1.406   .     A
C525   H543    1.084   .     S
C525   C527    1.396   .     A
C526   H544    1.083   .     S
C526   C528    1.394   .     A
C526   C534    1.405   .     A
C527   H542    1.083   .     S
C528   H541    1.083   .     S
C529   C531    1.393   .     A
C529   H540    1.078   .     S
C530   H539    1.075   .     S
C530   C532    1.395   .     A
C531   C533    1.417   .     A
C531   C535    1.417   .     A
C532   C534    1.418   .     A
C532   C536    1.419   .     A
C533   C1157   1.391   .     S
C534   C1158   1.391   1_554 S
C535   C1184   1.414   .     S
C536   C1183   1.414   1_554 S
N549   Zn559   2.025   .     S
N550   Zn560   2.025   .     S
O551   Zn559   1.993   .     S
O552   Zn560   1.993   .     S
O553   Zn560   1.984   .     S
O554   Zn559   1.984   .     S
O555   Zn559   1.963   .     S
O556   Zn560   1.963   .     S
O557   Zn560   1.907   .     S
O558   Zn559   1.907   .     S
N561   H562    1.046   .     S
N561   H563    1.046   .     S
N564   H566    1.046   .     S
N564   H565    1.046   .     S
N567   H569    1.039   .     S
N567   H568    1.042   .     S
N570   H572    1.043   .     S
N570   H571    1.039   .     S
O573   H574    0.989   .     S
O575   H576    0.989   .     S
C577   O625    1.285   .     A
C577   O623    1.288   .     A
C577   C588    1.412   .     S
C578   O624    1.288   .     A
C578   O626    1.285   .     A
C578   C587    1.412   .     S
C579   H617    1.078   .     S
C579   C608    1.419   .     A
C579   C581    1.390   .     A
C580   C582    1.388   .     A
C580   H618    1.079   .     S
C580   C607    1.418   .     A
C581   H609    1.084   .     S
C581   C1253   1.391   1_554 S
C582   H610    1.084   .     S
C582   C1254   1.391   .     S
C583   C588    1.403   .     A
C583   N633    1.439   .     S
C583   C153    1.380   1_565 S
C584   N636    1.440   .     S
C584   C587    1.403   .     A
C585   C587    1.394   .     A
C585   H619    1.084   .     S
C586   C588    1.394   .     A
C586   H620    1.084   .     S
C586   C152    1.380   1_565 S
C589   N622    1.381   .     A
C589   N639    1.429   .     S
C589   C447    1.432   1_655 S
C590   N642    1.429   .     S
C590   N621    1.381   .     A
C591   O645    1.381   .     S
C591   N621    1.362   .     A
C592   O647    1.381   .     S
C592   N622    1.362   .     A
C592   C446    1.433   1_655 S
C593   O627    1.300   .     A
C593   O629    1.297   .     A
C593   C595    1.457   .     S
C594   O628    1.300   .     A
C594   C596    1.460   .     S
C594   O630    1.298   .     A
C595   C599    1.400   .     A
C595   C601    1.392   .     A
C596   C600    1.399   .     A
C596   C602    1.394   .     A
C597   C605    1.406   .     A
C597   H615    1.084   .     S
C597   C599    1.396   .     A
C598   H616    1.083   .     S
C598   C600    1.394   .     A
C598   C606    1.405   .     A
C599   H614    1.083   .     S
C600   H613    1.083   .     S
C601   C603    1.393   .     A
C601   H612    1.078   .     S
C602   H611    1.075   .     S
C602   C604    1.395   .     A
C603   C605    1.417   .     A
C603   C607    1.417   .     A
C604   C606    1.418   .     A
C604   C608    1.419   .     A
C605   C1229   1.391   .     S
C606   C1230   1.391   1_554 S
C607   C1256   1.414   .     S
C608   C1255   1.414   1_554 S
N621   Zn631   2.025   .     S
N622   Zn632   2.025   .     S
O623   Zn631   1.993   .     S
O624   Zn632   1.993   .     S
O625   Zn632   1.984   .     S
O626   Zn631   1.984   .     S
O627   Zn631   1.963   .     S
O628   Zn632   1.963   .     S
O629   Zn632   1.907   .     S
O630   Zn631   1.907   .     S
N633   H634    1.046   .     S
N633   H635    1.046   .     S
N636   H638    1.046   .     S
N636   H637    1.046   .     S
N639   H641    1.039   .     S
N639   H640    1.042   .     S
N642   H644    1.043   .     S
N642   H643    1.039   .     S
O645   H646    0.989   .     S
O647   H648    0.989   .     S
C649   O697    1.285   .     A
C649   O695    1.288   .     A
C649   C660    1.412   .     S
C650   O696    1.288   .     A
C650   O698    1.285   .     A
C650   C659    1.412   .     S
C651   H689    1.078   .     S
C651   C680    1.419   .     A
C651   C653    1.390   .     A
C652   C654    1.388   .     A
C652   H690    1.079   .     S
C652   C679    1.418   .     A
C653   H681    1.084   .     S
C654   H682    1.084   .     S
C654   C30     1.391   1_556 S
C655   C660    1.403   .     A
C655   N705    1.439   .     S
C655   C873    1.380   .     S
C656   N708    1.440   .     S
C656   C659    1.403   .     A
C656   C1090   1.380   1_545 S
C657   C659    1.394   .     A
C657   H691    1.084   .     S
C657   C1087   1.380   1_545 S
C658   C660    1.394   .     A
C658   H692    1.084   .     S
C658   C872    1.380   .     S
C661   N694    1.381   .     A
C661   N711    1.429   .     S
C661   C735    1.432   .     S
C662   N714    1.429   .     S
C662   N693    1.381   .     A
C662   C808    1.433   1_455 S
C663   O717    1.381   .     S
C663   N693    1.362   .     A
C663   C805    1.432   1_455 S
C664   O719    1.381   .     S
C664   N694    1.362   .     A
C664   C734    1.433   .     S
C665   O699    1.300   .     A
C665   O701    1.297   .     A
C665   C667    1.457   .     S
C666   O700    1.300   .     A
C666   C668    1.460   .     S
C666   O702    1.298   .     A
C667   C671    1.400   .     A
C667   C673    1.392   .     A
C668   C672    1.399   .     A
C668   C674    1.394   .     A
C669   C677    1.406   .     A
C669   H687    1.084   .     S
C669   C671    1.396   .     A
C670   H688    1.083   .     S
C670   C672    1.394   .     A
C670   C678    1.405   .     A
C671   H686    1.083   .     S
C672   H685    1.083   .     S
C673   C675    1.393   .     A
C673   H684    1.078   .     S
C674   H683    1.075   .     S
C674   C676    1.395   .     A
C675   C677    1.417   .     A
C675   C679    1.417   .     A
C676   C678    1.418   .     A
C676   C680    1.419   .     A
C677   C5      1.391   1_556 S
C679   C32     1.414   1_556 S
N693   Zn703   2.025   .     S
N694   Zn704   2.025   .     S
O695   Zn703   1.993   .     S
O696   Zn704   1.993   .     S
O697   Zn704   1.984   .     S
O698   Zn703   1.984   .     S
O699   Zn703   1.963   .     S
O700   Zn704   1.963   .     S
O701   Zn704   1.907   .     S
O702   Zn703   1.907   .     S
N705   H706    1.046   .     S
N705   H707    1.046   .     S
N708   H710    1.046   .     S
N708   H709    1.046   .     S
N711   H713    1.039   .     S
N711   H712    1.042   .     S
N714   H716    1.043   .     S
N714   H715    1.039   .     S
O717   H718    0.989   .     S
O719   H720    0.989   .     S
C721   O769    1.285   .     A
C721   O767    1.288   .     A
C721   C732    1.412   .     S
C722   O768    1.288   .     A
C722   O770    1.285   .     A
C722   C731    1.412   .     S
C723   H761    1.078   .     S
C723   C752    1.419   .     A
C723   C725    1.390   .     A
C724   C726    1.388   .     A
C724   H762    1.079   .     S
C724   C751    1.418   .     A
C725   H753    1.084   .     S
C726   H754    1.084   .     S
C726   C102    1.391   1_556 S
C727   C732    1.403   .     A
C727   N777    1.439   .     S
C727   C945    1.380   .     S
C728   N780    1.440   .     S
C728   C731    1.403   .     A
C728   C1162   1.380   1_545 S
C729   C731    1.394   .     A
C729   H763    1.084   .     S
C729   C1159   1.380   1_545 S
C730   C732    1.394   .     A
C730   H764    1.084   .     S
C730   C944    1.380   .     S
C733   N766    1.381   .     A
C733   N783    1.429   .     S
C733   C807    1.432   .     S
C734   N786    1.429   .     S
C734   N765    1.381   .     A
C735   O789    1.381   .     S
C735   N765    1.362   .     A
C736   O791    1.381   .     S
C736   N766    1.362   .     A
C736   C806    1.433   .     S
C737   O771    1.300   .     A
C737   O773    1.297   .     A
C737   C739    1.457   .     S
C738   O772    1.300   .     A
C738   C740    1.460   .     S
C738   O774    1.298   .     A
C739   C743    1.400   .     A
C739   C745    1.392   .     A
C740   C744    1.399   .     A
C740   C746    1.394   .     A
C741   C749    1.406   .     A
C741   H759    1.084   .     S
C741   C743    1.396   .     A
C742   H760    1.083   .     S
C742   C744    1.394   .     A
C742   C750    1.405   .     A
C743   H758    1.083   .     S
C744   H757    1.083   .     S
C745   C747    1.393   .     A
C745   H756    1.078   .     S
C746   H755    1.075   .     S
C746   C748    1.395   .     A
C747   C749    1.417   .     A
C747   C751    1.417   .     A
C748   C750    1.418   .     A
C748   C752    1.419   .     A
C749   C77     1.391   1_556 S
C751   C104    1.414   1_556 S
N765   Zn775   2.025   .     S
N766   Zn776   2.025   .     S
O767   Zn775   1.993   .     S
O768   Zn776   1.993   .     S
O769   Zn776   1.984   .     S
O770   Zn775   1.984   .     S
O771   Zn775   1.963   .     S
O772   Zn776   1.963   .     S
O773   Zn776   1.907   .     S
O774   Zn775   1.907   .     S
N777   H778    1.046   .     S
N777   H779    1.046   .     S
N780   H782    1.046   .     S
N780   H781    1.046   .     S
N783   H785    1.039   .     S
N783   H784    1.042   .     S
N786   H788    1.043   .     S
N786   H787    1.039   .     S
O789   H790    0.989   .     S
O791   H792    0.989   .     S
C793   O841    1.285   .     A
C793   O839    1.288   .     A
C793   C804    1.412   .     S
C794   O840    1.288   .     A
C794   O842    1.285   .     A
C794   C803    1.412   .     S
C795   H833    1.078   .     S
C795   C824    1.419   .     A
C795   C797    1.390   .     A
C796   C798    1.388   .     A
C796   H834    1.079   .     S
C796   C823    1.418   .     A
C797   H825    1.084   .     S
C798   H826    1.084   .     S
C798   C174    1.391   1_556 S
C799   C804    1.403   .     A
C799   N849    1.439   .     S
C799   C1017   1.380   .     S
C800   N852    1.440   .     S
C800   C803    1.403   .     A
C800   C1234   1.380   1_545 S
C801   C803    1.394   .     A
C801   H835    1.084   .     S
C801   C1231   1.380   1_545 S
C802   C804    1.394   .     A
C802   H836    1.084   .     S
C802   C1016   1.380   .     S
C805   N838    1.381   .     A
C805   N855    1.429   .     S
C805   C663    1.432   1_655 S
C806   N858    1.429   .     S
C806   N837    1.381   .     A
C807   O861    1.381   .     S
C807   N837    1.362   .     A
C808   O863    1.381   .     S
C808   N838    1.362   .     A
C808   C662    1.433   1_655 S
C809   O843    1.300   .     A
C809   O845    1.297   .     A
C809   C811    1.457   .     S
C810   O844    1.300   .     A
C810   C812    1.460   .     S
C810   O846    1.298   .     A
C811   C815    1.400   .     A
C811   C817    1.392   .     A
C812   C816    1.399   .     A
C812   C818    1.394   .     A
C813   C821    1.406   .     A
C813   H831    1.084   .     S
C813   C815    1.396   .     A
C814   H832    1.083   .     S
C814   C816    1.394   .     A
C814   C822    1.405   .     A
C815   H830    1.083   .     S
C816   H829    1.083   .     S
C817   C819    1.393   .     A
C817   H828    1.078   .     S
C818   H827    1.075   .     S
C818   C820    1.395   .     A
C819   C821    1.417   .     A
C819   C823    1.417   .     A
C820   C822    1.418   .     A
C820   C824    1.419   .     A
C821   C149    1.391   1_556 S
C823   C176    1.414   1_556 S
N837   Zn847   2.025   .     S
N838   Zn848   2.025   .     S
O839   Zn847   1.993   .     S
O840   Zn848   1.993   .     S
O841   Zn848   1.984   .     S
O842   Zn847   1.984   .     S
O843   Zn847   1.963   .     S
O844   Zn848   1.963   .     S
O845   Zn848   1.907   .     S
O846   Zn847   1.907   .     S
N849   H850    1.046   .     S
N849   H851    1.046   .     S
N852   H854    1.046   .     S
N852   H853    1.046   .     S
N855   H857    1.039   .     S
N855   H856    1.042   .     S
N858   H860    1.043   .     S
N858   H859    1.039   .     S
O861   H862    0.989   .     S
O863   H864    0.989   .     S
C865   O913    1.285   .     A
C865   O911    1.288   .     A
C865   C876    1.412   .     S
C866   O912    1.288   .     A
C866   O914    1.285   .     A
C866   C875    1.412   .     S
C867   H905    1.078   .     S
C867   C896    1.419   .     A
C867   C869    1.390   .     A
C868   C870    1.388   .     A
C868   H906    1.079   .     S
C868   C895    1.418   .     A
C869   H897    1.084   .     S
C870   H898    1.084   .     S
C870   C246    1.391   1_556 S
C871   C876    1.403   .     A
C871   N921    1.439   .     S
C871   C1089   1.380   .     S
C872   N924    1.440   .     S
C872   C875    1.403   .     A
C873   C875    1.394   .     A
C873   H907    1.084   .     S
C874   C876    1.394   .     A
C874   H908    1.084   .     S
C874   C1088   1.380   .     S
C877   N910    1.381   .     A
C877   N927    1.429   .     S
C877   C951    1.432   .     S
C878   N930    1.429   .     S
C878   N909    1.381   .     A
C878   C1024   1.433   1_455 S
C879   O933    1.381   .     S
C879   N909    1.362   .     A
C879   C1021   1.432   1_455 S
C880   O935    1.381   .     S
C880   N910    1.362   .     A
C880   C950    1.433   .     S
C881   O915    1.300   .     A
C881   O917    1.297   .     A
C881   C883    1.457   .     S
C882   O916    1.300   .     A
C882   C884    1.460   .     S
C882   O918    1.298   .     A
C883   C887    1.400   .     A
C883   C889    1.392   .     A
C884   C888    1.399   .     A
C884   C890    1.394   .     A
C885   C893    1.406   .     A
C885   H903    1.084   .     S
C885   C887    1.396   .     A
C886   H904    1.083   .     S
C886   C888    1.394   .     A
C886   C894    1.405   .     A
C887   H902    1.083   .     S
C888   H901    1.083   .     S
C889   C891    1.393   .     A
C889   H900    1.078   .     S
C890   H899    1.075   .     S
C890   C892    1.395   .     A
C891   C893    1.417   .     A
C891   C895    1.417   .     A
C892   C894    1.418   .     A
C892   C896    1.419   .     A
C893   C221    1.391   1_556 S
C895   C248    1.414   1_556 S
N909   Zn919   2.025   .     S
N910   Zn920   2.025   .     S
O911   Zn919   1.993   .     S
O912   Zn920   1.993   .     S
O913   Zn920   1.984   .     S
O914   Zn919   1.984   .     S
O915   Zn919   1.963   .     S
O916   Zn920   1.963   .     S
O917   Zn920   1.907   .     S
O918   Zn919   1.907   .     S
N921   H922    1.046   .     S
N921   H923    1.046   .     S
N924   H926    1.046   .     S
N924   H925    1.046   .     S
N927   H929    1.039   .     S
N927   H928    1.042   .     S
N930   H932    1.043   .     S
N930   H931    1.039   .     S
O933   H934    0.989   .     S
O935   H936    0.989   .     S
C937   O985    1.285   .     A
C937   O983    1.288   .     A
C937   C948    1.412   .     S
C938   O984    1.288   .     A
C938   O986    1.285   .     A
C938   C947    1.412   .     S
C939   H977    1.078   .     S
C939   C968    1.419   .     A
C939   C941    1.390   .     A
C940   C942    1.388   .     A
C940   H978    1.079   .     S
C940   C967    1.418   .     A
C941   H969    1.084   .     S
C942   H970    1.084   .     S
C942   C318    1.391   1_556 S
C943   C948    1.403   .     A
C943   N993    1.439   .     S
C943   C1161   1.380   .     S
C944   N996    1.440   .     S
C944   C947    1.403   .     A
C945   C947    1.394   .     A
C945   H979    1.084   .     S
C946   C948    1.394   .     A
C946   H980    1.084   .     S
C946   C1160   1.380   .     S
C949   N982    1.381   .     A
C949   N999    1.429   .     S
C949   C1023   1.432   .     S
C950   N1002   1.429   .     S
C950   N981    1.381   .     A
C951   O1005   1.381   .     S
C951   N981    1.362   .     A
C952   O1007   1.381   .     S
C952   N982    1.362   .     A
C952   C1022   1.433   .     S
C953   O987    1.300   .     A
C953   O989    1.297   .     A
C953   C955    1.457   .     S
C954   O988    1.300   .     A
C954   C956    1.460   .     S
C954   O990    1.298   .     A
C955   C959    1.400   .     A
C955   C961    1.392   .     A
C956   C960    1.399   .     A
C956   C962    1.394   .     A
C957   C965    1.406   .     A
C957   H975    1.084   .     S
C957   C959    1.396   .     A
C958   H976    1.083   .     S
C958   C960    1.394   .     A
C958   C966    1.405   .     A
C959   H974    1.083   .     S
C960   H973    1.083   .     S
C961   C963    1.393   .     A
C961   H972    1.078   .     S
C962   H971    1.075   .     S
C962   C964    1.395   .     A
C963   C965    1.417   .     A
C963   C967    1.417   .     A
C964   C966    1.418   .     A
C964   C968    1.419   .     A
C965   C293    1.391   1_556 S
C967   C320    1.414   1_556 S
N981   Zn991   2.025   .     S
N982   Zn992   2.025   .     S
O983   Zn991   1.993   .     S
O984   Zn992   1.993   .     S
O985   Zn992   1.984   .     S
O986   Zn991   1.984   .     S
O987   Zn991   1.963   .     S
O988   Zn992   1.963   .     S
O989   Zn992   1.907   .     S
O990   Zn991   1.907   .     S
N993   H994    1.046   .     S
N993   H995    1.046   .     S
N996   H998    1.046   .     S
N996   H997    1.046   .     S
N999   H1001   1.039   .     S
N999   H1000   1.042   .     S
N1002  H1004   1.043   .     S
N1002  H1003   1.039   .     S
O1005  H1006   0.989   .     S
O1007  H1008   0.989   .     S
C1009  O1057   1.285   .     A
C1009  O1055   1.288   .     A
C1009  C1020   1.412   .     S
C1010  O1056   1.288   .     A
C1010  O1058   1.285   .     A
C1010  C1019   1.412   .     S
C1011  H1049   1.078   .     S
C1011  C1040   1.419   .     A
C1011  C1013   1.390   .     A
C1012  C1014   1.388   .     A
C1012  H1050   1.079   .     S
C1012  C1039   1.418   .     A
C1013  H1041   1.084   .     S
C1014  H1042   1.084   .     S
C1014  C390    1.391   1_556 S
C1015  C1020   1.403   .     A
C1015  N1065   1.439   .     S
C1015  C1233   1.380   .     S
C1016  N1068   1.440   .     S
C1016  C1019   1.403   .     A
C1017  C1019   1.394   .     A
C1017  H1051   1.084   .     S
C1018  C1020   1.394   .     A
C1018  H1052   1.084   .     S
C1018  C1232   1.380   .     S
C1021  N1054   1.381   .     A
C1021  N1071   1.429   .     S
C1021  C879    1.432   1_655 S
C1022  N1074   1.429   .     S
C1022  N1053   1.381   .     A
C1023  O1077   1.381   .     S
C1023  N1053   1.362   .     A
C1024  O1079   1.381   .     S
C1024  N1054   1.362   .     A
C1024  C878    1.433   1_655 S
C1025  O1059   1.300   .     A
C1025  O1061   1.297   .     A
C1025  C1027   1.457   .     S
C1026  O1060   1.300   .     A
C1026  C1028   1.460   .     S
C1026  O1062   1.298   .     A
C1027  C1031   1.400   .     A
C1027  C1033   1.392   .     A
C1028  C1032   1.399   .     A
C1028  C1034   1.394   .     A
C1029  C1037   1.406   .     A
C1029  H1047   1.084   .     S
C1029  C1031   1.396   .     A
C1030  H1048   1.083   .     S
C1030  C1032   1.394   .     A
C1030  C1038   1.405   .     A
C1031  H1046   1.083   .     S
C1032  H1045   1.083   .     S
C1033  C1035   1.393   .     A
C1033  H1044   1.078   .     S
C1034  H1043   1.075   .     S
C1034  C1036   1.395   .     A
C1035  C1037   1.417   .     A
C1035  C1039   1.417   .     A
C1036  C1038   1.418   .     A
C1036  C1040   1.419   .     A
C1037  C365    1.391   1_556 S
C1039  C392    1.414   1_556 S
N1053  Zn1063  2.025   .     S
N1054  Zn1064  2.025   .     S
O1055  Zn1063  1.993   .     S
O1056  Zn1064  1.993   .     S
O1057  Zn1064  1.984   .     S
O1058  Zn1063  1.984   .     S
O1059  Zn1063  1.963   .     S
O1060  Zn1064  1.963   .     S
O1061  Zn1064  1.907   .     S
O1062  Zn1063  1.907   .     S
N1065  H1066   1.046   .     S
N1065  H1067   1.046   .     S
N1068  H1070   1.046   .     S
N1068  H1069   1.046   .     S
N1071  H1073   1.039   .     S
N1071  H1072   1.042   .     S
N1074  H1076   1.043   .     S
N1074  H1075   1.039   .     S
O1077  H1078   0.989   .     S
O1079  H1080   0.989   .     S
C1081  O1129   1.285   .     A
C1081  O1127   1.288   .     A
C1081  C1092   1.412   .     S
C1082  O1128   1.288   .     A
C1082  O1130   1.285   .     A
C1082  C1091   1.412   .     S
C1083  H1121   1.078   .     S
C1083  C1112   1.419   .     A
C1083  C1085   1.390   .     A
C1084  C1086   1.388   .     A
C1084  H1122   1.079   .     S
C1084  C1111   1.418   .     A
C1085  H1113   1.084   .     S
C1086  H1114   1.084   .     S
C1086  C462    1.391   1_556 S
C1087  C1092   1.403   .     A
C1087  N1137   1.439   .     S
C1087  C657    1.380   1_565 S
C1088  N1140   1.440   .     S
C1088  C1091   1.403   .     A
C1089  C1091   1.394   .     A
C1089  H1123   1.084   .     S
C1090  C1092   1.394   .     A
C1090  H1124   1.084   .     S
C1090  C656    1.380   1_565 S
C1093  N1126   1.381   .     A
C1093  N1143   1.429   .     S
C1093  C1167   1.432   .     S
C1094  N1146   1.429   .     S
C1094  N1125   1.381   .     A
C1094  C1240   1.433   1_455 S
C1095  O1149   1.381   .     S
C1095  N1125   1.362   .     A
C1095  C1237   1.432   1_455 S
C1096  O1151   1.381   .     S
C1096  N1126   1.362   .     A
C1096  C1166   1.433   .     S
C1097  O1131   1.300   .     A
C1097  O1133   1.297   .     A
C1097  C1099   1.457   .     S
C1098  O1132   1.300   .     A
C1098  C1100   1.460   .     S
C1098  O1134   1.298   .     A
C1099  C1103   1.400   .     A
C1099  C1105   1.392   .     A
C1100  C1104   1.399   .     A
C1100  C1106   1.394   .     A
C1101  C1109   1.406   .     A
C1101  H1119   1.084   .     S
C1101  C1103   1.396   .     A
C1102  H1120   1.083   .     S
C1102  C1104   1.394   .     A
C1102  C1110   1.405   .     A
C1103  H1118   1.083   .     S
C1104  H1117   1.083   .     S
C1105  C1107   1.393   .     A
C1105  H1116   1.078   .     S
C1106  H1115   1.075   .     S
C1106  C1108   1.395   .     A
C1107  C1109   1.417   .     A
C1107  C1111   1.417   .     A
C1108  C1110   1.418   .     A
C1108  C1112   1.419   .     A
C1109  C437    1.391   1_556 S
C1111  C464    1.414   1_556 S
N1125  Zn1135  2.025   .     S
N1126  Zn1136  2.025   .     S
O1127  Zn1135  1.993   .     S
O1128  Zn1136  1.993   .     S
O1129  Zn1136  1.984   .     S
O1130  Zn1135  1.984   .     S
O1131  Zn1135  1.963   .     S
O1132  Zn1136  1.963   .     S
O1133  Zn1136  1.907   .     S
O1134  Zn1135  1.907   .     S
N1137  H1138   1.046   .     S
N1137  H1139   1.046   .     S
N1140  H1142   1.046   .     S
N1140  H1141   1.046   .     S
N1143  H1145   1.039   .     S
N1143  H1144   1.042   .     S
N1146  H1148   1.043   .     S
N1146  H1147   1.039   .     S
O1149  H1150   0.989   .     S
O1151  H1152   0.989   .     S
C1153  O1201   1.285   .     A
C1153  O1199   1.288   .     A
C1153  C1164   1.412   .     S
C1154  O1200   1.288   .     A
C1154  O1202   1.285   .     A
C1154  C1163   1.412   .     S
C1155  H1193   1.078   .     S
C1155  C1184   1.419   .     A
C1155  C1157   1.390   .     A
C1156  C1158   1.388   .     A
C1156  H1194   1.079   .     S
C1156  C1183   1.418   .     A
C1157  H1185   1.084   .     S
C1158  H1186   1.084   .     S
C1158  C534    1.391   1_556 S
C1159  C1164   1.403   .     A
C1159  N1209   1.439   .     S
C1159  C729    1.380   1_565 S
C1160  N1212   1.440   .     S
C1160  C1163   1.403   .     A
C1161  C1163   1.394   .     A
C1161  H1195   1.084   .     S
C1162  C1164   1.394   .     A
C1162  H1196   1.084   .     S
C1162  C728    1.380   1_565 S
C1165  N1198   1.381   .     A
C1165  N1215   1.429   .     S
C1165  C1239   1.432   .     S
C1166  N1218   1.429   .     S
C1166  N1197   1.381   .     A
C1167  O1221   1.381   .     S
C1167  N1197   1.362   .     A
C1168  O1223   1.381   .     S
C1168  N1198   1.362   .     A
C1168  C1238   1.433   .     S
C1169  O1203   1.300   .     A
C1169  O1205   1.297   .     A
C1169  C1171   1.457   .     S
C1170  O1204   1.300   .     A
C1170  C1172   1.460   .     S
C1170  O1206   1.298   .     A
C1171  C1175   1.400   .     A
C1171  C1177   1.392   .     A
C1172  C1176   1.399   .     A
C1172  C1178   1.394   .     A
C1173  C1181   1.406   .     A
C1173  H1191   1.084   .     S
C1173  C1175   1.396   .     A
C1174  H1192   1.083   .     S
C1174  C1176   1.394   .     A
C1174  C1182   1.405   .     A
C1175  H1190   1.083   .     S
C1176  H1189   1.083   .     S
C1177  C1179   1.393   .     A
C1177  H1188   1.078   .     S
C1178  H1187   1.075   .     S
C1178  C1180   1.395   .     A
C1179  C1181   1.417   .     A
C1179  C1183   1.417   .     A
C1180  C1182   1.418   .     A
C1180  C1184   1.419   .     A
C1181  C509    1.391   1_556 S
C1183  C536    1.414   1_556 S
N1197  Zn1207  2.025   .     S
N1198  Zn1208  2.025   .     S
O1199  Zn1207  1.993   .     S
O1200  Zn1208  1.993   .     S
O1201  Zn1208  1.984   .     S
O1202  Zn1207  1.984   .     S
O1203  Zn1207  1.963   .     S
O1204  Zn1208  1.963   .     S
O1205  Zn1208  1.907   .     S
O1206  Zn1207  1.907   .     S
N1209  H1210   1.046   .     S
N1209  H1211   1.046   .     S
N1212  H1214   1.046   .     S
N1212  H1213   1.046   .     S
N1215  H1217   1.039   .     S
N1215  H1216   1.042   .     S
N1218  H1220   1.043   .     S
N1218  H1219   1.039   .     S
O1221  H1222   0.989   .     S
O1223  H1224   0.989   .     S
C1225  O1273   1.285   .     A
C1225  O1271   1.288   .     A
C1225  C1236   1.412   .     S
C1226  O1272   1.288   .     A
C1226  O1274   1.285   .     A
C1226  C1235   1.412   .     S
C1227  H1265   1.078   .     S
C1227  C1256   1.419   .     A
C1227  C1229   1.390   .     A
C1228  C1230   1.388   .     A
C1228  H1266   1.079   .     S
C1228  C1255   1.418   .     A
C1229  H1257   1.084   .     S
C1230  H1258   1.084   .     S
C1230  C606    1.391   1_556 S
C1231  C1236   1.403   .     A
C1231  N1281   1.439   .     S
C1231  C801    1.380   1_565 S
C1232  N1284   1.440   .     S
C1232  C1235   1.403   .     A
C1233  C1235   1.394   .     A
C1233  H1267   1.084   .     S
C1234  C1236   1.394   .     A
C1234  H1268   1.084   .     S
C1234  C800    1.380   1_565 S
C1237  N1270   1.381   .     A
C1237  N1287   1.429   .     S
C1237  C1095   1.432   1_655 S
C1238  N1290   1.429   .     S
C1238  N1269   1.381   .     A
C1239  O1293   1.381   .     S
C1239  N1269   1.362   .     A
C1240  O1295   1.381   .     S
C1240  N1270   1.362   .     A
C1240  C1094   1.433   1_655 S
C1241  O1275   1.300   .     A
C1241  O1277   1.297   .     A
C1241  C1243   1.457   .     S
C1242  O1276   1.300   .     A
C1242  C1244   1.460   .     S
C1242  O1278   1.298   .     A
C1243  C1247   1.400   .     A
C1243  C1249   1.392   .     A
C1244  C1248   1.399   .     A
C1244  C1250   1.394   .     A
C1245  C1253   1.406   .     A
C1245  H1263   1.084   .     S
C1245  C1247   1.396   .     A
C1246  H1264   1.083   .     S
C1246  C1248   1.394   .     A
C1246  C1254   1.405   .     A
C1247  H1262   1.083   .     S
C1248  H1261   1.083   .     S
C1249  C1251   1.393   .     A
C1249  H1260   1.078   .     S
C1250  H1259   1.075   .     S
C1250  C1252   1.395   .     A
C1251  C1253   1.417   .     A
C1251  C1255   1.417   .     A
C1252  C1254   1.418   .     A
C1252  C1256   1.419   .     A
C1253  C581    1.391   1_556 S
C1255  C608    1.414   1_556 S
N1269  Zn1279  2.025   .     S
N1270  Zn1280  2.025   .     S
O1271  Zn1279  1.993   .     S
O1272  Zn1280  1.993   .     S
O1273  Zn1280  1.984   .     S
O1274  Zn1279  1.984   .     S
O1275  Zn1279  1.963   .     S
O1276  Zn1280  1.963   .     S
O1277  Zn1280  1.907   .     S
O1278  Zn1279  1.907   .     S
N1281  H1282   1.046   .     S
N1281  H1283   1.046   .     S
N1284  H1286   1.046   .     S
N1284  H1285   1.046   .     S
N1287  H1289   1.039   .     S
N1287  H1288   1.042   .     S
N1290  H1292   1.043   .     S
N1290  H1291   1.039   .     S
O1293  H1294   0.989   .     S
O1295  H1296   0.989   .     S
