data_str_m3_o2_o5_pcu_sym.132
_audit_creation_date              2020-01-03
_audit_creation_method            'Materials Studio'
_symmetry_space_group_name_H-M    'P1'
_symmetry_Int_Tables_number       1
_symmetry_cell_setting            triclinic
loop_
_symmetry_equiv_pos_as_xyz
  x,y,z
_cell_length_a                    30.0883
_cell_length_b                    28.5735
_cell_length_c                    26.7670
_cell_angle_alpha                 89.6919
_cell_angle_beta                  92.8316
_cell_angle_gamma                 89.7516
loop_
_atom_site_label
_atom_site_type_symbol
_atom_site_fract_x
_atom_site_fract_y
_atom_site_fract_z
_atom_site_U_iso_or_equiv
_atom_site_adp_type
_atom_site_occupancy
O1     O     0.18453   0.28974   0.16667   0.00000  Uiso   1.00
O2     O     0.31547   0.21026   0.16666   0.00000  Uiso   1.00
O3     O     0.31547   0.28974   0.16666   0.00000  Uiso   1.00
O4     O     0.18453   0.21026   0.16667   0.00000  Uiso   1.00
C5     C     0.16371   0.25000   0.16760   0.00000  Uiso   1.00
C6     C     0.33594   0.25014   0.16679   0.00000  Uiso   1.00
O7     O     0.25000   0.28973   0.09511   0.00000  Uiso   1.00
O8     O     0.25000   0.21027   0.23822   0.00000  Uiso   1.00
O9     O     0.25000   0.28973   0.23822   0.00000  Uiso   1.00
O10    O     0.25000   0.21027   0.09511   0.00000  Uiso   1.00
C11    C     0.23351   0.05220   0.12521   0.00000  Uiso   1.00
C12    C     0.28536   0.44729   0.18978   0.00000  Uiso   1.00
C13    C     0.26647   0.05155   0.20801   0.00000  Uiso   1.00
C14    C     0.21535   0.44821   0.14352   0.00000  Uiso   1.00
C15    C     0.24998   0.25008   0.07292   0.00000  Uiso   1.00
C16    C     0.25026   0.24992   0.26042   0.00000  Uiso   1.00
Zn17   Zn    0.25000   0.30307   0.16667   0.00000  Uiso   1.00
Zn18   Zn    0.25000   0.19693   0.16667   0.00000  Uiso   1.00
N19    N     0.25000   0.12623   0.16667   0.00000  Uiso   1.00
N20    N     0.25000   0.37376   0.16667   0.00000  Uiso   1.00
C21    C     0.25031   0.02627   0.16652   0.00000  Uiso   1.00
C22    C     0.25042   0.47336   0.16661   0.00000  Uiso   1.00
C23    C     0.25017   0.25010   0.02180   0.00000  Uiso   1.00
C24    C     0.25027   0.24987   0.31155   0.00000  Uiso   1.00
C25    C     0.04706   0.29443   0.17680   0.00000  Uiso   1.00
C26    C     0.45554   0.22635   0.19929   0.00000  Uiso   1.00
C27    C     0.44995   0.28398   0.13220   0.00000  Uiso   1.00
C28    C     0.04398   0.21234   0.15486   0.00000  Uiso   1.00
H29    H     0.03011   0.32664   0.18577   0.00000  Uiso   1.00
H30    H     0.47572   0.20514   0.22544   0.00000  Uiso   1.00
H31    H     0.46585   0.30714   0.10637   0.00000  Uiso   1.00
H32    H     0.02327   0.18209   0.14736   0.00000  Uiso   1.00
C33    C     0.09301   0.29203   0.18159   0.00000  Uiso   1.00
C34    C     0.40974   0.22524   0.20094   0.00000  Uiso   1.00
C35    C     0.40380   0.28160   0.13183   0.00000  Uiso   1.00
C36    C     0.09050   0.20902   0.15715   0.00000  Uiso   1.00
C37    C     0.11515   0.25016   0.16896   0.00000  Uiso   1.00
C38    C     0.38374   0.25145   0.16589   0.00000  Uiso   1.00
C39    C     0.02300   0.25474   0.16361   0.00000  Uiso   1.00
C40    C     0.47536   0.25546   0.16503   0.00000  Uiso   1.00
C41    C     0.23283   0.10171   0.12576   0.00000  Uiso   1.00
C42    C     0.28463   0.39784   0.18997   0.00000  Uiso   1.00
C43    C     0.26646   0.10099   0.20770   0.00000  Uiso   1.00
C44    C     0.21559   0.39880   0.14315   0.00000  Uiso   1.00
H45    H     0.22052   0.03407   0.09225   0.00000  Uiso   1.00
H46    H     0.31345   0.46513   0.20780   0.00000  Uiso   1.00
H47    H     0.27942   0.03298   0.24101   0.00000  Uiso   1.00
H48    H     0.18753   0.46685   0.12541   0.00000  Uiso   1.00
N49    N     0.21334   0.12534   0.08269   0.00000  Uiso   1.00
O50    O     0.18099   0.15486   0.08760   0.00000  Uiso   1.00
O51    O     0.21984   0.10912   0.03835   0.00000  Uiso   1.00
N52    N     0.32097   0.37340   0.21477   0.00000  Uiso   1.00
O53    O     0.31488   0.35144   0.25650   0.00000  Uiso   1.00
O54    O     0.36141   0.38240   0.20265   0.00000  Uiso   1.00
N55    N     0.28511   0.12396   0.25089   0.00000  Uiso   1.00
O56    O     0.31906   0.15099   0.24621   0.00000  Uiso   1.00
O57    O     0.27702   0.10823   0.29516   0.00000  Uiso   1.00
N58    N     0.17925   0.37574   0.11715   0.00000  Uiso   1.00
O59    O     0.18689   0.34978   0.07882   0.00000  Uiso   1.00
O60    O     0.13900   0.39141   0.12175   0.00000  Uiso   1.00
O61    O     0.11594   0.33114   0.19844   0.00000  Uiso   1.00
C62    C     0.12207   0.32799   0.25093   0.00000  Uiso   1.00
H63    H     0.14185   0.29639   0.26254   0.00000  Uiso   1.00
H64    H     0.08960   0.32810   0.26915   0.00000  Uiso   1.00
H65    H     0.14099   0.35906   0.26443   0.00000  Uiso   1.00
O66    O     0.39069   0.19849   0.23700   0.00000  Uiso   1.00
C67    C     0.39007   0.22487   0.28135   0.00000  Uiso   1.00
H68    H     0.37015   0.25759   0.27560   0.00000  Uiso   1.00
H69    H     0.42440   0.23312   0.29606   0.00000  Uiso   1.00
H70    H     0.37404   0.20373   0.31025   0.00000  Uiso   1.00
O71    O     0.37834   0.31074   0.10037   0.00000  Uiso   1.00
C72    C     0.37326   0.28936   0.05317   0.00000  Uiso   1.00
H73    H     0.35733   0.25437   0.05581   0.00000  Uiso   1.00
H74    H     0.40578   0.28644   0.03538   0.00000  Uiso   1.00
H75    H     0.35109   0.31159   0.02856   0.00000  Uiso   1.00
O76    O     0.11316   0.16653   0.15245   0.00000  Uiso   1.00
C77    C     0.08868   0.13190   0.12574   0.00000  Uiso   1.00
H78    H     0.07325   0.14588   0.09003   0.00000  Uiso   1.00
H79    H     0.06356   0.11589   0.14955   0.00000  Uiso   1.00
H80    H     0.11183   0.10342   0.11602   0.00000  Uiso   1.00
O81    O     0.68453   0.28974   0.16667   0.00000  Uiso   1.00
O82    O     0.81547   0.21026   0.16666   0.00000  Uiso   1.00
O83    O     0.81547   0.28974   0.16666   0.00000  Uiso   1.00
O84    O     0.68453   0.21026   0.16667   0.00000  Uiso   1.00
C85    C     0.66371   0.25000   0.16760   0.00000  Uiso   1.00
C86    C     0.83594   0.25014   0.16679   0.00000  Uiso   1.00
O87    O     0.75000   0.28973   0.09511   0.00000  Uiso   1.00
O88    O     0.75000   0.21027   0.23822   0.00000  Uiso   1.00
O89    O     0.75000   0.28973   0.23822   0.00000  Uiso   1.00
O90    O     0.75000   0.21027   0.09511   0.00000  Uiso   1.00
C91    C     0.73351   0.05220   0.12521   0.00000  Uiso   1.00
C92    C     0.78536   0.44729   0.18978   0.00000  Uiso   1.00
C93    C     0.76647   0.05155   0.20801   0.00000  Uiso   1.00
C94    C     0.71535   0.44821   0.14352   0.00000  Uiso   1.00
C95    C     0.74998   0.25008   0.07292   0.00000  Uiso   1.00
C96    C     0.75026   0.24992   0.26042   0.00000  Uiso   1.00
Zn97   Zn    0.75000   0.30307   0.16667   0.00000  Uiso   1.00
Zn98   Zn    0.75000   0.19693   0.16667   0.00000  Uiso   1.00
N99    N     0.75000   0.12623   0.16667   0.00000  Uiso   1.00
N100   N     0.75000   0.37376   0.16667   0.00000  Uiso   1.00
C101   C     0.75031   0.02627   0.16652   0.00000  Uiso   1.00
C102   C     0.75042   0.47336   0.16661   0.00000  Uiso   1.00
C103   C     0.75017   0.25010   0.02180   0.00000  Uiso   1.00
C104   C     0.75027   0.24987   0.31155   0.00000  Uiso   1.00
C105   C     0.54706   0.29443   0.17680   0.00000  Uiso   1.00
C106   C     0.95554   0.22635   0.19929   0.00000  Uiso   1.00
C107   C     0.94995   0.28398   0.13220   0.00000  Uiso   1.00
C108   C     0.54398   0.21234   0.15486   0.00000  Uiso   1.00
H109   H     0.53011   0.32664   0.18577   0.00000  Uiso   1.00
H110   H     0.97572   0.20514   0.22544   0.00000  Uiso   1.00
H111   H     0.96585   0.30714   0.10637   0.00000  Uiso   1.00
H112   H     0.52327   0.18209   0.14736   0.00000  Uiso   1.00
C113   C     0.59301   0.29203   0.18159   0.00000  Uiso   1.00
C114   C     0.90974   0.22524   0.20094   0.00000  Uiso   1.00
C115   C     0.90380   0.28160   0.13183   0.00000  Uiso   1.00
C116   C     0.59050   0.20902   0.15715   0.00000  Uiso   1.00
C117   C     0.61515   0.25016   0.16896   0.00000  Uiso   1.00
C118   C     0.88374   0.25145   0.16589   0.00000  Uiso   1.00
C119   C     0.52300   0.25474   0.16361   0.00000  Uiso   1.00
C120   C     0.97536   0.25546   0.16503   0.00000  Uiso   1.00
C121   C     0.73283   0.10171   0.12576   0.00000  Uiso   1.00
C122   C     0.78463   0.39784   0.18997   0.00000  Uiso   1.00
C123   C     0.76646   0.10099   0.20770   0.00000  Uiso   1.00
C124   C     0.71559   0.39880   0.14315   0.00000  Uiso   1.00
H125   H     0.72052   0.03407   0.09225   0.00000  Uiso   1.00
H126   H     0.81345   0.46513   0.20780   0.00000  Uiso   1.00
H127   H     0.77942   0.03298   0.24101   0.00000  Uiso   1.00
H128   H     0.68753   0.46685   0.12541   0.00000  Uiso   1.00
N129   N     0.71334   0.12534   0.08269   0.00000  Uiso   1.00
O130   O     0.68099   0.15486   0.08760   0.00000  Uiso   1.00
O131   O     0.71984   0.10912   0.03835   0.00000  Uiso   1.00
N132   N     0.82097   0.37340   0.21477   0.00000  Uiso   1.00
O133   O     0.81488   0.35144   0.25650   0.00000  Uiso   1.00
O134   O     0.86141   0.38240   0.20265   0.00000  Uiso   1.00
N135   N     0.78511   0.12396   0.25089   0.00000  Uiso   1.00
O136   O     0.81906   0.15099   0.24621   0.00000  Uiso   1.00
O137   O     0.77702   0.10823   0.29516   0.00000  Uiso   1.00
N138   N     0.67925   0.37574   0.11715   0.00000  Uiso   1.00
O139   O     0.68689   0.34978   0.07882   0.00000  Uiso   1.00
O140   O     0.63900   0.39141   0.12175   0.00000  Uiso   1.00
O141   O     0.61594   0.33114   0.19844   0.00000  Uiso   1.00
C142   C     0.62207   0.32799   0.25093   0.00000  Uiso   1.00
H143   H     0.64185   0.29639   0.26254   0.00000  Uiso   1.00
H144   H     0.58960   0.32810   0.26915   0.00000  Uiso   1.00
H145   H     0.64099   0.35906   0.26443   0.00000  Uiso   1.00
O146   O     0.89069   0.19849   0.23700   0.00000  Uiso   1.00
C147   C     0.89007   0.22487   0.28135   0.00000  Uiso   1.00
H148   H     0.87015   0.25759   0.27560   0.00000  Uiso   1.00
H149   H     0.92440   0.23312   0.29606   0.00000  Uiso   1.00
H150   H     0.87404   0.20373   0.31025   0.00000  Uiso   1.00
O151   O     0.87834   0.31074   0.10037   0.00000  Uiso   1.00
C152   C     0.87326   0.28936   0.05317   0.00000  Uiso   1.00
H153   H     0.85733   0.25437   0.05581   0.00000  Uiso   1.00
H154   H     0.90578   0.28644   0.03538   0.00000  Uiso   1.00
H155   H     0.85109   0.31159   0.02856   0.00000  Uiso   1.00
O156   O     0.61316   0.16653   0.15245   0.00000  Uiso   1.00
C157   C     0.58868   0.13190   0.12574   0.00000  Uiso   1.00
H158   H     0.57325   0.14588   0.09003   0.00000  Uiso   1.00
H159   H     0.56356   0.11589   0.14955   0.00000  Uiso   1.00
H160   H     0.61183   0.10342   0.11602   0.00000  Uiso   1.00
O161   O     0.18453   0.78974   0.16667   0.00000  Uiso   1.00
O162   O     0.31547   0.71026   0.16666   0.00000  Uiso   1.00
O163   O     0.31547   0.78974   0.16666   0.00000  Uiso   1.00
O164   O     0.18453   0.71026   0.16667   0.00000  Uiso   1.00
C165   C     0.16371   0.75000   0.16760   0.00000  Uiso   1.00
C166   C     0.33594   0.75014   0.16679   0.00000  Uiso   1.00
O167   O     0.25000   0.78973   0.09511   0.00000  Uiso   1.00
O168   O     0.25000   0.71027   0.23822   0.00000  Uiso   1.00
O169   O     0.25000   0.78973   0.23822   0.00000  Uiso   1.00
O170   O     0.25000   0.71027   0.09511   0.00000  Uiso   1.00
C171   C     0.23351   0.55220   0.12521   0.00000  Uiso   1.00
C172   C     0.28536   0.94729   0.18978   0.00000  Uiso   1.00
C173   C     0.26647   0.55155   0.20801   0.00000  Uiso   1.00
C174   C     0.21535   0.94821   0.14352   0.00000  Uiso   1.00
C175   C     0.24998   0.75008   0.07292   0.00000  Uiso   1.00
C176   C     0.25026   0.74992   0.26042   0.00000  Uiso   1.00
Zn177  Zn    0.25000   0.80307   0.16667   0.00000  Uiso   1.00
Zn178  Zn    0.25000   0.69693   0.16667   0.00000  Uiso   1.00
N179   N     0.25000   0.62623   0.16667   0.00000  Uiso   1.00
N180   N     0.25000   0.87376   0.16667   0.00000  Uiso   1.00
C181   C     0.25031   0.52627   0.16652   0.00000  Uiso   1.00
C182   C     0.25042   0.97336   0.16661   0.00000  Uiso   1.00
C183   C     0.25017   0.75010   0.02180   0.00000  Uiso   1.00
C184   C     0.25027   0.74987   0.31155   0.00000  Uiso   1.00
C185   C     0.04706   0.79443   0.17680   0.00000  Uiso   1.00
C186   C     0.45554   0.72635   0.19929   0.00000  Uiso   1.00
C187   C     0.44995   0.78398   0.13220   0.00000  Uiso   1.00
C188   C     0.04398   0.71234   0.15486   0.00000  Uiso   1.00
H189   H     0.03011   0.82664   0.18577   0.00000  Uiso   1.00
H190   H     0.47572   0.70514   0.22544   0.00000  Uiso   1.00
H191   H     0.46585   0.80714   0.10637   0.00000  Uiso   1.00
H192   H     0.02327   0.68209   0.14736   0.00000  Uiso   1.00
C193   C     0.09301   0.79203   0.18159   0.00000  Uiso   1.00
C194   C     0.40974   0.72524   0.20094   0.00000  Uiso   1.00
C195   C     0.40380   0.78160   0.13183   0.00000  Uiso   1.00
C196   C     0.09050   0.70902   0.15715   0.00000  Uiso   1.00
C197   C     0.11515   0.75016   0.16896   0.00000  Uiso   1.00
C198   C     0.38374   0.75145   0.16589   0.00000  Uiso   1.00
C199   C     0.02300   0.75474   0.16361   0.00000  Uiso   1.00
C200   C     0.47536   0.75546   0.16503   0.00000  Uiso   1.00
C201   C     0.23283   0.60171   0.12576   0.00000  Uiso   1.00
C202   C     0.28463   0.89784   0.18997   0.00000  Uiso   1.00
C203   C     0.26646   0.60099   0.20770   0.00000  Uiso   1.00
C204   C     0.21559   0.89880   0.14315   0.00000  Uiso   1.00
H205   H     0.22052   0.53407   0.09225   0.00000  Uiso   1.00
H206   H     0.31345   0.96513   0.20780   0.00000  Uiso   1.00
H207   H     0.27942   0.53298   0.24101   0.00000  Uiso   1.00
H208   H     0.18753   0.96685   0.12541   0.00000  Uiso   1.00
N209   N     0.21334   0.62534   0.08269   0.00000  Uiso   1.00
O210   O     0.18099   0.65486   0.08760   0.00000  Uiso   1.00
O211   O     0.21984   0.60912   0.03835   0.00000  Uiso   1.00
N212   N     0.32097   0.87340   0.21477   0.00000  Uiso   1.00
O213   O     0.31488   0.85144   0.25650   0.00000  Uiso   1.00
O214   O     0.36141   0.88240   0.20265   0.00000  Uiso   1.00
N215   N     0.28511   0.62396   0.25089   0.00000  Uiso   1.00
O216   O     0.31906   0.65099   0.24621   0.00000  Uiso   1.00
O217   O     0.27702   0.60823   0.29516   0.00000  Uiso   1.00
N218   N     0.17925   0.87574   0.11715   0.00000  Uiso   1.00
O219   O     0.18689   0.84978   0.07882   0.00000  Uiso   1.00
O220   O     0.13900   0.89141   0.12175   0.00000  Uiso   1.00
O221   O     0.11594   0.83114   0.19844   0.00000  Uiso   1.00
C222   C     0.12207   0.82799   0.25093   0.00000  Uiso   1.00
H223   H     0.14185   0.79639   0.26254   0.00000  Uiso   1.00
H224   H     0.08960   0.82810   0.26915   0.00000  Uiso   1.00
H225   H     0.14099   0.85906   0.26443   0.00000  Uiso   1.00
O226   O     0.39069   0.69849   0.23700   0.00000  Uiso   1.00
C227   C     0.39007   0.72487   0.28135   0.00000  Uiso   1.00
H228   H     0.37015   0.75759   0.27560   0.00000  Uiso   1.00
H229   H     0.42440   0.73312   0.29606   0.00000  Uiso   1.00
H230   H     0.37404   0.70373   0.31025   0.00000  Uiso   1.00
O231   O     0.37834   0.81074   0.10037   0.00000  Uiso   1.00
C232   C     0.37326   0.78936   0.05317   0.00000  Uiso   1.00
H233   H     0.35733   0.75437   0.05581   0.00000  Uiso   1.00
H234   H     0.40578   0.78644   0.03538   0.00000  Uiso   1.00
H235   H     0.35109   0.81159   0.02856   0.00000  Uiso   1.00
O236   O     0.11316   0.66653   0.15245   0.00000  Uiso   1.00
C237   C     0.08868   0.63190   0.12574   0.00000  Uiso   1.00
H238   H     0.07325   0.64588   0.09003   0.00000  Uiso   1.00
H239   H     0.06356   0.61589   0.14955   0.00000  Uiso   1.00
H240   H     0.11183   0.60342   0.11602   0.00000  Uiso   1.00
O241   O     0.68453   0.78974   0.16667   0.00000  Uiso   1.00
O242   O     0.81547   0.71026   0.16666   0.00000  Uiso   1.00
O243   O     0.81547   0.78974   0.16666   0.00000  Uiso   1.00
O244   O     0.68453   0.71026   0.16667   0.00000  Uiso   1.00
C245   C     0.66371   0.75000   0.16760   0.00000  Uiso   1.00
C246   C     0.83594   0.75014   0.16679   0.00000  Uiso   1.00
O247   O     0.75000   0.78973   0.09511   0.00000  Uiso   1.00
O248   O     0.75000   0.71027   0.23822   0.00000  Uiso   1.00
O249   O     0.75000   0.78973   0.23822   0.00000  Uiso   1.00
O250   O     0.75000   0.71027   0.09511   0.00000  Uiso   1.00
C251   C     0.73351   0.55220   0.12521   0.00000  Uiso   1.00
C252   C     0.78536   0.94729   0.18978   0.00000  Uiso   1.00
C253   C     0.76647   0.55155   0.20801   0.00000  Uiso   1.00
C254   C     0.71535   0.94821   0.14352   0.00000  Uiso   1.00
C255   C     0.74998   0.75008   0.07292   0.00000  Uiso   1.00
C256   C     0.75026   0.74992   0.26042   0.00000  Uiso   1.00
Zn257  Zn    0.75000   0.80307   0.16667   0.00000  Uiso   1.00
Zn258  Zn    0.75000   0.69693   0.16667   0.00000  Uiso   1.00
N259   N     0.75000   0.62623   0.16667   0.00000  Uiso   1.00
N260   N     0.75000   0.87376   0.16667   0.00000  Uiso   1.00
C261   C     0.75031   0.52627   0.16652   0.00000  Uiso   1.00
C262   C     0.75042   0.97336   0.16661   0.00000  Uiso   1.00
C263   C     0.75017   0.75010   0.02180   0.00000  Uiso   1.00
C264   C     0.75027   0.74987   0.31155   0.00000  Uiso   1.00
C265   C     0.54706   0.79443   0.17680   0.00000  Uiso   1.00
C266   C     0.95554   0.72635   0.19929   0.00000  Uiso   1.00
C267   C     0.94995   0.78398   0.13220   0.00000  Uiso   1.00
C268   C     0.54398   0.71234   0.15486   0.00000  Uiso   1.00
H269   H     0.53011   0.82664   0.18577   0.00000  Uiso   1.00
H270   H     0.97572   0.70514   0.22544   0.00000  Uiso   1.00
H271   H     0.96585   0.80714   0.10637   0.00000  Uiso   1.00
H272   H     0.52327   0.68209   0.14736   0.00000  Uiso   1.00
C273   C     0.59301   0.79203   0.18159   0.00000  Uiso   1.00
C274   C     0.90974   0.72524   0.20094   0.00000  Uiso   1.00
C275   C     0.90380   0.78160   0.13183   0.00000  Uiso   1.00
C276   C     0.59050   0.70902   0.15715   0.00000  Uiso   1.00
C277   C     0.61515   0.75016   0.16896   0.00000  Uiso   1.00
C278   C     0.88374   0.75145   0.16589   0.00000  Uiso   1.00
C279   C     0.52300   0.75474   0.16361   0.00000  Uiso   1.00
C280   C     0.97536   0.75546   0.16503   0.00000  Uiso   1.00
C281   C     0.73283   0.60171   0.12576   0.00000  Uiso   1.00
C282   C     0.78463   0.89784   0.18997   0.00000  Uiso   1.00
C283   C     0.76646   0.60099   0.20770   0.00000  Uiso   1.00
C284   C     0.71559   0.89880   0.14315   0.00000  Uiso   1.00
H285   H     0.72052   0.53407   0.09225   0.00000  Uiso   1.00
H286   H     0.81345   0.96513   0.20780   0.00000  Uiso   1.00
H287   H     0.77942   0.53298   0.24101   0.00000  Uiso   1.00
H288   H     0.68753   0.96685   0.12541   0.00000  Uiso   1.00
N289   N     0.71334   0.62534   0.08269   0.00000  Uiso   1.00
O290   O     0.68099   0.65486   0.08760   0.00000  Uiso   1.00
O291   O     0.71984   0.60912   0.03835   0.00000  Uiso   1.00
N292   N     0.82097   0.87340   0.21477   0.00000  Uiso   1.00
O293   O     0.81488   0.85144   0.25650   0.00000  Uiso   1.00
O294   O     0.86141   0.88240   0.20265   0.00000  Uiso   1.00
N295   N     0.78511   0.62396   0.25089   0.00000  Uiso   1.00
O296   O     0.81906   0.65099   0.24621   0.00000  Uiso   1.00
O297   O     0.77702   0.60823   0.29516   0.00000  Uiso   1.00
N298   N     0.67925   0.87574   0.11715   0.00000  Uiso   1.00
O299   O     0.68689   0.84978   0.07882   0.00000  Uiso   1.00
O300   O     0.63900   0.89141   0.12175   0.00000  Uiso   1.00
O301   O     0.61594   0.83114   0.19844   0.00000  Uiso   1.00
C302   C     0.62207   0.82799   0.25093   0.00000  Uiso   1.00
H303   H     0.64185   0.79639   0.26254   0.00000  Uiso   1.00
H304   H     0.58960   0.82810   0.26915   0.00000  Uiso   1.00
H305   H     0.64099   0.85906   0.26443   0.00000  Uiso   1.00
O306   O     0.89069   0.69849   0.23700   0.00000  Uiso   1.00
C307   C     0.89007   0.72487   0.28135   0.00000  Uiso   1.00
H308   H     0.87015   0.75759   0.27560   0.00000  Uiso   1.00
H309   H     0.92440   0.73312   0.29606   0.00000  Uiso   1.00
H310   H     0.87404   0.70373   0.31025   0.00000  Uiso   1.00
O311   O     0.87834   0.81074   0.10037   0.00000  Uiso   1.00
C312   C     0.87326   0.78936   0.05317   0.00000  Uiso   1.00
H313   H     0.85733   0.75437   0.05581   0.00000  Uiso   1.00
H314   H     0.90578   0.78644   0.03538   0.00000  Uiso   1.00
H315   H     0.85109   0.81159   0.02856   0.00000  Uiso   1.00
O316   O     0.61316   0.66653   0.15245   0.00000  Uiso   1.00
C317   C     0.58868   0.63190   0.12574   0.00000  Uiso   1.00
H318   H     0.57325   0.64588   0.09003   0.00000  Uiso   1.00
H319   H     0.56356   0.61589   0.14955   0.00000  Uiso   1.00
H320   H     0.61183   0.60342   0.11602   0.00000  Uiso   1.00
O321   O     0.18453   0.28974   0.50000   0.00000  Uiso   1.00
O322   O     0.31547   0.21026   0.50000   0.00000  Uiso   1.00
O323   O     0.31547   0.28974   0.50000   0.00000  Uiso   1.00
O324   O     0.18453   0.21026   0.50000   0.00000  Uiso   1.00
C325   C     0.16371   0.25000   0.50093   0.00000  Uiso   1.00
C326   C     0.33594   0.25014   0.50012   0.00000  Uiso   1.00
O327   O     0.25000   0.28973   0.42845   0.00000  Uiso   1.00
O328   O     0.25000   0.21027   0.57155   0.00000  Uiso   1.00
O329   O     0.25000   0.28973   0.57155   0.00000  Uiso   1.00
O330   O     0.25000   0.21027   0.42845   0.00000  Uiso   1.00
C331   C     0.23351   0.05220   0.45855   0.00000  Uiso   1.00
C332   C     0.28536   0.44729   0.52311   0.00000  Uiso   1.00
C333   C     0.26647   0.05155   0.54134   0.00000  Uiso   1.00
C334   C     0.21535   0.44821   0.47685   0.00000  Uiso   1.00
C335   C     0.24998   0.25008   0.40626   0.00000  Uiso   1.00
C336   C     0.25026   0.24992   0.59375   0.00000  Uiso   1.00
Zn337  Zn    0.25000   0.30307   0.50000   0.00000  Uiso   1.00
Zn338  Zn    0.25000   0.19693   0.50000   0.00000  Uiso   1.00
N339   N     0.25000   0.12623   0.50000   0.00000  Uiso   1.00
N340   N     0.25000   0.37376   0.50000   0.00000  Uiso   1.00
C341   C     0.25031   0.02627   0.49985   0.00000  Uiso   1.00
C342   C     0.25042   0.47336   0.49994   0.00000  Uiso   1.00
C343   C     0.25017   0.25010   0.35513   0.00000  Uiso   1.00
C344   C     0.25027   0.24987   0.64488   0.00000  Uiso   1.00
C345   C     0.04706   0.29443   0.51013   0.00000  Uiso   1.00
C346   C     0.45554   0.22635   0.53262   0.00000  Uiso   1.00
C347   C     0.44995   0.28398   0.46553   0.00000  Uiso   1.00
C348   C     0.04398   0.21234   0.48820   0.00000  Uiso   1.00
H349   H     0.03011   0.32664   0.51910   0.00000  Uiso   1.00
H350   H     0.47572   0.20514   0.55877   0.00000  Uiso   1.00
H351   H     0.46585   0.30714   0.43971   0.00000  Uiso   1.00
H352   H     0.02327   0.18209   0.48069   0.00000  Uiso   1.00
C353   C     0.09301   0.29203   0.51492   0.00000  Uiso   1.00
C354   C     0.40974   0.22524   0.53428   0.00000  Uiso   1.00
C355   C     0.40380   0.28160   0.46516   0.00000  Uiso   1.00
C356   C     0.09050   0.20902   0.49048   0.00000  Uiso   1.00
C357   C     0.11515   0.25016   0.50230   0.00000  Uiso   1.00
C358   C     0.38374   0.25145   0.49922   0.00000  Uiso   1.00
C359   C     0.02300   0.25474   0.49695   0.00000  Uiso   1.00
C360   C     0.47536   0.25546   0.49837   0.00000  Uiso   1.00
C361   C     0.23283   0.10171   0.45909   0.00000  Uiso   1.00
C362   C     0.28463   0.39784   0.52331   0.00000  Uiso   1.00
C363   C     0.26646   0.10099   0.54103   0.00000  Uiso   1.00
C364   C     0.21559   0.39880   0.47648   0.00000  Uiso   1.00
H365   H     0.22052   0.03407   0.42558   0.00000  Uiso   1.00
H366   H     0.31345   0.46513   0.54113   0.00000  Uiso   1.00
H367   H     0.27942   0.03298   0.57434   0.00000  Uiso   1.00
H368   H     0.18753   0.46685   0.45874   0.00000  Uiso   1.00
N369   N     0.21334   0.12534   0.41602   0.00000  Uiso   1.00
O370   O     0.18099   0.15486   0.42094   0.00000  Uiso   1.00
O371   O     0.21984   0.10912   0.37168   0.00000  Uiso   1.00
N372   N     0.32097   0.37340   0.54810   0.00000  Uiso   1.00
O373   O     0.31488   0.35144   0.58983   0.00000  Uiso   1.00
O374   O     0.36141   0.38240   0.53598   0.00000  Uiso   1.00
N375   N     0.28511   0.12396   0.58422   0.00000  Uiso   1.00
O376   O     0.31906   0.15099   0.57954   0.00000  Uiso   1.00
O377   O     0.27702   0.10823   0.62849   0.00000  Uiso   1.00
N378   N     0.17925   0.37574   0.45048   0.00000  Uiso   1.00
O379   O     0.18689   0.34978   0.41216   0.00000  Uiso   1.00
O380   O     0.13900   0.39141   0.45508   0.00000  Uiso   1.00
O381   O     0.11594   0.33114   0.53177   0.00000  Uiso   1.00
C382   C     0.12207   0.32799   0.58426   0.00000  Uiso   1.00
H383   H     0.14185   0.29639   0.59587   0.00000  Uiso   1.00
H384   H     0.08960   0.32810   0.60249   0.00000  Uiso   1.00
H385   H     0.14099   0.35906   0.59776   0.00000  Uiso   1.00
O386   O     0.39069   0.19849   0.57033   0.00000  Uiso   1.00
C387   C     0.39007   0.22487   0.61468   0.00000  Uiso   1.00
H388   H     0.37015   0.25759   0.60894   0.00000  Uiso   1.00
H389   H     0.42440   0.23312   0.62939   0.00000  Uiso   1.00
H390   H     0.37404   0.20373   0.64359   0.00000  Uiso   1.00
O391   O     0.37834   0.31074   0.43370   0.00000  Uiso   1.00
C392   C     0.37326   0.28936   0.38651   0.00000  Uiso   1.00
H393   H     0.35733   0.25437   0.38914   0.00000  Uiso   1.00
H394   H     0.40578   0.28644   0.36871   0.00000  Uiso   1.00
H395   H     0.35109   0.31159   0.36190   0.00000  Uiso   1.00
O396   O     0.11316   0.16653   0.48578   0.00000  Uiso   1.00
C397   C     0.08868   0.13190   0.45907   0.00000  Uiso   1.00
H398   H     0.07325   0.14588   0.42336   0.00000  Uiso   1.00
H399   H     0.06356   0.11589   0.48289   0.00000  Uiso   1.00
H400   H     0.11183   0.10342   0.44935   0.00000  Uiso   1.00
O401   O     0.68453   0.28974   0.50000   0.00000  Uiso   1.00
O402   O     0.81547   0.21026   0.50000   0.00000  Uiso   1.00
O403   O     0.81547   0.28974   0.50000   0.00000  Uiso   1.00
O404   O     0.68453   0.21026   0.50000   0.00000  Uiso   1.00
C405   C     0.66371   0.25000   0.50093   0.00000  Uiso   1.00
C406   C     0.83594   0.25014   0.50012   0.00000  Uiso   1.00
O407   O     0.75000   0.28973   0.42845   0.00000  Uiso   1.00
O408   O     0.75000   0.21027   0.57155   0.00000  Uiso   1.00
O409   O     0.75000   0.28973   0.57155   0.00000  Uiso   1.00
O410   O     0.75000   0.21027   0.42845   0.00000  Uiso   1.00
C411   C     0.73351   0.05220   0.45855   0.00000  Uiso   1.00
C412   C     0.78536   0.44729   0.52311   0.00000  Uiso   1.00
C413   C     0.76647   0.05155   0.54134   0.00000  Uiso   1.00
C414   C     0.71535   0.44821   0.47685   0.00000  Uiso   1.00
C415   C     0.74998   0.25008   0.40626   0.00000  Uiso   1.00
C416   C     0.75026   0.24992   0.59375   0.00000  Uiso   1.00
Zn417  Zn    0.75000   0.30307   0.50000   0.00000  Uiso   1.00
Zn418  Zn    0.75000   0.19693   0.50000   0.00000  Uiso   1.00
N419   N     0.75000   0.12623   0.50000   0.00000  Uiso   1.00
N420   N     0.75000   0.37376   0.50000   0.00000  Uiso   1.00
C421   C     0.75031   0.02627   0.49985   0.00000  Uiso   1.00
C422   C     0.75042   0.47336   0.49994   0.00000  Uiso   1.00
C423   C     0.75017   0.25010   0.35513   0.00000  Uiso   1.00
C424   C     0.75027   0.24987   0.64488   0.00000  Uiso   1.00
C425   C     0.54706   0.29443   0.51013   0.00000  Uiso   1.00
C426   C     0.95554   0.22635   0.53262   0.00000  Uiso   1.00
C427   C     0.94995   0.28398   0.46553   0.00000  Uiso   1.00
C428   C     0.54398   0.21234   0.48820   0.00000  Uiso   1.00
H429   H     0.53011   0.32664   0.51910   0.00000  Uiso   1.00
H430   H     0.97572   0.20514   0.55877   0.00000  Uiso   1.00
H431   H     0.96585   0.30714   0.43971   0.00000  Uiso   1.00
H432   H     0.52327   0.18209   0.48069   0.00000  Uiso   1.00
C433   C     0.59301   0.29203   0.51492   0.00000  Uiso   1.00
C434   C     0.90974   0.22524   0.53428   0.00000  Uiso   1.00
C435   C     0.90380   0.28160   0.46516   0.00000  Uiso   1.00
C436   C     0.59050   0.20902   0.49048   0.00000  Uiso   1.00
C437   C     0.61515   0.25016   0.50230   0.00000  Uiso   1.00
C438   C     0.88374   0.25145   0.49922   0.00000  Uiso   1.00
C439   C     0.52300   0.25474   0.49695   0.00000  Uiso   1.00
C440   C     0.97536   0.25546   0.49837   0.00000  Uiso   1.00
C441   C     0.73283   0.10171   0.45909   0.00000  Uiso   1.00
C442   C     0.78463   0.39784   0.52331   0.00000  Uiso   1.00
C443   C     0.76646   0.10099   0.54103   0.00000  Uiso   1.00
C444   C     0.71559   0.39880   0.47648   0.00000  Uiso   1.00
H445   H     0.72052   0.03407   0.42558   0.00000  Uiso   1.00
H446   H     0.81345   0.46513   0.54113   0.00000  Uiso   1.00
H447   H     0.77942   0.03298   0.57434   0.00000  Uiso   1.00
H448   H     0.68753   0.46685   0.45874   0.00000  Uiso   1.00
N449   N     0.71334   0.12534   0.41602   0.00000  Uiso   1.00
O450   O     0.68099   0.15486   0.42094   0.00000  Uiso   1.00
O451   O     0.71984   0.10912   0.37168   0.00000  Uiso   1.00
N452   N     0.82097   0.37340   0.54810   0.00000  Uiso   1.00
O453   O     0.81488   0.35144   0.58983   0.00000  Uiso   1.00
O454   O     0.86141   0.38240   0.53598   0.00000  Uiso   1.00
N455   N     0.78511   0.12396   0.58422   0.00000  Uiso   1.00
O456   O     0.81906   0.15099   0.57954   0.00000  Uiso   1.00
O457   O     0.77702   0.10823   0.62849   0.00000  Uiso   1.00
N458   N     0.67925   0.37574   0.45048   0.00000  Uiso   1.00
O459   O     0.68689   0.34978   0.41216   0.00000  Uiso   1.00
O460   O     0.63900   0.39141   0.45508   0.00000  Uiso   1.00
O461   O     0.61594   0.33114   0.53177   0.00000  Uiso   1.00
C462   C     0.62207   0.32799   0.58426   0.00000  Uiso   1.00
H463   H     0.64185   0.29639   0.59587   0.00000  Uiso   1.00
H464   H     0.58960   0.32810   0.60249   0.00000  Uiso   1.00
H465   H     0.64099   0.35906   0.59776   0.00000  Uiso   1.00
O466   O     0.89069   0.19849   0.57033   0.00000  Uiso   1.00
C467   C     0.89007   0.22487   0.61468   0.00000  Uiso   1.00
H468   H     0.87015   0.25759   0.60894   0.00000  Uiso   1.00
H469   H     0.92440   0.23312   0.62939   0.00000  Uiso   1.00
H470   H     0.87404   0.20373   0.64359   0.00000  Uiso   1.00
O471   O     0.87834   0.31074   0.43370   0.00000  Uiso   1.00
C472   C     0.87326   0.28936   0.38651   0.00000  Uiso   1.00
H473   H     0.85733   0.25437   0.38914   0.00000  Uiso   1.00
H474   H     0.90578   0.28644   0.36871   0.00000  Uiso   1.00
H475   H     0.85109   0.31159   0.36190   0.00000  Uiso   1.00
O476   O     0.61316   0.16653   0.48578   0.00000  Uiso   1.00
C477   C     0.58868   0.13190   0.45907   0.00000  Uiso   1.00
H478   H     0.57325   0.14588   0.42336   0.00000  Uiso   1.00
H479   H     0.56356   0.11589   0.48289   0.00000  Uiso   1.00
H480   H     0.61183   0.10342   0.44935   0.00000  Uiso   1.00
O481   O     0.18453   0.78974   0.50000   0.00000  Uiso   1.00
O482   O     0.31547   0.71026   0.50000   0.00000  Uiso   1.00
O483   O     0.31547   0.78974   0.50000   0.00000  Uiso   1.00
O484   O     0.18453   0.71026   0.50000   0.00000  Uiso   1.00
C485   C     0.16371   0.75000   0.50093   0.00000  Uiso   1.00
C486   C     0.33594   0.75014   0.50012   0.00000  Uiso   1.00
O487   O     0.25000   0.78973   0.42845   0.00000  Uiso   1.00
O488   O     0.25000   0.71027   0.57155   0.00000  Uiso   1.00
O489   O     0.25000   0.78973   0.57155   0.00000  Uiso   1.00
O490   O     0.25000   0.71027   0.42845   0.00000  Uiso   1.00
C491   C     0.23351   0.55220   0.45855   0.00000  Uiso   1.00
C492   C     0.28536   0.94729   0.52311   0.00000  Uiso   1.00
C493   C     0.26647   0.55155   0.54134   0.00000  Uiso   1.00
C494   C     0.21535   0.94821   0.47685   0.00000  Uiso   1.00
C495   C     0.24998   0.75008   0.40626   0.00000  Uiso   1.00
C496   C     0.25026   0.74992   0.59375   0.00000  Uiso   1.00
Zn497  Zn    0.25000   0.80307   0.50000   0.00000  Uiso   1.00
Zn498  Zn    0.25000   0.69693   0.50000   0.00000  Uiso   1.00
N499   N     0.25000   0.62623   0.50000   0.00000  Uiso   1.00
N500   N     0.25000   0.87376   0.50000   0.00000  Uiso   1.00
C501   C     0.25031   0.52627   0.49985   0.00000  Uiso   1.00
C502   C     0.25042   0.97336   0.49994   0.00000  Uiso   1.00
C503   C     0.25017   0.75010   0.35513   0.00000  Uiso   1.00
C504   C     0.25027   0.74987   0.64488   0.00000  Uiso   1.00
C505   C     0.04706   0.79443   0.51013   0.00000  Uiso   1.00
C506   C     0.45554   0.72635   0.53262   0.00000  Uiso   1.00
C507   C     0.44995   0.78398   0.46553   0.00000  Uiso   1.00
C508   C     0.04398   0.71234   0.48820   0.00000  Uiso   1.00
H509   H     0.03011   0.82664   0.51910   0.00000  Uiso   1.00
H510   H     0.47572   0.70514   0.55877   0.00000  Uiso   1.00
H511   H     0.46585   0.80714   0.43971   0.00000  Uiso   1.00
H512   H     0.02327   0.68209   0.48069   0.00000  Uiso   1.00
C513   C     0.09301   0.79203   0.51492   0.00000  Uiso   1.00
C514   C     0.40974   0.72524   0.53428   0.00000  Uiso   1.00
C515   C     0.40380   0.78160   0.46516   0.00000  Uiso   1.00
C516   C     0.09050   0.70902   0.49048   0.00000  Uiso   1.00
C517   C     0.11515   0.75016   0.50230   0.00000  Uiso   1.00
C518   C     0.38374   0.75145   0.49922   0.00000  Uiso   1.00
C519   C     0.02300   0.75474   0.49695   0.00000  Uiso   1.00
C520   C     0.47536   0.75546   0.49837   0.00000  Uiso   1.00
C521   C     0.23283   0.60171   0.45909   0.00000  Uiso   1.00
C522   C     0.28463   0.89784   0.52331   0.00000  Uiso   1.00
C523   C     0.26646   0.60099   0.54103   0.00000  Uiso   1.00
C524   C     0.21559   0.89880   0.47648   0.00000  Uiso   1.00
H525   H     0.22052   0.53407   0.42558   0.00000  Uiso   1.00
H526   H     0.31345   0.96513   0.54113   0.00000  Uiso   1.00
H527   H     0.27942   0.53298   0.57434   0.00000  Uiso   1.00
H528   H     0.18753   0.96685   0.45874   0.00000  Uiso   1.00
N529   N     0.21334   0.62534   0.41602   0.00000  Uiso   1.00
O530   O     0.18099   0.65486   0.42094   0.00000  Uiso   1.00
O531   O     0.21984   0.60912   0.37168   0.00000  Uiso   1.00
N532   N     0.32097   0.87340   0.54810   0.00000  Uiso   1.00
O533   O     0.31488   0.85144   0.58983   0.00000  Uiso   1.00
O534   O     0.36141   0.88240   0.53598   0.00000  Uiso   1.00
N535   N     0.28511   0.62396   0.58422   0.00000  Uiso   1.00
O536   O     0.31906   0.65099   0.57954   0.00000  Uiso   1.00
O537   O     0.27702   0.60823   0.62849   0.00000  Uiso   1.00
N538   N     0.17925   0.87574   0.45048   0.00000  Uiso   1.00
O539   O     0.18689   0.84978   0.41216   0.00000  Uiso   1.00
O540   O     0.13900   0.89141   0.45508   0.00000  Uiso   1.00
O541   O     0.11594   0.83114   0.53177   0.00000  Uiso   1.00
C542   C     0.12207   0.82799   0.58426   0.00000  Uiso   1.00
H543   H     0.14185   0.79639   0.59587   0.00000  Uiso   1.00
H544   H     0.08960   0.82810   0.60249   0.00000  Uiso   1.00
H545   H     0.14099   0.85906   0.59776   0.00000  Uiso   1.00
O546   O     0.39069   0.69849   0.57033   0.00000  Uiso   1.00
C547   C     0.39007   0.72487   0.61468   0.00000  Uiso   1.00
H548   H     0.37015   0.75759   0.60894   0.00000  Uiso   1.00
H549   H     0.42440   0.73312   0.62939   0.00000  Uiso   1.00
H550   H     0.37404   0.70373   0.64359   0.00000  Uiso   1.00
O551   O     0.37834   0.81074   0.43370   0.00000  Uiso   1.00
C552   C     0.37326   0.78936   0.38651   0.00000  Uiso   1.00
H553   H     0.35733   0.75437   0.38914   0.00000  Uiso   1.00
H554   H     0.40578   0.78644   0.36871   0.00000  Uiso   1.00
H555   H     0.35109   0.81159   0.36190   0.00000  Uiso   1.00
O556   O     0.11316   0.66653   0.48578   0.00000  Uiso   1.00
C557   C     0.08868   0.63190   0.45907   0.00000  Uiso   1.00
H558   H     0.07325   0.64588   0.42336   0.00000  Uiso   1.00
H559   H     0.06356   0.61589   0.48289   0.00000  Uiso   1.00
H560   H     0.11183   0.60342   0.44935   0.00000  Uiso   1.00
O561   O     0.68453   0.78974   0.50000   0.00000  Uiso   1.00
O562   O     0.81547   0.71026   0.50000   0.00000  Uiso   1.00
O563   O     0.81547   0.78974   0.50000   0.00000  Uiso   1.00
O564   O     0.68453   0.71026   0.50000   0.00000  Uiso   1.00
C565   C     0.66371   0.75000   0.50093   0.00000  Uiso   1.00
C566   C     0.83594   0.75014   0.50012   0.00000  Uiso   1.00
O567   O     0.75000   0.78973   0.42845   0.00000  Uiso   1.00
O568   O     0.75000   0.71027   0.57155   0.00000  Uiso   1.00
O569   O     0.75000   0.78973   0.57155   0.00000  Uiso   1.00
O570   O     0.75000   0.71027   0.42845   0.00000  Uiso   1.00
C571   C     0.73351   0.55220   0.45855   0.00000  Uiso   1.00
C572   C     0.78536   0.94729   0.52311   0.00000  Uiso   1.00
C573   C     0.76647   0.55155   0.54134   0.00000  Uiso   1.00
C574   C     0.71535   0.94821   0.47685   0.00000  Uiso   1.00
C575   C     0.74998   0.75008   0.40626   0.00000  Uiso   1.00
C576   C     0.75026   0.74992   0.59375   0.00000  Uiso   1.00
Zn577  Zn    0.75000   0.80307   0.50000   0.00000  Uiso   1.00
Zn578  Zn    0.75000   0.69693   0.50000   0.00000  Uiso   1.00
N579   N     0.75000   0.62623   0.50000   0.00000  Uiso   1.00
N580   N     0.75000   0.87376   0.50000   0.00000  Uiso   1.00
C581   C     0.75031   0.52627   0.49985   0.00000  Uiso   1.00
C582   C     0.75042   0.97336   0.49994   0.00000  Uiso   1.00
C583   C     0.75017   0.75010   0.35513   0.00000  Uiso   1.00
C584   C     0.75027   0.74987   0.64488   0.00000  Uiso   1.00
C585   C     0.54706   0.79443   0.51013   0.00000  Uiso   1.00
C586   C     0.95554   0.72635   0.53262   0.00000  Uiso   1.00
C587   C     0.94995   0.78398   0.46553   0.00000  Uiso   1.00
C588   C     0.54398   0.71234   0.48820   0.00000  Uiso   1.00
H589   H     0.53011   0.82664   0.51910   0.00000  Uiso   1.00
H590   H     0.97572   0.70514   0.55877   0.00000  Uiso   1.00
H591   H     0.96585   0.80714   0.43971   0.00000  Uiso   1.00
H592   H     0.52327   0.68209   0.48069   0.00000  Uiso   1.00
C593   C     0.59301   0.79203   0.51492   0.00000  Uiso   1.00
C594   C     0.90974   0.72524   0.53428   0.00000  Uiso   1.00
C595   C     0.90380   0.78160   0.46516   0.00000  Uiso   1.00
C596   C     0.59050   0.70902   0.49048   0.00000  Uiso   1.00
C597   C     0.61515   0.75016   0.50230   0.00000  Uiso   1.00
C598   C     0.88374   0.75145   0.49922   0.00000  Uiso   1.00
C599   C     0.52300   0.75474   0.49695   0.00000  Uiso   1.00
C600   C     0.97536   0.75546   0.49837   0.00000  Uiso   1.00
C601   C     0.73283   0.60171   0.45909   0.00000  Uiso   1.00
C602   C     0.78463   0.89784   0.52331   0.00000  Uiso   1.00
C603   C     0.76646   0.60099   0.54103   0.00000  Uiso   1.00
C604   C     0.71559   0.89880   0.47648   0.00000  Uiso   1.00
H605   H     0.72052   0.53407   0.42558   0.00000  Uiso   1.00
H606   H     0.81345   0.96513   0.54113   0.00000  Uiso   1.00
H607   H     0.77942   0.53298   0.57434   0.00000  Uiso   1.00
H608   H     0.68753   0.96685   0.45874   0.00000  Uiso   1.00
N609   N     0.71334   0.62534   0.41602   0.00000  Uiso   1.00
O610   O     0.68099   0.65486   0.42094   0.00000  Uiso   1.00
O611   O     0.71984   0.60912   0.37168   0.00000  Uiso   1.00
N612   N     0.82097   0.87340   0.54810   0.00000  Uiso   1.00
O613   O     0.81488   0.85144   0.58983   0.00000  Uiso   1.00
O614   O     0.86141   0.88240   0.53598   0.00000  Uiso   1.00
N615   N     0.78511   0.62396   0.58422   0.00000  Uiso   1.00
O616   O     0.81906   0.65099   0.57954   0.00000  Uiso   1.00
O617   O     0.77702   0.60823   0.62849   0.00000  Uiso   1.00
N618   N     0.67925   0.87574   0.45048   0.00000  Uiso   1.00
O619   O     0.68689   0.84978   0.41216   0.00000  Uiso   1.00
O620   O     0.63900   0.89141   0.45508   0.00000  Uiso   1.00
O621   O     0.61594   0.83114   0.53177   0.00000  Uiso   1.00
C622   C     0.62207   0.82799   0.58426   0.00000  Uiso   1.00
H623   H     0.64185   0.79639   0.59587   0.00000  Uiso   1.00
H624   H     0.58960   0.82810   0.60249   0.00000  Uiso   1.00
H625   H     0.64099   0.85906   0.59776   0.00000  Uiso   1.00
O626   O     0.89069   0.69849   0.57033   0.00000  Uiso   1.00
C627   C     0.89007   0.72487   0.61468   0.00000  Uiso   1.00
H628   H     0.87015   0.75759   0.60894   0.00000  Uiso   1.00
H629   H     0.92440   0.73312   0.62939   0.00000  Uiso   1.00
H630   H     0.87404   0.70373   0.64359   0.00000  Uiso   1.00
O631   O     0.87834   0.81074   0.43370   0.00000  Uiso   1.00
C632   C     0.87326   0.78936   0.38651   0.00000  Uiso   1.00
H633   H     0.85733   0.75437   0.38914   0.00000  Uiso   1.00
H634   H     0.90578   0.78644   0.36871   0.00000  Uiso   1.00
H635   H     0.85109   0.81159   0.36190   0.00000  Uiso   1.00
O636   O     0.61316   0.66653   0.48578   0.00000  Uiso   1.00
C637   C     0.58868   0.63190   0.45907   0.00000  Uiso   1.00
H638   H     0.57325   0.64588   0.42336   0.00000  Uiso   1.00
H639   H     0.56356   0.61589   0.48289   0.00000  Uiso   1.00
H640   H     0.61183   0.60342   0.44935   0.00000  Uiso   1.00
O641   O     0.18453   0.28974   0.83334   0.00000  Uiso   1.00
O642   O     0.31547   0.21026   0.83333   0.00000  Uiso   1.00
O643   O     0.31547   0.28974   0.83333   0.00000  Uiso   1.00
O644   O     0.18453   0.21026   0.83334   0.00000  Uiso   1.00
C645   C     0.16371   0.25000   0.83427   0.00000  Uiso   1.00
C646   C     0.33594   0.25014   0.83345   0.00000  Uiso   1.00
O647   O     0.25000   0.28973   0.76178   0.00000  Uiso   1.00
O648   O     0.25000   0.21027   0.90489   0.00000  Uiso   1.00
O649   O     0.25000   0.28973   0.90489   0.00000  Uiso   1.00
O650   O     0.25000   0.21027   0.76178   0.00000  Uiso   1.00
C651   C     0.23351   0.05220   0.79188   0.00000  Uiso   1.00
C652   C     0.28536   0.44729   0.85645   0.00000  Uiso   1.00
C653   C     0.26647   0.05155   0.87468   0.00000  Uiso   1.00
C654   C     0.21535   0.44821   0.81019   0.00000  Uiso   1.00
C655   C     0.24998   0.25008   0.73959   0.00000  Uiso   1.00
C656   C     0.25026   0.24992   0.92709   0.00000  Uiso   1.00
Zn657  Zn    0.25000   0.30307   0.83333   0.00000  Uiso   1.00
Zn658  Zn    0.25000   0.19693   0.83333   0.00000  Uiso   1.00
N659   N     0.25000   0.12623   0.83333   0.00000  Uiso   1.00
N660   N     0.25000   0.37376   0.83333   0.00000  Uiso   1.00
C661   C     0.25031   0.02627   0.83318   0.00000  Uiso   1.00
C662   C     0.25042   0.47336   0.83328   0.00000  Uiso   1.00
C663   C     0.25017   0.25010   0.68847   0.00000  Uiso   1.00
C664   C     0.25027   0.24987   0.97822   0.00000  Uiso   1.00
C665   C     0.04706   0.29443   0.84347   0.00000  Uiso   1.00
C666   C     0.45554   0.22635   0.86596   0.00000  Uiso   1.00
C667   C     0.44995   0.28398   0.79887   0.00000  Uiso   1.00
C668   C     0.04398   0.21234   0.82153   0.00000  Uiso   1.00
H669   H     0.03011   0.32664   0.85244   0.00000  Uiso   1.00
H670   H     0.47572   0.20514   0.89211   0.00000  Uiso   1.00
H671   H     0.46585   0.30714   0.77304   0.00000  Uiso   1.00
H672   H     0.02327   0.18209   0.81402   0.00000  Uiso   1.00
C673   C     0.09301   0.29203   0.84826   0.00000  Uiso   1.00
C674   C     0.40974   0.22524   0.86761   0.00000  Uiso   1.00
C675   C     0.40380   0.28160   0.79849   0.00000  Uiso   1.00
C676   C     0.09050   0.20902   0.82381   0.00000  Uiso   1.00
C677   C     0.11515   0.25016   0.83563   0.00000  Uiso   1.00
C678   C     0.38374   0.25145   0.83256   0.00000  Uiso   1.00
C679   C     0.02300   0.25474   0.83028   0.00000  Uiso   1.00
C680   C     0.47536   0.25546   0.83170   0.00000  Uiso   1.00
C681   C     0.23283   0.10171   0.79243   0.00000  Uiso   1.00
C682   C     0.28463   0.39784   0.85664   0.00000  Uiso   1.00
C683   C     0.26646   0.10099   0.87436   0.00000  Uiso   1.00
C684   C     0.21559   0.39880   0.80982   0.00000  Uiso   1.00
H685   H     0.22052   0.03407   0.75892   0.00000  Uiso   1.00
H686   H     0.31345   0.46513   0.87446   0.00000  Uiso   1.00
H687   H     0.27942   0.03298   0.90768   0.00000  Uiso   1.00
H688   H     0.18753   0.46685   0.79208   0.00000  Uiso   1.00
N689   N     0.21334   0.12534   0.74935   0.00000  Uiso   1.00
O690   O     0.18099   0.15486   0.75427   0.00000  Uiso   1.00
O691   O     0.21984   0.10912   0.70502   0.00000  Uiso   1.00
N692   N     0.32097   0.37340   0.88143   0.00000  Uiso   1.00
O693   O     0.31488   0.35144   0.92316   0.00000  Uiso   1.00
O694   O     0.36141   0.38240   0.86931   0.00000  Uiso   1.00
N695   N     0.28511   0.12396   0.91755   0.00000  Uiso   1.00
O696   O     0.31906   0.15099   0.91287   0.00000  Uiso   1.00
O697   O     0.27702   0.10823   0.96183   0.00000  Uiso   1.00
N698   N     0.17925   0.37574   0.78382   0.00000  Uiso   1.00
O699   O     0.18689   0.34978   0.74549   0.00000  Uiso   1.00
O700   O     0.13900   0.39141   0.78841   0.00000  Uiso   1.00
O701   O     0.11594   0.33114   0.86511   0.00000  Uiso   1.00
C702   C     0.12207   0.32799   0.91759   0.00000  Uiso   1.00
H703   H     0.14185   0.29639   0.92921   0.00000  Uiso   1.00
H704   H     0.08960   0.32810   0.93582   0.00000  Uiso   1.00
H705   H     0.14099   0.35906   0.93110   0.00000  Uiso   1.00
O706   O     0.39069   0.19849   0.90367   0.00000  Uiso   1.00
C707   C     0.39007   0.22487   0.94802   0.00000  Uiso   1.00
H708   H     0.37015   0.25759   0.94227   0.00000  Uiso   1.00
H709   H     0.42440   0.23312   0.96273   0.00000  Uiso   1.00
H710   H     0.37404   0.20373   0.97692   0.00000  Uiso   1.00
O711   O     0.37834   0.31074   0.76704   0.00000  Uiso   1.00
C712   C     0.37326   0.28936   0.71984   0.00000  Uiso   1.00
H713   H     0.35733   0.25437   0.72247   0.00000  Uiso   1.00
H714   H     0.40578   0.28644   0.70205   0.00000  Uiso   1.00
H715   H     0.35109   0.31159   0.69523   0.00000  Uiso   1.00
O716   O     0.11316   0.16653   0.81912   0.00000  Uiso   1.00
C717   C     0.08868   0.13190   0.79241   0.00000  Uiso   1.00
H718   H     0.07325   0.14588   0.75670   0.00000  Uiso   1.00
H719   H     0.06356   0.11589   0.81622   0.00000  Uiso   1.00
H720   H     0.11183   0.10342   0.78269   0.00000  Uiso   1.00
O721   O     0.68453   0.28974   0.83334   0.00000  Uiso   1.00
O722   O     0.81547   0.21026   0.83333   0.00000  Uiso   1.00
O723   O     0.81547   0.28974   0.83333   0.00000  Uiso   1.00
O724   O     0.68453   0.21026   0.83334   0.00000  Uiso   1.00
C725   C     0.66371   0.25000   0.83427   0.00000  Uiso   1.00
C726   C     0.83594   0.25014   0.83345   0.00000  Uiso   1.00
O727   O     0.75000   0.28973   0.76178   0.00000  Uiso   1.00
O728   O     0.75000   0.21027   0.90489   0.00000  Uiso   1.00
O729   O     0.75000   0.28973   0.90489   0.00000  Uiso   1.00
O730   O     0.75000   0.21027   0.76178   0.00000  Uiso   1.00
C731   C     0.73351   0.05220   0.79188   0.00000  Uiso   1.00
C732   C     0.78536   0.44729   0.85645   0.00000  Uiso   1.00
C733   C     0.76647   0.05155   0.87468   0.00000  Uiso   1.00
C734   C     0.71535   0.44821   0.81019   0.00000  Uiso   1.00
C735   C     0.74998   0.25008   0.73959   0.00000  Uiso   1.00
C736   C     0.75026   0.24992   0.92709   0.00000  Uiso   1.00
Zn737  Zn    0.75000   0.30307   0.83333   0.00000  Uiso   1.00
Zn738  Zn    0.75000   0.19693   0.83333   0.00000  Uiso   1.00
N739   N     0.75000   0.12623   0.83333   0.00000  Uiso   1.00
N740   N     0.75000   0.37376   0.83333   0.00000  Uiso   1.00
C741   C     0.75031   0.02627   0.83318   0.00000  Uiso   1.00
C742   C     0.75042   0.47336   0.83328   0.00000  Uiso   1.00
C743   C     0.75017   0.25010   0.68847   0.00000  Uiso   1.00
C744   C     0.75027   0.24987   0.97822   0.00000  Uiso   1.00
C745   C     0.54706   0.29443   0.84347   0.00000  Uiso   1.00
C746   C     0.95554   0.22635   0.86596   0.00000  Uiso   1.00
C747   C     0.94995   0.28398   0.79887   0.00000  Uiso   1.00
C748   C     0.54398   0.21234   0.82153   0.00000  Uiso   1.00
H749   H     0.53011   0.32664   0.85244   0.00000  Uiso   1.00
H750   H     0.97572   0.20514   0.89211   0.00000  Uiso   1.00
H751   H     0.96585   0.30714   0.77304   0.00000  Uiso   1.00
H752   H     0.52327   0.18209   0.81402   0.00000  Uiso   1.00
C753   C     0.59301   0.29203   0.84826   0.00000  Uiso   1.00
C754   C     0.90974   0.22524   0.86761   0.00000  Uiso   1.00
C755   C     0.90380   0.28160   0.79849   0.00000  Uiso   1.00
C756   C     0.59050   0.20902   0.82381   0.00000  Uiso   1.00
C757   C     0.61515   0.25016   0.83563   0.00000  Uiso   1.00
C758   C     0.88374   0.25145   0.83256   0.00000  Uiso   1.00
C759   C     0.52300   0.25474   0.83028   0.00000  Uiso   1.00
C760   C     0.97536   0.25546   0.83170   0.00000  Uiso   1.00
C761   C     0.73283   0.10171   0.79243   0.00000  Uiso   1.00
C762   C     0.78463   0.39784   0.85664   0.00000  Uiso   1.00
C763   C     0.76646   0.10099   0.87436   0.00000  Uiso   1.00
C764   C     0.71559   0.39880   0.80982   0.00000  Uiso   1.00
H765   H     0.72052   0.03407   0.75892   0.00000  Uiso   1.00
H766   H     0.81345   0.46513   0.87446   0.00000  Uiso   1.00
H767   H     0.77942   0.03298   0.90768   0.00000  Uiso   1.00
H768   H     0.68753   0.46685   0.79208   0.00000  Uiso   1.00
N769   N     0.71334   0.12534   0.74935   0.00000  Uiso   1.00
O770   O     0.68099   0.15486   0.75427   0.00000  Uiso   1.00
O771   O     0.71984   0.10912   0.70502   0.00000  Uiso   1.00
N772   N     0.82097   0.37340   0.88143   0.00000  Uiso   1.00
O773   O     0.81488   0.35144   0.92316   0.00000  Uiso   1.00
O774   O     0.86141   0.38240   0.86931   0.00000  Uiso   1.00
N775   N     0.78511   0.12396   0.91755   0.00000  Uiso   1.00
O776   O     0.81906   0.15099   0.91287   0.00000  Uiso   1.00
O777   O     0.77702   0.10823   0.96183   0.00000  Uiso   1.00
N778   N     0.67925   0.37574   0.78382   0.00000  Uiso   1.00
O779   O     0.68689   0.34978   0.74549   0.00000  Uiso   1.00
O780   O     0.63900   0.39141   0.78841   0.00000  Uiso   1.00
O781   O     0.61594   0.33114   0.86511   0.00000  Uiso   1.00
C782   C     0.62207   0.32799   0.91759   0.00000  Uiso   1.00
H783   H     0.64185   0.29639   0.92921   0.00000  Uiso   1.00
H784   H     0.58960   0.32810   0.93582   0.00000  Uiso   1.00
H785   H     0.64099   0.35906   0.93110   0.00000  Uiso   1.00
O786   O     0.89069   0.19849   0.90367   0.00000  Uiso   1.00
C787   C     0.89007   0.22487   0.94802   0.00000  Uiso   1.00
H788   H     0.87015   0.25759   0.94227   0.00000  Uiso   1.00
H789   H     0.92440   0.23312   0.96273   0.00000  Uiso   1.00
H790   H     0.87404   0.20373   0.97692   0.00000  Uiso   1.00
O791   O     0.87834   0.31074   0.76704   0.00000  Uiso   1.00
C792   C     0.87326   0.28936   0.71984   0.00000  Uiso   1.00
H793   H     0.85733   0.25437   0.72247   0.00000  Uiso   1.00
H794   H     0.90578   0.28644   0.70205   0.00000  Uiso   1.00
H795   H     0.85109   0.31159   0.69523   0.00000  Uiso   1.00
O796   O     0.61316   0.16653   0.81912   0.00000  Uiso   1.00
C797   C     0.58868   0.13190   0.79241   0.00000  Uiso   1.00
H798   H     0.57325   0.14588   0.75670   0.00000  Uiso   1.00
H799   H     0.56356   0.11589   0.81622   0.00000  Uiso   1.00
H800   H     0.61183   0.10342   0.78269   0.00000  Uiso   1.00
O801   O     0.18453   0.78974   0.83334   0.00000  Uiso   1.00
O802   O     0.31547   0.71026   0.83333   0.00000  Uiso   1.00
O803   O     0.31547   0.78974   0.83333   0.00000  Uiso   1.00
O804   O     0.18453   0.71026   0.83334   0.00000  Uiso   1.00
C805   C     0.16371   0.75000   0.83427   0.00000  Uiso   1.00
C806   C     0.33594   0.75014   0.83345   0.00000  Uiso   1.00
O807   O     0.25000   0.78973   0.76178   0.00000  Uiso   1.00
O808   O     0.25000   0.71027   0.90489   0.00000  Uiso   1.00
O809   O     0.25000   0.78973   0.90489   0.00000  Uiso   1.00
O810   O     0.25000   0.71027   0.76178   0.00000  Uiso   1.00
C811   C     0.23351   0.55220   0.79188   0.00000  Uiso   1.00
C812   C     0.28536   0.94729   0.85645   0.00000  Uiso   1.00
C813   C     0.26647   0.55155   0.87468   0.00000  Uiso   1.00
C814   C     0.21535   0.94821   0.81019   0.00000  Uiso   1.00
C815   C     0.24998   0.75008   0.73959   0.00000  Uiso   1.00
C816   C     0.25026   0.74992   0.92709   0.00000  Uiso   1.00
Zn817  Zn    0.25000   0.80307   0.83333   0.00000  Uiso   1.00
Zn818  Zn    0.25000   0.69693   0.83333   0.00000  Uiso   1.00
N819   N     0.25000   0.62623   0.83333   0.00000  Uiso   1.00
N820   N     0.25000   0.87376   0.83333   0.00000  Uiso   1.00
C821   C     0.25031   0.52627   0.83318   0.00000  Uiso   1.00
C822   C     0.25042   0.97336   0.83328   0.00000  Uiso   1.00
C823   C     0.25017   0.75010   0.68847   0.00000  Uiso   1.00
C824   C     0.25027   0.74987   0.97822   0.00000  Uiso   1.00
C825   C     0.04706   0.79443   0.84347   0.00000  Uiso   1.00
C826   C     0.45554   0.72635   0.86596   0.00000  Uiso   1.00
C827   C     0.44995   0.78398   0.79887   0.00000  Uiso   1.00
C828   C     0.04398   0.71234   0.82153   0.00000  Uiso   1.00
H829   H     0.03011   0.82664   0.85244   0.00000  Uiso   1.00
H830   H     0.47572   0.70514   0.89211   0.00000  Uiso   1.00
H831   H     0.46585   0.80714   0.77304   0.00000  Uiso   1.00
H832   H     0.02327   0.68209   0.81402   0.00000  Uiso   1.00
C833   C     0.09301   0.79203   0.84826   0.00000  Uiso   1.00
C834   C     0.40974   0.72524   0.86761   0.00000  Uiso   1.00
C835   C     0.40380   0.78160   0.79849   0.00000  Uiso   1.00
C836   C     0.09050   0.70902   0.82381   0.00000  Uiso   1.00
C837   C     0.11515   0.75016   0.83563   0.00000  Uiso   1.00
C838   C     0.38374   0.75145   0.83256   0.00000  Uiso   1.00
C839   C     0.02300   0.75474   0.83028   0.00000  Uiso   1.00
C840   C     0.47536   0.75546   0.83170   0.00000  Uiso   1.00
C841   C     0.23283   0.60171   0.79243   0.00000  Uiso   1.00
C842   C     0.28463   0.89784   0.85664   0.00000  Uiso   1.00
C843   C     0.26646   0.60099   0.87436   0.00000  Uiso   1.00
C844   C     0.21559   0.89880   0.80982   0.00000  Uiso   1.00
H845   H     0.22052   0.53407   0.75892   0.00000  Uiso   1.00
H846   H     0.31345   0.96513   0.87446   0.00000  Uiso   1.00
H847   H     0.27942   0.53298   0.90768   0.00000  Uiso   1.00
H848   H     0.18753   0.96685   0.79208   0.00000  Uiso   1.00
N849   N     0.21334   0.62534   0.74935   0.00000  Uiso   1.00
O850   O     0.18099   0.65486   0.75427   0.00000  Uiso   1.00
O851   O     0.21984   0.60912   0.70502   0.00000  Uiso   1.00
N852   N     0.32097   0.87340   0.88143   0.00000  Uiso   1.00
O853   O     0.31488   0.85144   0.92316   0.00000  Uiso   1.00
O854   O     0.36141   0.88240   0.86931   0.00000  Uiso   1.00
N855   N     0.28511   0.62396   0.91755   0.00000  Uiso   1.00
O856   O     0.31906   0.65099   0.91287   0.00000  Uiso   1.00
O857   O     0.27702   0.60823   0.96183   0.00000  Uiso   1.00
N858   N     0.17925   0.87574   0.78382   0.00000  Uiso   1.00
O859   O     0.18689   0.84978   0.74549   0.00000  Uiso   1.00
O860   O     0.13900   0.89141   0.78841   0.00000  Uiso   1.00
O861   O     0.11594   0.83114   0.86511   0.00000  Uiso   1.00
C862   C     0.12207   0.82799   0.91759   0.00000  Uiso   1.00
H863   H     0.14185   0.79639   0.92921   0.00000  Uiso   1.00
H864   H     0.08960   0.82810   0.93582   0.00000  Uiso   1.00
H865   H     0.14099   0.85906   0.93110   0.00000  Uiso   1.00
O866   O     0.39069   0.69849   0.90367   0.00000  Uiso   1.00
C867   C     0.39007   0.72487   0.94802   0.00000  Uiso   1.00
H868   H     0.37015   0.75759   0.94227   0.00000  Uiso   1.00
H869   H     0.42440   0.73312   0.96273   0.00000  Uiso   1.00
H870   H     0.37404   0.70373   0.97692   0.00000  Uiso   1.00
O871   O     0.37834   0.81074   0.76704   0.00000  Uiso   1.00
C872   C     0.37326   0.78936   0.71984   0.00000  Uiso   1.00
H873   H     0.35733   0.75437   0.72247   0.00000  Uiso   1.00
H874   H     0.40578   0.78644   0.70205   0.00000  Uiso   1.00
H875   H     0.35109   0.81159   0.69523   0.00000  Uiso   1.00
O876   O     0.11316   0.66653   0.81912   0.00000  Uiso   1.00
C877   C     0.08868   0.63190   0.79241   0.00000  Uiso   1.00
H878   H     0.07325   0.64588   0.75670   0.00000  Uiso   1.00
H879   H     0.06356   0.61589   0.81622   0.00000  Uiso   1.00
H880   H     0.11183   0.60342   0.78269   0.00000  Uiso   1.00
O881   O     0.68453   0.78974   0.83334   0.00000  Uiso   1.00
O882   O     0.81547   0.71026   0.83333   0.00000  Uiso   1.00
O883   O     0.81547   0.78974   0.83333   0.00000  Uiso   1.00
O884   O     0.68453   0.71026   0.83334   0.00000  Uiso   1.00
C885   C     0.66371   0.75000   0.83427   0.00000  Uiso   1.00
C886   C     0.83594   0.75014   0.83345   0.00000  Uiso   1.00
O887   O     0.75000   0.78973   0.76178   0.00000  Uiso   1.00
O888   O     0.75000   0.71027   0.90489   0.00000  Uiso   1.00
O889   O     0.75000   0.78973   0.90489   0.00000  Uiso   1.00
O890   O     0.75000   0.71027   0.76178   0.00000  Uiso   1.00
C891   C     0.73351   0.55220   0.79188   0.00000  Uiso   1.00
C892   C     0.78536   0.94729   0.85645   0.00000  Uiso   1.00
C893   C     0.76647   0.55155   0.87468   0.00000  Uiso   1.00
C894   C     0.71535   0.94821   0.81019   0.00000  Uiso   1.00
C895   C     0.74998   0.75008   0.73959   0.00000  Uiso   1.00
C896   C     0.75026   0.74992   0.92709   0.00000  Uiso   1.00
Zn897  Zn    0.75000   0.80307   0.83333   0.00000  Uiso   1.00
Zn898  Zn    0.75000   0.69693   0.83333   0.00000  Uiso   1.00
N899   N     0.75000   0.62623   0.83333   0.00000  Uiso   1.00
N900   N     0.75000   0.87376   0.83333   0.00000  Uiso   1.00
C901   C     0.75031   0.52627   0.83318   0.00000  Uiso   1.00
C902   C     0.75042   0.97336   0.83328   0.00000  Uiso   1.00
C903   C     0.75017   0.75010   0.68847   0.00000  Uiso   1.00
C904   C     0.75027   0.74987   0.97822   0.00000  Uiso   1.00
C905   C     0.54706   0.79443   0.84347   0.00000  Uiso   1.00
C906   C     0.95554   0.72635   0.86596   0.00000  Uiso   1.00
C907   C     0.94995   0.78398   0.79887   0.00000  Uiso   1.00
C908   C     0.54398   0.71234   0.82153   0.00000  Uiso   1.00
H909   H     0.53011   0.82664   0.85244   0.00000  Uiso   1.00
H910   H     0.97572   0.70514   0.89211   0.00000  Uiso   1.00
H911   H     0.96585   0.80714   0.77304   0.00000  Uiso   1.00
H912   H     0.52327   0.68209   0.81402   0.00000  Uiso   1.00
C913   C     0.59301   0.79203   0.84826   0.00000  Uiso   1.00
C914   C     0.90974   0.72524   0.86761   0.00000  Uiso   1.00
C915   C     0.90380   0.78160   0.79849   0.00000  Uiso   1.00
C916   C     0.59050   0.70902   0.82381   0.00000  Uiso   1.00
C917   C     0.61515   0.75016   0.83563   0.00000  Uiso   1.00
C918   C     0.88374   0.75145   0.83256   0.00000  Uiso   1.00
C919   C     0.52300   0.75474   0.83028   0.00000  Uiso   1.00
C920   C     0.97536   0.75546   0.83170   0.00000  Uiso   1.00
C921   C     0.73283   0.60171   0.79243   0.00000  Uiso   1.00
C922   C     0.78463   0.89784   0.85664   0.00000  Uiso   1.00
C923   C     0.76646   0.60099   0.87436   0.00000  Uiso   1.00
C924   C     0.71559   0.89880   0.80982   0.00000  Uiso   1.00
H925   H     0.72052   0.53407   0.75892   0.00000  Uiso   1.00
H926   H     0.81345   0.96513   0.87446   0.00000  Uiso   1.00
H927   H     0.77942   0.53298   0.90768   0.00000  Uiso   1.00
H928   H     0.68753   0.96685   0.79208   0.00000  Uiso   1.00
N929   N     0.71334   0.62534   0.74935   0.00000  Uiso   1.00
O930   O     0.68099   0.65486   0.75427   0.00000  Uiso   1.00
O931   O     0.71984   0.60912   0.70502   0.00000  Uiso   1.00
N932   N     0.82097   0.87340   0.88143   0.00000  Uiso   1.00
O933   O     0.81488   0.85144   0.92316   0.00000  Uiso   1.00
O934   O     0.86141   0.88240   0.86931   0.00000  Uiso   1.00
N935   N     0.78511   0.62396   0.91755   0.00000  Uiso   1.00
O936   O     0.81906   0.65099   0.91287   0.00000  Uiso   1.00
O937   O     0.77702   0.60823   0.96183   0.00000  Uiso   1.00
N938   N     0.67925   0.87574   0.78382   0.00000  Uiso   1.00
O939   O     0.68689   0.84978   0.74549   0.00000  Uiso   1.00
O940   O     0.63900   0.89141   0.78841   0.00000  Uiso   1.00
O941   O     0.61594   0.83114   0.86511   0.00000  Uiso   1.00
C942   C     0.62207   0.82799   0.91759   0.00000  Uiso   1.00
H943   H     0.64185   0.79639   0.92921   0.00000  Uiso   1.00
H944   H     0.58960   0.82810   0.93582   0.00000  Uiso   1.00
H945   H     0.64099   0.85906   0.93110   0.00000  Uiso   1.00
O946   O     0.89069   0.69849   0.90367   0.00000  Uiso   1.00
C947   C     0.89007   0.72487   0.94802   0.00000  Uiso   1.00
H948   H     0.87015   0.75759   0.94227   0.00000  Uiso   1.00
H949   H     0.92440   0.73312   0.96273   0.00000  Uiso   1.00
H950   H     0.87404   0.70373   0.97692   0.00000  Uiso   1.00
O951   O     0.87834   0.81074   0.76704   0.00000  Uiso   1.00
C952   C     0.87326   0.78936   0.71984   0.00000  Uiso   1.00
H953   H     0.85733   0.75437   0.72247   0.00000  Uiso   1.00
H954   H     0.90578   0.78644   0.70205   0.00000  Uiso   1.00
H955   H     0.85109   0.81159   0.69523   0.00000  Uiso   1.00
O956   O     0.61316   0.66653   0.81912   0.00000  Uiso   1.00
C957   C     0.58868   0.63190   0.79241   0.00000  Uiso   1.00
H958   H     0.57325   0.64588   0.75670   0.00000  Uiso   1.00
H959   H     0.56356   0.61589   0.81622   0.00000  Uiso   1.00
H960   H     0.61183   0.60342   0.78269   0.00000  Uiso   1.00
loop_
_geom_bond_atom_site_label_1
_geom_bond_atom_site_label_2
_geom_bond_distance
_geom_bond_site_symmetry_2
_ccdc_geom_bond_type
O1     C5      1.300   .     A
O1     Zn17    2.008   .     S
O2     Zn18    2.008   .     S
O2     C6      1.298   .     A
O3     C6      1.286   .     A
O3     Zn17    2.005   .     S
O4     Zn18    2.005   .     S
O4     C5      1.295   .     A
C5     C37     1.463   .     S
C6     C38     1.440   .     S
O7     Zn17    1.955   .     S
O7     C15     1.282   .     A
O8     C16     1.282   .     A
O8     Zn18    1.955   .     S
O9     C16     1.280   .     A
O9     Zn17    1.951   .     S
O10    C15     1.280   .     A
O10    Zn18    1.951   .     S
C11    C21     1.400   .     A
C11    H45     1.083   .     S
C11    C41     1.415   .     A
C12    C22     1.403   .     A
C12    C42     1.413   .     A
C12    H46     1.083   .     S
C13    H47     1.083   .     S
C13    C21     1.396   .     A
C13    C43     1.413   .     A
C14    H48     1.083   .     S
C14    C44     1.412   .     A
C14    C22     1.399   .     A
C15    C23     1.369   .     S
C16    C24     1.369   .     S
Zn17   N20     2.020   .     S
Zn18   N19     2.020   .     S
N19    C43     1.381   .     A
N19    C41     1.383   .     A
N20    C44     1.380   .     A
N20    C42     1.377   .     A
C21    C182    1.512   1_545 S
C22    C181    1.512   .     S
C23    C664    1.167   1_554 S
C24    C343    1.167   .     S
C25    H29     1.084   .     S
C25    C39     1.386   .     A
C25    C33     1.384   .     A
C26    C34     1.381   .     A
C26    H30     1.085   .     S
C26    C40     1.392   .     A
C27    H31     1.084   .     S
C27    C35     1.390   .     A
C27    C40     1.393   .     A
C28    H32     1.082   .     S
C28    C39     1.390   .     A
C28    C36     1.401   .     A
C33    O61     1.382   .     S
C33    C37     1.418   .     A
C34    O66     1.377   .     S
C34    C38     1.403   .     A
C35    O71     1.383   .     S
C35    C38     1.410   .     A
C36    C37     1.421   .     A
C36    O76     1.399   .     S
C39    C120    1.436   1_455 S
C40    C119    1.436   .     S
C41    N49     1.432   .     S
C42    N52     1.428   .     S
C43    N55     1.425   .     S
C44    N58     1.432   .     S
N49    O51     1.300   .     A
N49    O50     1.297   .     A
N52    O54     1.301   .     A
N52    O53     1.299   .     A
N55    O56     1.294   .     A
N55    O57     1.300   .     A
N58    O60     1.301   .     A
N58    O59     1.298   .     A
O61    C62     1.410   .     S
C62    H64     1.113   .     S
C62    H63     1.114   .     S
C62    H65     1.109   .     S
O66    C67     1.410   .     S
C67    H68     1.114   .     S
C67    H69     1.114   .     S
C67    H70     1.109   .     S
O71    C72     1.408   .     S
C72    H75     1.109   .     S
C72    H74     1.112   .     S
C72    H73     1.114   .     S
O76    C77     1.412   .     S
C77    H78     1.113   .     S
C77    H79     1.111   .     S
C77    H80     1.109   .     S
O81    C85     1.300   .     A
O81    Zn97    2.008   .     S
O82    Zn98    2.008   .     S
O82    C86     1.298   .     A
O83    C86     1.286   .     A
O83    Zn97    2.005   .     S
O84    Zn98    2.005   .     S
O84    C85     1.295   .     A
C85    C117    1.463   .     S
C86    C118    1.440   .     S
O87    Zn97    1.955   .     S
O87    C95     1.282   .     A
O88    C96     1.282   .     A
O88    Zn98    1.955   .     S
O89    C96     1.280   .     A
O89    Zn97    1.951   .     S
O90    C95     1.280   .     A
O90    Zn98    1.951   .     S
C91    C101    1.400   .     A
C91    H125    1.083   .     S
C91    C121    1.415   .     A
C92    C102    1.403   .     A
C92    C122    1.413   .     A
C92    H126    1.083   .     S
C93    H127    1.083   .     S
C93    C101    1.396   .     A
C93    C123    1.413   .     A
C94    H128    1.083   .     S
C94    C124    1.412   .     A
C94    C102    1.399   .     A
C95    C103    1.369   .     S
C96    C104    1.369   .     S
Zn97   N100    2.020   .     S
Zn98   N99     2.020   .     S
N99    C123    1.381   .     A
N99    C121    1.383   .     A
N100   C124    1.380   .     A
N100   C122    1.377   .     A
C101   C262    1.512   1_545 S
C102   C261    1.512   .     S
C103   C744    1.167   1_554 S
C104   C423    1.167   .     S
C105   H109    1.084   .     S
C105   C119    1.386   .     A
C105   C113    1.384   .     A
C106   C114    1.381   .     A
C106   H110    1.085   .     S
C106   C120    1.392   .     A
C107   H111    1.084   .     S
C107   C115    1.390   .     A
C107   C120    1.393   .     A
C108   H112    1.082   .     S
C108   C119    1.390   .     A
C108   C116    1.401   .     A
C113   O141    1.382   .     S
C113   C117    1.418   .     A
C114   O146    1.377   .     S
C114   C118    1.403   .     A
C115   O151    1.383   .     S
C115   C118    1.410   .     A
C116   C117    1.421   .     A
C116   O156    1.399   .     S
C120   C39     1.436   1_655 S
C121   N129    1.432   .     S
C122   N132    1.428   .     S
C123   N135    1.425   .     S
C124   N138    1.432   .     S
N129   O131    1.300   .     A
N129   O130    1.297   .     A
N132   O134    1.301   .     A
N132   O133    1.299   .     A
N135   O136    1.294   .     A
N135   O137    1.300   .     A
N138   O140    1.301   .     A
N138   O139    1.298   .     A
O141   C142    1.410   .     S
C142   H144    1.113   .     S
C142   H143    1.114   .     S
C142   H145    1.109   .     S
O146   C147    1.410   .     S
C147   H148    1.114   .     S
C147   H149    1.114   .     S
C147   H150    1.109   .     S
O151   C152    1.408   .     S
C152   H155    1.109   .     S
C152   H154    1.112   .     S
C152   H153    1.114   .     S
O156   C157    1.412   .     S
C157   H158    1.113   .     S
C157   H159    1.111   .     S
C157   H160    1.109   .     S
O161   C165    1.300   .     A
O161   Zn177   2.008   .     S
O162   Zn178   2.008   .     S
O162   C166    1.298   .     A
O163   C166    1.286   .     A
O163   Zn177   2.005   .     S
O164   Zn178   2.005   .     S
O164   C165    1.295   .     A
C165   C197    1.463   .     S
C166   C198    1.440   .     S
O167   Zn177   1.955   .     S
O167   C175    1.282   .     A
O168   C176    1.282   .     A
O168   Zn178   1.955   .     S
O169   C176    1.280   .     A
O169   Zn177   1.951   .     S
O170   C175    1.280   .     A
O170   Zn178   1.951   .     S
C171   C181    1.400   .     A
C171   H205    1.083   .     S
C171   C201    1.415   .     A
C172   C182    1.403   .     A
C172   C202    1.413   .     A
C172   H206    1.083   .     S
C173   H207    1.083   .     S
C173   C181    1.396   .     A
C173   C203    1.413   .     A
C174   H208    1.083   .     S
C174   C204    1.412   .     A
C174   C182    1.399   .     A
C175   C183    1.369   .     S
C176   C184    1.369   .     S
Zn177  N180    2.020   .     S
Zn178  N179    2.020   .     S
N179   C203    1.381   .     A
N179   C201    1.383   .     A
N180   C204    1.380   .     A
N180   C202    1.377   .     A
C182   C21     1.512   1_565 S
C183   C824    1.167   1_554 S
C184   C503    1.167   .     S
C185   H189    1.084   .     S
C185   C199    1.386   .     A
C185   C193    1.384   .     A
C186   C194    1.381   .     A
C186   H190    1.085   .     S
C186   C200    1.392   .     A
C187   H191    1.084   .     S
C187   C195    1.390   .     A
C187   C200    1.393   .     A
C188   H192    1.082   .     S
C188   C199    1.390   .     A
C188   C196    1.401   .     A
C193   O221    1.382   .     S
C193   C197    1.418   .     A
C194   O226    1.377   .     S
C194   C198    1.403   .     A
C195   O231    1.383   .     S
C195   C198    1.410   .     A
C196   C197    1.421   .     A
C196   O236    1.399   .     S
C199   C280    1.436   1_455 S
C200   C279    1.436   .     S
C201   N209    1.432   .     S
C202   N212    1.428   .     S
C203   N215    1.425   .     S
C204   N218    1.432   .     S
N209   O211    1.300   .     A
N209   O210    1.297   .     A
N212   O214    1.301   .     A
N212   O213    1.299   .     A
N215   O216    1.294   .     A
N215   O217    1.300   .     A
N218   O220    1.301   .     A
N218   O219    1.298   .     A
O221   C222    1.410   .     S
C222   H224    1.113   .     S
C222   H223    1.114   .     S
C222   H225    1.109   .     S
O226   C227    1.410   .     S
C227   H228    1.114   .     S
C227   H229    1.114   .     S
C227   H230    1.109   .     S
O231   C232    1.408   .     S
C232   H235    1.109   .     S
C232   H234    1.112   .     S
C232   H233    1.114   .     S
O236   C237    1.412   .     S
C237   H238    1.113   .     S
C237   H239    1.111   .     S
C237   H240    1.109   .     S
O241   C245    1.300   .     A
O241   Zn257   2.008   .     S
O242   Zn258   2.008   .     S
O242   C246    1.298   .     A
O243   C246    1.286   .     A
O243   Zn257   2.005   .     S
O244   Zn258   2.005   .     S
O244   C245    1.295   .     A
C245   C277    1.463   .     S
C246   C278    1.440   .     S
O247   Zn257   1.955   .     S
O247   C255    1.282   .     A
O248   C256    1.282   .     A
O248   Zn258   1.955   .     S
O249   C256    1.280   .     A
O249   Zn257   1.951   .     S
O250   C255    1.280   .     A
O250   Zn258   1.951   .     S
C251   C261    1.400   .     A
C251   H285    1.083   .     S
C251   C281    1.415   .     A
C252   C262    1.403   .     A
C252   C282    1.413   .     A
C252   H286    1.083   .     S
C253   H287    1.083   .     S
C253   C261    1.396   .     A
C253   C283    1.413   .     A
C254   H288    1.083   .     S
C254   C284    1.412   .     A
C254   C262    1.399   .     A
C255   C263    1.369   .     S
C256   C264    1.369   .     S
Zn257  N260    2.020   .     S
Zn258  N259    2.020   .     S
N259   C283    1.381   .     A
N259   C281    1.383   .     A
N260   C284    1.380   .     A
N260   C282    1.377   .     A
C262   C101    1.512   1_565 S
C263   C904    1.167   1_554 S
C264   C583    1.167   .     S
C265   H269    1.084   .     S
C265   C279    1.386   .     A
C265   C273    1.384   .     A
C266   C274    1.381   .     A
C266   H270    1.085   .     S
C266   C280    1.392   .     A
C267   H271    1.084   .     S
C267   C275    1.390   .     A
C267   C280    1.393   .     A
C268   H272    1.082   .     S
C268   C279    1.390   .     A
C268   C276    1.401   .     A
C273   O301    1.382   .     S
C273   C277    1.418   .     A
C274   O306    1.377   .     S
C274   C278    1.403   .     A
C275   O311    1.383   .     S
C275   C278    1.410   .     A
C276   C277    1.421   .     A
C276   O316    1.399   .     S
C280   C199    1.436   1_655 S
C281   N289    1.432   .     S
C282   N292    1.428   .     S
C283   N295    1.425   .     S
C284   N298    1.432   .     S
N289   O291    1.300   .     A
N289   O290    1.297   .     A
N292   O294    1.301   .     A
N292   O293    1.299   .     A
N295   O296    1.294   .     A
N295   O297    1.300   .     A
N298   O300    1.301   .     A
N298   O299    1.298   .     A
O301   C302    1.410   .     S
C302   H304    1.113   .     S
C302   H303    1.114   .     S
C302   H305    1.109   .     S
O306   C307    1.410   .     S
C307   H308    1.114   .     S
C307   H309    1.114   .     S
C307   H310    1.109   .     S
O311   C312    1.408   .     S
C312   H315    1.109   .     S
C312   H314    1.112   .     S
C312   H313    1.114   .     S
O316   C317    1.412   .     S
C317   H318    1.113   .     S
C317   H319    1.111   .     S
C317   H320    1.109   .     S
O321   C325    1.300   .     A
O321   Zn337   2.008   .     S
O322   Zn338   2.008   .     S
O322   C326    1.298   .     A
O323   C326    1.286   .     A
O323   Zn337   2.005   .     S
O324   Zn338   2.005   .     S
O324   C325    1.295   .     A
C325   C357    1.463   .     S
C326   C358    1.440   .     S
O327   Zn337   1.955   .     S
O327   C335    1.282   .     A
O328   C336    1.282   .     A
O328   Zn338   1.955   .     S
O329   C336    1.280   .     A
O329   Zn337   1.951   .     S
O330   C335    1.280   .     A
O330   Zn338   1.951   .     S
C331   C341    1.400   .     A
C331   H365    1.083   .     S
C331   C361    1.415   .     A
C332   C342    1.403   .     A
C332   C362    1.413   .     A
C332   H366    1.083   .     S
C333   H367    1.083   .     S
C333   C341    1.396   .     A
C333   C363    1.413   .     A
C334   H368    1.083   .     S
C334   C364    1.412   .     A
C334   C342    1.399   .     A
C335   C343    1.369   .     S
C336   C344    1.369   .     S
Zn337  N340    2.020   .     S
Zn338  N339    2.020   .     S
N339   C363    1.381   .     A
N339   C361    1.383   .     A
N340   C364    1.380   .     A
N340   C362    1.377   .     A
C341   C502    1.512   1_545 S
C342   C501    1.512   .     S
C344   C663    1.167   .     S
C345   H349    1.084   .     S
C345   C359    1.386   .     A
C345   C353    1.384   .     A
C346   C354    1.381   .     A
C346   H350    1.085   .     S
C346   C360    1.392   .     A
C347   H351    1.084   .     S
C347   C355    1.390   .     A
C347   C360    1.393   .     A
C348   H352    1.082   .     S
C348   C359    1.390   .     A
C348   C356    1.401   .     A
C353   O381    1.382   .     S
C353   C357    1.418   .     A
C354   O386    1.377   .     S
C354   C358    1.403   .     A
C355   O391    1.383   .     S
C355   C358    1.410   .     A
C356   C357    1.421   .     A
C356   O396    1.399   .     S
C359   C440    1.436   1_455 S
C360   C439    1.436   .     S
C361   N369    1.432   .     S
C362   N372    1.428   .     S
C363   N375    1.425   .     S
C364   N378    1.432   .     S
N369   O371    1.300   .     A
N369   O370    1.297   .     A
N372   O374    1.301   .     A
N372   O373    1.299   .     A
N375   O376    1.294   .     A
N375   O377    1.300   .     A
N378   O380    1.301   .     A
N378   O379    1.298   .     A
O381   C382    1.410   .     S
C382   H384    1.113   .     S
C382   H383    1.114   .     S
C382   H385    1.109   .     S
O386   C387    1.410   .     S
C387   H388    1.114   .     S
C387   H389    1.114   .     S
C387   H390    1.109   .     S
O391   C392    1.408   .     S
C392   H395    1.109   .     S
C392   H394    1.112   .     S
C392   H393    1.114   .     S
O396   C397    1.412   .     S
C397   H398    1.113   .     S
C397   H399    1.111   .     S
C397   H400    1.109   .     S
O401   C405    1.300   .     A
O401   Zn417   2.008   .     S
O402   Zn418   2.008   .     S
O402   C406    1.298   .     A
O403   C406    1.286   .     A
O403   Zn417   2.005   .     S
O404   Zn418   2.005   .     S
O404   C405    1.295   .     A
C405   C437    1.463   .     S
C406   C438    1.440   .     S
O407   Zn417   1.955   .     S
O407   C415    1.282   .     A
O408   C416    1.282   .     A
O408   Zn418   1.955   .     S
O409   C416    1.280   .     A
O409   Zn417   1.951   .     S
O410   C415    1.280   .     A
O410   Zn418   1.951   .     S
C411   C421    1.400   .     A
C411   H445    1.083   .     S
C411   C441    1.415   .     A
C412   C422    1.403   .     A
C412   C442    1.413   .     A
C412   H446    1.083   .     S
C413   H447    1.083   .     S
C413   C421    1.396   .     A
C413   C443    1.413   .     A
C414   H448    1.083   .     S
C414   C444    1.412   .     A
C414   C422    1.399   .     A
C415   C423    1.369   .     S
C416   C424    1.369   .     S
Zn417  N420    2.020   .     S
Zn418  N419    2.020   .     S
N419   C443    1.381   .     A
N419   C441    1.383   .     A
N420   C444    1.380   .     A
N420   C442    1.377   .     A
C421   C582    1.512   1_545 S
C422   C581    1.512   .     S
C424   C743    1.167   .     S
C425   H429    1.084   .     S
C425   C439    1.386   .     A
C425   C433    1.384   .     A
C426   C434    1.381   .     A
C426   H430    1.085   .     S
C426   C440    1.392   .     A
C427   H431    1.084   .     S
C427   C435    1.390   .     A
C427   C440    1.393   .     A
C428   H432    1.082   .     S
C428   C439    1.390   .     A
C428   C436    1.401   .     A
C433   O461    1.382   .     S
C433   C437    1.418   .     A
C434   O466    1.377   .     S
C434   C438    1.403   .     A
C435   O471    1.383   .     S
C435   C438    1.410   .     A
C436   C437    1.421   .     A
C436   O476    1.399   .     S
C440   C359    1.436   1_655 S
C441   N449    1.432   .     S
C442   N452    1.428   .     S
C443   N455    1.425   .     S
C444   N458    1.432   .     S
N449   O451    1.300   .     A
N449   O450    1.297   .     A
N452   O454    1.301   .     A
N452   O453    1.299   .     A
N455   O456    1.294   .     A
N455   O457    1.300   .     A
N458   O460    1.301   .     A
N458   O459    1.298   .     A
O461   C462    1.410   .     S
C462   H464    1.113   .     S
C462   H463    1.114   .     S
C462   H465    1.109   .     S
O466   C467    1.410   .     S
C467   H468    1.114   .     S
C467   H469    1.114   .     S
C467   H470    1.109   .     S
O471   C472    1.408   .     S
C472   H475    1.109   .     S
C472   H474    1.112   .     S
C472   H473    1.114   .     S
O476   C477    1.412   .     S
C477   H478    1.113   .     S
C477   H479    1.111   .     S
C477   H480    1.109   .     S
O481   C485    1.300   .     A
O481   Zn497   2.008   .     S
O482   Zn498   2.008   .     S
O482   C486    1.298   .     A
O483   C486    1.286   .     A
O483   Zn497   2.005   .     S
O484   Zn498   2.005   .     S
O484   C485    1.295   .     A
C485   C517    1.463   .     S
C486   C518    1.440   .     S
O487   Zn497   1.955   .     S
O487   C495    1.282   .     A
O488   C496    1.282   .     A
O488   Zn498   1.955   .     S
O489   C496    1.280   .     A
O489   Zn497   1.951   .     S
O490   C495    1.280   .     A
O490   Zn498   1.951   .     S
C491   C501    1.400   .     A
C491   H525    1.083   .     S
C491   C521    1.415   .     A
C492   C502    1.403   .     A
C492   C522    1.413   .     A
C492   H526    1.083   .     S
C493   H527    1.083   .     S
C493   C501    1.396   .     A
C493   C523    1.413   .     A
C494   H528    1.083   .     S
C494   C524    1.412   .     A
C494   C502    1.399   .     A
C495   C503    1.369   .     S
C496   C504    1.369   .     S
Zn497  N500    2.020   .     S
Zn498  N499    2.020   .     S
N499   C523    1.381   .     A
N499   C521    1.383   .     A
N500   C524    1.380   .     A
N500   C522    1.377   .     A
C502   C341    1.512   1_565 S
C504   C823    1.167   .     S
C505   H509    1.084   .     S
C505   C519    1.386   .     A
C505   C513    1.384   .     A
C506   C514    1.381   .     A
C506   H510    1.085   .     S
C506   C520    1.392   .     A
C507   H511    1.084   .     S
C507   C515    1.390   .     A
C507   C520    1.393   .     A
C508   H512    1.082   .     S
C508   C519    1.390   .     A
C508   C516    1.401   .     A
C513   O541    1.382   .     S
C513   C517    1.418   .     A
C514   O546    1.377   .     S
C514   C518    1.403   .     A
C515   O551    1.383   .     S
C515   C518    1.410   .     A
C516   C517    1.421   .     A
C516   O556    1.399   .     S
C519   C600    1.436   1_455 S
C520   C599    1.436   .     S
C521   N529    1.432   .     S
C522   N532    1.428   .     S
C523   N535    1.425   .     S
C524   N538    1.432   .     S
N529   O531    1.300   .     A
N529   O530    1.297   .     A
N532   O534    1.301   .     A
N532   O533    1.299   .     A
N535   O536    1.294   .     A
N535   O537    1.300   .     A
N538   O540    1.301   .     A
N538   O539    1.298   .     A
O541   C542    1.410   .     S
C542   H544    1.113   .     S
C542   H543    1.114   .     S
C542   H545    1.109   .     S
O546   C547    1.410   .     S
C547   H548    1.114   .     S
C547   H549    1.114   .     S
C547   H550    1.109   .     S
O551   C552    1.408   .     S
C552   H555    1.109   .     S
C552   H554    1.112   .     S
C552   H553    1.114   .     S
O556   C557    1.412   .     S
C557   H558    1.113   .     S
C557   H559    1.111   .     S
C557   H560    1.109   .     S
O561   C565    1.300   .     A
O561   Zn577   2.008   .     S
O562   Zn578   2.008   .     S
O562   C566    1.298   .     A
O563   C566    1.286   .     A
O563   Zn577   2.005   .     S
O564   Zn578   2.005   .     S
O564   C565    1.295   .     A
C565   C597    1.463   .     S
C566   C598    1.440   .     S
O567   Zn577   1.955   .     S
O567   C575    1.282   .     A
O568   C576    1.282   .     A
O568   Zn578   1.955   .     S
O569   C576    1.280   .     A
O569   Zn577   1.951   .     S
O570   C575    1.280   .     A
O570   Zn578   1.951   .     S
C571   C581    1.400   .     A
C571   H605    1.083   .     S
C571   C601    1.415   .     A
C572   C582    1.403   .     A
C572   C602    1.413   .     A
C572   H606    1.083   .     S
C573   H607    1.083   .     S
C573   C581    1.396   .     A
C573   C603    1.413   .     A
C574   H608    1.083   .     S
C574   C604    1.412   .     A
C574   C582    1.399   .     A
C575   C583    1.369   .     S
C576   C584    1.369   .     S
Zn577  N580    2.020   .     S
Zn578  N579    2.020   .     S
N579   C603    1.381   .     A
N579   C601    1.383   .     A
N580   C604    1.380   .     A
N580   C602    1.377   .     A
C582   C421    1.512   1_565 S
C584   C903    1.167   .     S
C585   H589    1.084   .     S
C585   C599    1.386   .     A
C585   C593    1.384   .     A
C586   C594    1.381   .     A
C586   H590    1.085   .     S
C586   C600    1.392   .     A
C587   H591    1.084   .     S
C587   C595    1.390   .     A
C587   C600    1.393   .     A
C588   H592    1.082   .     S
C588   C599    1.390   .     A
C588   C596    1.401   .     A
C593   O621    1.382   .     S
C593   C597    1.418   .     A
C594   O626    1.377   .     S
C594   C598    1.403   .     A
C595   O631    1.383   .     S
C595   C598    1.410   .     A
C596   C597    1.421   .     A
C596   O636    1.399   .     S
C600   C519    1.436   1_655 S
C601   N609    1.432   .     S
C602   N612    1.428   .     S
C603   N615    1.425   .     S
C604   N618    1.432   .     S
N609   O611    1.300   .     A
N609   O610    1.297   .     A
N612   O614    1.301   .     A
N612   O613    1.299   .     A
N615   O616    1.294   .     A
N615   O617    1.300   .     A
N618   O620    1.301   .     A
N618   O619    1.298   .     A
O621   C622    1.410   .     S
C622   H624    1.113   .     S
C622   H623    1.114   .     S
C622   H625    1.109   .     S
O626   C627    1.410   .     S
C627   H628    1.114   .     S
C627   H629    1.114   .     S
C627   H630    1.109   .     S
O631   C632    1.408   .     S
C632   H635    1.109   .     S
C632   H634    1.112   .     S
C632   H633    1.114   .     S
O636   C637    1.412   .     S
C637   H638    1.113   .     S
C637   H639    1.111   .     S
C637   H640    1.109   .     S
O641   C645    1.300   .     A
O641   Zn657   2.008   .     S
O642   Zn658   2.008   .     S
O642   C646    1.298   .     A
O643   C646    1.286   .     A
O643   Zn657   2.005   .     S
O644   Zn658   2.005   .     S
O644   C645    1.295   .     A
C645   C677    1.463   .     S
C646   C678    1.440   .     S
O647   Zn657   1.955   .     S
O647   C655    1.282   .     A
O648   C656    1.282   .     A
O648   Zn658   1.955   .     S
O649   C656    1.280   .     A
O649   Zn657   1.951   .     S
O650   C655    1.280   .     A
O650   Zn658   1.951   .     S
C651   C661    1.400   .     A
C651   H685    1.083   .     S
C651   C681    1.415   .     A
C652   C662    1.403   .     A
C652   C682    1.413   .     A
C652   H686    1.083   .     S
C653   H687    1.083   .     S
C653   C661    1.396   .     A
C653   C683    1.413   .     A
C654   H688    1.083   .     S
C654   C684    1.412   .     A
C654   C662    1.399   .     A
C655   C663    1.369   .     S
C656   C664    1.369   .     S
Zn657  N660    2.020   .     S
Zn658  N659    2.020   .     S
N659   C683    1.381   .     A
N659   C681    1.383   .     A
N660   C684    1.380   .     A
N660   C682    1.377   .     A
C661   C822    1.512   1_545 S
C662   C821    1.512   .     S
C664   C23     1.167   1_556 S
C665   H669    1.084   .     S
C665   C679    1.386   .     A
C665   C673    1.384   .     A
C666   C674    1.381   .     A
C666   H670    1.085   .     S
C666   C680    1.392   .     A
C667   H671    1.084   .     S
C667   C675    1.390   .     A
C667   C680    1.393   .     A
C668   H672    1.082   .     S
C668   C679    1.390   .     A
C668   C676    1.401   .     A
C673   O701    1.382   .     S
C673   C677    1.418   .     A
C674   O706    1.377   .     S
C674   C678    1.403   .     A
C675   O711    1.383   .     S
C675   C678    1.410   .     A
C676   C677    1.421   .     A
C676   O716    1.399   .     S
C679   C760    1.436   1_455 S
C680   C759    1.436   .     S
C681   N689    1.432   .     S
C682   N692    1.428   .     S
C683   N695    1.425   .     S
C684   N698    1.432   .     S
N689   O691    1.300   .     A
N689   O690    1.297   .     A
N692   O694    1.301   .     A
N692   O693    1.299   .     A
N695   O696    1.294   .     A
N695   O697    1.300   .     A
N698   O700    1.301   .     A
N698   O699    1.298   .     A
O701   C702    1.410   .     S
C702   H704    1.113   .     S
C702   H703    1.114   .     S
C702   H705    1.109   .     S
O706   C707    1.410   .     S
C707   H708    1.114   .     S
C707   H709    1.114   .     S
C707   H710    1.109   .     S
O711   C712    1.408   .     S
C712   H715    1.109   .     S
C712   H714    1.112   .     S
C712   H713    1.114   .     S
O716   C717    1.412   .     S
C717   H718    1.113   .     S
C717   H719    1.111   .     S
C717   H720    1.109   .     S
O721   C725    1.300   .     A
O721   Zn737   2.008   .     S
O722   Zn738   2.008   .     S
O722   C726    1.298   .     A
O723   C726    1.286   .     A
O723   Zn737   2.005   .     S
O724   Zn738   2.005   .     S
O724   C725    1.295   .     A
C725   C757    1.463   .     S
C726   C758    1.440   .     S
O727   Zn737   1.955   .     S
O727   C735    1.282   .     A
O728   C736    1.282   .     A
O728   Zn738   1.955   .     S
O729   C736    1.280   .     A
O729   Zn737   1.951   .     S
O730   C735    1.280   .     A
O730   Zn738   1.951   .     S
C731   C741    1.400   .     A
C731   H765    1.083   .     S
C731   C761    1.415   .     A
C732   C742    1.403   .     A
C732   C762    1.413   .     A
C732   H766    1.083   .     S
C733   H767    1.083   .     S
C733   C741    1.396   .     A
C733   C763    1.413   .     A
C734   H768    1.083   .     S
C734   C764    1.412   .     A
C734   C742    1.399   .     A
C735   C743    1.369   .     S
C736   C744    1.369   .     S
Zn737  N740    2.020   .     S
Zn738  N739    2.020   .     S
N739   C763    1.381   .     A
N739   C761    1.383   .     A
N740   C764    1.380   .     A
N740   C762    1.377   .     A
C741   C902    1.512   1_545 S
C742   C901    1.512   .     S
C744   C103    1.167   1_556 S
C745   H749    1.084   .     S
C745   C759    1.386   .     A
C745   C753    1.384   .     A
C746   C754    1.381   .     A
C746   H750    1.085   .     S
C746   C760    1.392   .     A
C747   H751    1.084   .     S
C747   C755    1.390   .     A
C747   C760    1.393   .     A
C748   H752    1.082   .     S
C748   C759    1.390   .     A
C748   C756    1.401   .     A
C753   O781    1.382   .     S
C753   C757    1.418   .     A
C754   O786    1.377   .     S
C754   C758    1.403   .     A
C755   O791    1.383   .     S
C755   C758    1.410   .     A
C756   C757    1.421   .     A
C756   O796    1.399   .     S
C760   C679    1.436   1_655 S
C761   N769    1.432   .     S
C762   N772    1.428   .     S
C763   N775    1.425   .     S
C764   N778    1.432   .     S
N769   O771    1.300   .     A
N769   O770    1.297   .     A
N772   O774    1.301   .     A
N772   O773    1.299   .     A
N775   O776    1.294   .     A
N775   O777    1.300   .     A
N778   O780    1.301   .     A
N778   O779    1.298   .     A
O781   C782    1.410   .     S
C782   H784    1.113   .     S
C782   H783    1.114   .     S
C782   H785    1.109   .     S
O786   C787    1.410   .     S
C787   H788    1.114   .     S
C787   H789    1.114   .     S
C787   H790    1.109   .     S
O791   C792    1.408   .     S
C792   H795    1.109   .     S
C792   H794    1.112   .     S
C792   H793    1.114   .     S
O796   C797    1.412   .     S
C797   H798    1.113   .     S
C797   H799    1.111   .     S
C797   H800    1.109   .     S
O801   C805    1.300   .     A
O801   Zn817   2.008   .     S
O802   Zn818   2.008   .     S
O802   C806    1.298   .     A
O803   C806    1.286   .     A
O803   Zn817   2.005   .     S
O804   Zn818   2.005   .     S
O804   C805    1.295   .     A
C805   C837    1.463   .     S
C806   C838    1.440   .     S
O807   Zn817   1.955   .     S
O807   C815    1.282   .     A
O808   C816    1.282   .     A
O808   Zn818   1.955   .     S
O809   C816    1.280   .     A
O809   Zn817   1.951   .     S
O810   C815    1.280   .     A
O810   Zn818   1.951   .     S
C811   C821    1.400   .     A
C811   H845    1.083   .     S
C811   C841    1.415   .     A
C812   C822    1.403   .     A
C812   C842    1.413   .     A
C812   H846    1.083   .     S
C813   H847    1.083   .     S
C813   C821    1.396   .     A
C813   C843    1.413   .     A
C814   H848    1.083   .     S
C814   C844    1.412   .     A
C814   C822    1.399   .     A
C815   C823    1.369   .     S
C816   C824    1.369   .     S
Zn817  N820    2.020   .     S
Zn818  N819    2.020   .     S
N819   C843    1.381   .     A
N819   C841    1.383   .     A
N820   C844    1.380   .     A
N820   C842    1.377   .     A
C822   C661    1.512   1_565 S
C824   C183    1.167   1_556 S
C825   H829    1.084   .     S
C825   C839    1.386   .     A
C825   C833    1.384   .     A
C826   C834    1.381   .     A
C826   H830    1.085   .     S
C826   C840    1.392   .     A
C827   H831    1.084   .     S
C827   C835    1.390   .     A
C827   C840    1.393   .     A
C828   H832    1.082   .     S
C828   C839    1.390   .     A
C828   C836    1.401   .     A
C833   O861    1.382   .     S
C833   C837    1.418   .     A
C834   O866    1.377   .     S
C834   C838    1.403   .     A
C835   O871    1.383   .     S
C835   C838    1.410   .     A
C836   C837    1.421   .     A
C836   O876    1.399   .     S
C839   C920    1.436   1_455 S
C840   C919    1.436   .     S
C841   N849    1.432   .     S
C842   N852    1.428   .     S
C843   N855    1.425   .     S
C844   N858    1.432   .     S
N849   O851    1.300   .     A
N849   O850    1.297   .     A
N852   O854    1.301   .     A
N852   O853    1.299   .     A
N855   O856    1.294   .     A
N855   O857    1.300   .     A
N858   O860    1.301   .     A
N858   O859    1.298   .     A
O861   C862    1.410   .     S
C862   H864    1.113   .     S
C862   H863    1.114   .     S
C862   H865    1.109   .     S
O866   C867    1.410   .     S
C867   H868    1.114   .     S
C867   H869    1.114   .     S
C867   H870    1.109   .     S
O871   C872    1.408   .     S
C872   H875    1.109   .     S
C872   H874    1.112   .     S
C872   H873    1.114   .     S
O876   C877    1.412   .     S
C877   H878    1.113   .     S
C877   H879    1.111   .     S
C877   H880    1.109   .     S
O881   C885    1.300   .     A
O881   Zn897   2.008   .     S
O882   Zn898   2.008   .     S
O882   C886    1.298   .     A
O883   C886    1.286   .     A
O883   Zn897   2.005   .     S
O884   Zn898   2.005   .     S
O884   C885    1.295   .     A
C885   C917    1.463   .     S
C886   C918    1.440   .     S
O887   Zn897   1.955   .     S
O887   C895    1.282   .     A
O888   C896    1.282   .     A
O888   Zn898   1.955   .     S
O889   C896    1.280   .     A
O889   Zn897   1.951   .     S
O890   C895    1.280   .     A
O890   Zn898   1.951   .     S
C891   C901    1.400   .     A
C891   H925    1.083   .     S
C891   C921    1.415   .     A
C892   C902    1.403   .     A
C892   C922    1.413   .     A
C892   H926    1.083   .     S
C893   H927    1.083   .     S
C893   C901    1.396   .     A
C893   C923    1.413   .     A
C894   H928    1.083   .     S
C894   C924    1.412   .     A
C894   C902    1.399   .     A
C895   C903    1.369   .     S
C896   C904    1.369   .     S
Zn897  N900    2.020   .     S
Zn898  N899    2.020   .     S
N899   C923    1.381   .     A
N899   C921    1.383   .     A
N900   C924    1.380   .     A
N900   C922    1.377   .     A
C902   C741    1.512   1_565 S
C904   C263    1.167   1_556 S
C905   H909    1.084   .     S
C905   C919    1.386   .     A
C905   C913    1.384   .     A
C906   C914    1.381   .     A
C906   H910    1.085   .     S
C906   C920    1.392   .     A
C907   H911    1.084   .     S
C907   C915    1.390   .     A
C907   C920    1.393   .     A
C908   H912    1.082   .     S
C908   C919    1.390   .     A
C908   C916    1.401   .     A
C913   O941    1.382   .     S
C913   C917    1.418   .     A
C914   O946    1.377   .     S
C914   C918    1.403   .     A
C915   O951    1.383   .     S
C915   C918    1.410   .     A
C916   C917    1.421   .     A
C916   O956    1.399   .     S
C920   C839    1.436   1_655 S
C921   N929    1.432   .     S
C922   N932    1.428   .     S
C923   N935    1.425   .     S
C924   N938    1.432   .     S
N929   O931    1.300   .     A
N929   O930    1.297   .     A
N932   O934    1.301   .     A
N932   O933    1.299   .     A
N935   O936    1.294   .     A
N935   O937    1.300   .     A
N938   O940    1.301   .     A
N938   O939    1.298   .     A
O941   C942    1.410   .     S
C942   H944    1.113   .     S
C942   H943    1.114   .     S
C942   H945    1.109   .     S
O946   C947    1.410   .     S
C947   H948    1.114   .     S
C947   H949    1.114   .     S
C947   H950    1.109   .     S
O951   C952    1.408   .     S
C952   H955    1.109   .     S
C952   H954    1.112   .     S
C952   H953    1.114   .     S
O956   C957    1.412   .     S
C957   H958    1.113   .     S
C957   H959    1.111   .     S
C957   H960    1.109   .     S
