data_str_m3_o1_o16_pcu_sym.85
_audit_creation_date              2020-01-03
_audit_creation_method            'Materials Studio'
_symmetry_space_group_name_H-M    'P1'
_symmetry_Int_Tables_number       1
_symmetry_cell_setting            triclinic
loop_
_symmetry_equiv_pos_as_xyz
  x,y,z
_cell_length_a                    29.5726
_cell_length_b                    32.1300
_cell_length_c                    26.5636
_cell_angle_alpha                 89.8579
_cell_angle_beta                  72.0543
_cell_angle_gamma                 90.1881
loop_
_atom_site_label
_atom_site_type_symbol
_atom_site_fract_x
_atom_site_fract_y
_atom_site_fract_z
_atom_site_U_iso_or_equiv
_atom_site_adp_type
_atom_site_occupancy
C1     C     0.16723   0.24670   0.24770   0.00000  Uiso   1.00
C2     C     0.12841   0.18470   0.40687   0.00000  Uiso   1.00
C3     C     0.19901   0.31206   0.26601   0.00000  Uiso   1.00
C4     C     0.14154   0.17324   0.35050   0.00000  Uiso   1.00
C5     C     0.19874   0.02125   0.26758   0.00000  Uiso   1.00
C6     C     0.16758   0.04279   0.24715   0.00000  Uiso   1.00
C7     C     0.13807   0.02248   0.22308   0.00000  Uiso   1.00
C8     C     0.13812   0.31292   0.22082   0.00000  Uiso   1.00
C9     C     0.16796   0.29105   0.24437   0.00000  Uiso   1.00
C10    C     0.30022   0.14048   0.28260   0.00000  Uiso   1.00
C11    C     0.01474   0.14074   0.28290   0.00000  Uiso   1.00
C12    C     0.14557   0.17037   0.48880   0.00000  Uiso   1.00
C13    C     0.03351   0.19228   0.21701   0.00000  Uiso   1.00
C14    C     0.31904   0.19293   0.21740   0.00000  Uiso   1.00
C15    C     0.16674   0.08674   0.24962   0.00000  Uiso   1.00
C16    C     0.19230   0.16521   0.14868   0.00000  Uiso   1.00
C17    C     0.26107   0.13983   0.00832   0.00000  Uiso   1.00
C18    C     0.20598   0.15982   0.09199   0.00000  Uiso   1.00
C19    C     0.08210   0.19738   0.43503   0.00000  Uiso   1.00
C20    C     0.06578   0.19178   0.49024   0.00000  Uiso   1.00
C21    C     0.09553   0.17157   0.01545   0.00000  Uiso   1.00
C22    C     0.10691   0.29203   0.19281   0.00000  Uiso   1.00
C23    C     0.16203   0.17999   0.43448   0.00000  Uiso   1.00
C24    C     0.07268   0.14741   0.06604   0.00000  Uiso   1.00
C25    C     0.01744   0.20793   0.02134   0.00000  Uiso   1.00
C26    C     0.18050   0.16172   0.01389   0.00000  Uiso   1.00
C27    C     0.22789   0.15251   0.48348   0.00000  Uiso   1.00
C28    C     0.24333   0.16392   0.43056   0.00000  Uiso   1.00
C29    C     0.21178   0.18393   0.40951   0.00000  Uiso   1.00
C30    C     0.17187   0.16888   0.06734   0.00000  Uiso   1.00
C31    C     0.24988   0.14316   0.06305   0.00000  Uiso   1.00
H32    H     0.27596   0.13459   0.08223   0.00000  Uiso   1.00
H33    H     0.22284   0.29572   0.28279   0.00000  Uiso   1.00
H34    H     0.07579   0.27761   0.22244   0.00000  Uiso   1.00
H35    H     0.09305   0.31460   0.16948   0.00000  Uiso   1.00
H36    H     0.12742   0.26824   0.16479   0.00000  Uiso   1.00
H37    H     0.09690   0.12361   0.07362   0.00000  Uiso   1.00
H38    H     0.06083   0.16881   0.10028   0.00000  Uiso   1.00
H39    H     0.04135   0.12988   0.06253   0.00000  Uiso   1.00
H40    H     0.32388   0.19858   0.00253   0.00000  Uiso   1.00
H41    H     0.00523   0.19649   0.06254   0.00000  Uiso   1.00
H42    H     0.01867   0.24245   0.02221   0.00000  Uiso   1.00
H43    H     0.22211   0.03721   0.28567   0.00000  Uiso   1.00
H44    H     0.11527   0.04015   0.20589   0.00000  Uiso   1.00
H45    H     0.27477   0.11964   0.30878   0.00000  Uiso   1.00
H46    H     0.02547   0.12009   0.30933   0.00000  Uiso   1.00
H47    H     0.05941   0.21234   0.19024   0.00000  Uiso   1.00
H48    H     0.28099   0.16437   0.40907   0.00000  Uiso   1.00
H49    H     0.29663   0.13059   0.48528   0.00000  Uiso   1.00
H50    H     0.13948   0.18425   0.08959   0.00000  Uiso   1.00
I51    I     0.30254   0.23735   0.16704   0.00000  Uiso   1.00
I52    I     0.03864   0.22818   0.39501   0.00000  Uiso   1.00
I53    I     0.24139   0.23470   0.35837   0.00000  Uiso   1.00
N54    N     0.04760   0.16668   0.25001   0.00000  Uiso   1.00
N55    N     0.28573   0.16665   0.25000   0.00000  Uiso   1.00
O56    O     0.12846   0.22775   0.25000   0.00000  Uiso   1.00
O57    O     0.20490   0.22774   0.25000   0.00000  Uiso   1.00
O58    O     0.10947   0.16666   0.32681   0.00000  Uiso   1.00
O59    O     0.18591   0.16665   0.32681   0.00000  Uiso   1.00
O60    O     0.12843   0.10559   0.24999   0.00000  Uiso   1.00
O61    O     0.20488   0.10558   0.24999   0.00000  Uiso   1.00
O62    O     0.14742   0.16668   0.17319   0.00000  Uiso   1.00
O63    O     0.22387   0.16667   0.17319   0.00000  Uiso   1.00
Zn64   Zn    0.11562   0.16667   0.25000   0.00000  Uiso   1.00
Zn65   Zn    0.21771   0.16666   0.25000   0.00000  Uiso   1.00
C66    C     0.50057   0.24670   0.24770   0.00000  Uiso   1.00
C67    C     0.46174   0.18470   0.40687   0.00000  Uiso   1.00
C68    C     0.53234   0.31206   0.26601   0.00000  Uiso   1.00
C69    C     0.47487   0.17324   0.35050   0.00000  Uiso   1.00
C70    C     0.53208   0.02125   0.26758   0.00000  Uiso   1.00
C71    C     0.50091   0.04279   0.24715   0.00000  Uiso   1.00
C72    C     0.47141   0.02248   0.22308   0.00000  Uiso   1.00
C73    C     0.47145   0.31292   0.22082   0.00000  Uiso   1.00
C74    C     0.50129   0.29105   0.24437   0.00000  Uiso   1.00
C75    C     0.63355   0.14048   0.28260   0.00000  Uiso   1.00
C76    C     0.34807   0.14074   0.28290   0.00000  Uiso   1.00
C77    C     0.47891   0.17037   0.48880   0.00000  Uiso   1.00
C78    C     0.36685   0.19228   0.21701   0.00000  Uiso   1.00
C79    C     0.65238   0.19293   0.21740   0.00000  Uiso   1.00
C80    C     0.50008   0.08674   0.24962   0.00000  Uiso   1.00
C81    C     0.52564   0.16521   0.14868   0.00000  Uiso   1.00
C82    C     0.59440   0.13983   0.00832   0.00000  Uiso   1.00
C83    C     0.53931   0.15982   0.09199   0.00000  Uiso   1.00
C84    C     0.41543   0.19738   0.43503   0.00000  Uiso   1.00
C85    C     0.39911   0.19178   0.49024   0.00000  Uiso   1.00
C86    C     0.42886   0.17157   0.01545   0.00000  Uiso   1.00
C87    C     0.44024   0.29203   0.19281   0.00000  Uiso   1.00
C88    C     0.49537   0.17999   0.43448   0.00000  Uiso   1.00
C89    C     0.40601   0.14741   0.06604   0.00000  Uiso   1.00
C90    C     0.35078   0.20793   0.02134   0.00000  Uiso   1.00
C91    C     0.51384   0.16172   0.01389   0.00000  Uiso   1.00
C92    C     0.56122   0.15251   0.48348   0.00000  Uiso   1.00
C93    C     0.57666   0.16392   0.43056   0.00000  Uiso   1.00
C94    C     0.54512   0.18393   0.40951   0.00000  Uiso   1.00
C95    C     0.50520   0.16888   0.06734   0.00000  Uiso   1.00
C96    C     0.58321   0.14316   0.06305   0.00000  Uiso   1.00
H97    H     0.60929   0.13459   0.08223   0.00000  Uiso   1.00
H98    H     0.55618   0.29572   0.28279   0.00000  Uiso   1.00
H99    H     0.40912   0.27761   0.22244   0.00000  Uiso   1.00
H100   H     0.42638   0.31460   0.16948   0.00000  Uiso   1.00
H101   H     0.46076   0.26824   0.16479   0.00000  Uiso   1.00
H102   H     0.43024   0.12361   0.07362   0.00000  Uiso   1.00
H103   H     0.39416   0.16881   0.10028   0.00000  Uiso   1.00
H104   H     0.37469   0.12988   0.06253   0.00000  Uiso   1.00
H105   H     0.65721   0.19858   0.00253   0.00000  Uiso   1.00
H106   H     0.33857   0.19649   0.06254   0.00000  Uiso   1.00
H107   H     0.35201   0.24245   0.02221   0.00000  Uiso   1.00
H108   H     0.55545   0.03721   0.28567   0.00000  Uiso   1.00
H109   H     0.44860   0.04015   0.20589   0.00000  Uiso   1.00
H110   H     0.60810   0.11964   0.30878   0.00000  Uiso   1.00
H111   H     0.35880   0.12009   0.30933   0.00000  Uiso   1.00
H112   H     0.39274   0.21234   0.19024   0.00000  Uiso   1.00
H113   H     0.61433   0.16437   0.40907   0.00000  Uiso   1.00
H114   H     0.62996   0.13059   0.48528   0.00000  Uiso   1.00
H115   H     0.47282   0.18425   0.08959   0.00000  Uiso   1.00
I116   I     0.63587   0.23735   0.16704   0.00000  Uiso   1.00
I117   I     0.37197   0.22818   0.39501   0.00000  Uiso   1.00
I118   I     0.57472   0.23470   0.35837   0.00000  Uiso   1.00
N119   N     0.38093   0.16668   0.25001   0.00000  Uiso   1.00
N120   N     0.61906   0.16665   0.25000   0.00000  Uiso   1.00
O121   O     0.46179   0.22775   0.25000   0.00000  Uiso   1.00
O122   O     0.53823   0.22774   0.25000   0.00000  Uiso   1.00
O123   O     0.44280   0.16666   0.32681   0.00000  Uiso   1.00
O124   O     0.51924   0.16665   0.32681   0.00000  Uiso   1.00
O125   O     0.46177   0.10559   0.24999   0.00000  Uiso   1.00
O126   O     0.53821   0.10558   0.24999   0.00000  Uiso   1.00
O127   O     0.48076   0.16668   0.17319   0.00000  Uiso   1.00
O128   O     0.55720   0.16667   0.17319   0.00000  Uiso   1.00
Zn129  Zn    0.44896   0.16667   0.25000   0.00000  Uiso   1.00
Zn130  Zn    0.55104   0.16666   0.25000   0.00000  Uiso   1.00
C131   C     0.83390   0.24670   0.24770   0.00000  Uiso   1.00
C132   C     0.79508   0.18470   0.40687   0.00000  Uiso   1.00
C133   C     0.86568   0.31206   0.26601   0.00000  Uiso   1.00
C134   C     0.80821   0.17324   0.35050   0.00000  Uiso   1.00
C135   C     0.86541   0.02125   0.26758   0.00000  Uiso   1.00
C136   C     0.83424   0.04279   0.24715   0.00000  Uiso   1.00
C137   C     0.80474   0.02248   0.22308   0.00000  Uiso   1.00
C138   C     0.80479   0.31292   0.22082   0.00000  Uiso   1.00
C139   C     0.83463   0.29105   0.24437   0.00000  Uiso   1.00
C140   C     0.96688   0.14048   0.28260   0.00000  Uiso   1.00
C141   C     0.68140   0.14074   0.28290   0.00000  Uiso   1.00
C142   C     0.81224   0.17037   0.48880   0.00000  Uiso   1.00
C143   C     0.70018   0.19228   0.21701   0.00000  Uiso   1.00
C144   C     0.98571   0.19293   0.21740   0.00000  Uiso   1.00
C145   C     0.83341   0.08674   0.24962   0.00000  Uiso   1.00
C146   C     0.85897   0.16521   0.14868   0.00000  Uiso   1.00
C147   C     0.92773   0.13983   0.00832   0.00000  Uiso   1.00
C148   C     0.87264   0.15982   0.09199   0.00000  Uiso   1.00
C149   C     0.74877   0.19738   0.43503   0.00000  Uiso   1.00
C150   C     0.73245   0.19178   0.49024   0.00000  Uiso   1.00
C151   C     0.76219   0.17157   0.01545   0.00000  Uiso   1.00
C152   C     0.77357   0.29203   0.19281   0.00000  Uiso   1.00
C153   C     0.82870   0.17999   0.43448   0.00000  Uiso   1.00
C154   C     0.73934   0.14741   0.06604   0.00000  Uiso   1.00
C155   C     0.68411   0.20793   0.02134   0.00000  Uiso   1.00
C156   C     0.84717   0.16172   0.01389   0.00000  Uiso   1.00
C157   C     0.89455   0.15251   0.48348   0.00000  Uiso   1.00
C158   C     0.91000   0.16392   0.43056   0.00000  Uiso   1.00
C159   C     0.87845   0.18393   0.40951   0.00000  Uiso   1.00
C160   C     0.83854   0.16888   0.06734   0.00000  Uiso   1.00
C161   C     0.91654   0.14316   0.06305   0.00000  Uiso   1.00
H162   H     0.94262   0.13459   0.08223   0.00000  Uiso   1.00
H163   H     0.88951   0.29572   0.28279   0.00000  Uiso   1.00
H164   H     0.74246   0.27761   0.22244   0.00000  Uiso   1.00
H165   H     0.75972   0.31460   0.16948   0.00000  Uiso   1.00
H166   H     0.79409   0.26824   0.16479   0.00000  Uiso   1.00
H167   H     0.76357   0.12361   0.07362   0.00000  Uiso   1.00
H168   H     0.72749   0.16881   0.10028   0.00000  Uiso   1.00
H169   H     0.70802   0.12988   0.06253   0.00000  Uiso   1.00
H170   H     0.99055   0.19858   0.00253   0.00000  Uiso   1.00
H171   H     0.67190   0.19649   0.06254   0.00000  Uiso   1.00
H172   H     0.68534   0.24245   0.02221   0.00000  Uiso   1.00
H173   H     0.88878   0.03721   0.28567   0.00000  Uiso   1.00
H174   H     0.78194   0.04015   0.20589   0.00000  Uiso   1.00
H175   H     0.94144   0.11964   0.30878   0.00000  Uiso   1.00
H176   H     0.69214   0.12009   0.30933   0.00000  Uiso   1.00
H177   H     0.72608   0.21234   0.19024   0.00000  Uiso   1.00
H178   H     0.94766   0.16437   0.40907   0.00000  Uiso   1.00
H179   H     0.96330   0.13059   0.48528   0.00000  Uiso   1.00
H180   H     0.80615   0.18425   0.08959   0.00000  Uiso   1.00
I181   I     0.96921   0.23735   0.16704   0.00000  Uiso   1.00
I182   I     0.70531   0.22818   0.39501   0.00000  Uiso   1.00
I183   I     0.90806   0.23470   0.35837   0.00000  Uiso   1.00
N184   N     0.71426   0.16668   0.25001   0.00000  Uiso   1.00
N185   N     0.95239   0.16665   0.25000   0.00000  Uiso   1.00
O186   O     0.79512   0.22775   0.25000   0.00000  Uiso   1.00
O187   O     0.87157   0.22774   0.25000   0.00000  Uiso   1.00
O188   O     0.77613   0.16666   0.32681   0.00000  Uiso   1.00
O189   O     0.85258   0.16665   0.32681   0.00000  Uiso   1.00
O190   O     0.79510   0.10559   0.24999   0.00000  Uiso   1.00
O191   O     0.87154   0.10558   0.24999   0.00000  Uiso   1.00
O192   O     0.81409   0.16668   0.17319   0.00000  Uiso   1.00
O193   O     0.89053   0.16667   0.17319   0.00000  Uiso   1.00
Zn194  Zn    0.78229   0.16667   0.25000   0.00000  Uiso   1.00
Zn195  Zn    0.88438   0.16666   0.25000   0.00000  Uiso   1.00
C196   C     0.16723   0.58004   0.24770   0.00000  Uiso   1.00
C197   C     0.12841   0.51803   0.40687   0.00000  Uiso   1.00
C198   C     0.19901   0.64540   0.26601   0.00000  Uiso   1.00
C199   C     0.14154   0.50657   0.35050   0.00000  Uiso   1.00
C200   C     0.19874   0.35459   0.26758   0.00000  Uiso   1.00
C201   C     0.16758   0.37613   0.24715   0.00000  Uiso   1.00
C202   C     0.13807   0.35582   0.22308   0.00000  Uiso   1.00
C203   C     0.13812   0.64625   0.22082   0.00000  Uiso   1.00
C204   C     0.16796   0.62439   0.24437   0.00000  Uiso   1.00
C205   C     0.30022   0.47381   0.28260   0.00000  Uiso   1.00
C206   C     0.01474   0.47407   0.28290   0.00000  Uiso   1.00
C207   C     0.14557   0.50370   0.48880   0.00000  Uiso   1.00
C208   C     0.03351   0.52562   0.21701   0.00000  Uiso   1.00
C209   C     0.31904   0.52626   0.21740   0.00000  Uiso   1.00
C210   C     0.16674   0.42008   0.24962   0.00000  Uiso   1.00
C211   C     0.19230   0.49855   0.14868   0.00000  Uiso   1.00
C212   C     0.26107   0.47316   0.00832   0.00000  Uiso   1.00
C213   C     0.20598   0.49316   0.09199   0.00000  Uiso   1.00
C214   C     0.08210   0.53071   0.43503   0.00000  Uiso   1.00
C215   C     0.06578   0.52511   0.49024   0.00000  Uiso   1.00
C216   C     0.09553   0.50491   0.01545   0.00000  Uiso   1.00
C217   C     0.10691   0.62536   0.19281   0.00000  Uiso   1.00
C218   C     0.16203   0.51332   0.43448   0.00000  Uiso   1.00
C219   C     0.07268   0.48074   0.06604   0.00000  Uiso   1.00
C220   C     0.01744   0.54126   0.02134   0.00000  Uiso   1.00
C221   C     0.18050   0.49505   0.01389   0.00000  Uiso   1.00
C222   C     0.22789   0.48585   0.48348   0.00000  Uiso   1.00
C223   C     0.24333   0.49725   0.43056   0.00000  Uiso   1.00
C224   C     0.21178   0.51726   0.40951   0.00000  Uiso   1.00
C225   C     0.17187   0.50222   0.06734   0.00000  Uiso   1.00
C226   C     0.24988   0.47649   0.06305   0.00000  Uiso   1.00
H227   H     0.27596   0.46792   0.08223   0.00000  Uiso   1.00
H228   H     0.22284   0.62905   0.28279   0.00000  Uiso   1.00
H229   H     0.07579   0.61095   0.22244   0.00000  Uiso   1.00
H230   H     0.09305   0.64794   0.16948   0.00000  Uiso   1.00
H231   H     0.12742   0.60158   0.16479   0.00000  Uiso   1.00
H232   H     0.09690   0.45694   0.07362   0.00000  Uiso   1.00
H233   H     0.06083   0.50215   0.10028   0.00000  Uiso   1.00
H234   H     0.04135   0.46321   0.06253   0.00000  Uiso   1.00
H235   H     0.32388   0.53191   0.00253   0.00000  Uiso   1.00
H236   H     0.00523   0.52982   0.06254   0.00000  Uiso   1.00
H237   H     0.01867   0.57578   0.02221   0.00000  Uiso   1.00
H238   H     0.22211   0.37055   0.28567   0.00000  Uiso   1.00
H239   H     0.11527   0.37349   0.20589   0.00000  Uiso   1.00
H240   H     0.27477   0.45297   0.30878   0.00000  Uiso   1.00
H241   H     0.02547   0.45342   0.30933   0.00000  Uiso   1.00
H242   H     0.05941   0.54567   0.19024   0.00000  Uiso   1.00
H243   H     0.28099   0.49771   0.40907   0.00000  Uiso   1.00
H244   H     0.29663   0.46392   0.48528   0.00000  Uiso   1.00
H245   H     0.13948   0.51758   0.08959   0.00000  Uiso   1.00
I246   I     0.30254   0.57068   0.16704   0.00000  Uiso   1.00
I247   I     0.03864   0.56151   0.39501   0.00000  Uiso   1.00
I248   I     0.24139   0.56803   0.35837   0.00000  Uiso   1.00
N249   N     0.04760   0.50001   0.25001   0.00000  Uiso   1.00
N250   N     0.28573   0.49998   0.25000   0.00000  Uiso   1.00
O251   O     0.12846   0.56108   0.25000   0.00000  Uiso   1.00
O252   O     0.20490   0.56107   0.25000   0.00000  Uiso   1.00
O253   O     0.10947   0.50000   0.32681   0.00000  Uiso   1.00
O254   O     0.18591   0.49999   0.32681   0.00000  Uiso   1.00
O255   O     0.12843   0.43893   0.24999   0.00000  Uiso   1.00
O256   O     0.20488   0.43892   0.24999   0.00000  Uiso   1.00
O257   O     0.14742   0.50001   0.17319   0.00000  Uiso   1.00
O258   O     0.22387   0.50000   0.17319   0.00000  Uiso   1.00
Zn259  Zn    0.11562   0.50001   0.25000   0.00000  Uiso   1.00
Zn260  Zn    0.21771   0.49999   0.25000   0.00000  Uiso   1.00
C261   C     0.50057   0.58004   0.24770   0.00000  Uiso   1.00
C262   C     0.46174   0.51803   0.40687   0.00000  Uiso   1.00
C263   C     0.53234   0.64540   0.26601   0.00000  Uiso   1.00
C264   C     0.47487   0.50657   0.35050   0.00000  Uiso   1.00
C265   C     0.53208   0.35459   0.26758   0.00000  Uiso   1.00
C266   C     0.50091   0.37613   0.24715   0.00000  Uiso   1.00
C267   C     0.47141   0.35582   0.22308   0.00000  Uiso   1.00
C268   C     0.47145   0.64625   0.22082   0.00000  Uiso   1.00
C269   C     0.50129   0.62439   0.24437   0.00000  Uiso   1.00
C270   C     0.63355   0.47381   0.28260   0.00000  Uiso   1.00
C271   C     0.34807   0.47407   0.28290   0.00000  Uiso   1.00
C272   C     0.47891   0.50370   0.48880   0.00000  Uiso   1.00
C273   C     0.36685   0.52562   0.21701   0.00000  Uiso   1.00
C274   C     0.65238   0.52626   0.21740   0.00000  Uiso   1.00
C275   C     0.50008   0.42008   0.24962   0.00000  Uiso   1.00
C276   C     0.52564   0.49855   0.14868   0.00000  Uiso   1.00
C277   C     0.59440   0.47316   0.00832   0.00000  Uiso   1.00
C278   C     0.53931   0.49316   0.09199   0.00000  Uiso   1.00
C279   C     0.41543   0.53071   0.43503   0.00000  Uiso   1.00
C280   C     0.39911   0.52511   0.49024   0.00000  Uiso   1.00
C281   C     0.42886   0.50491   0.01545   0.00000  Uiso   1.00
C282   C     0.44024   0.62536   0.19281   0.00000  Uiso   1.00
C283   C     0.49537   0.51332   0.43448   0.00000  Uiso   1.00
C284   C     0.40601   0.48074   0.06604   0.00000  Uiso   1.00
C285   C     0.35078   0.54126   0.02134   0.00000  Uiso   1.00
C286   C     0.51384   0.49505   0.01389   0.00000  Uiso   1.00
C287   C     0.56122   0.48585   0.48348   0.00000  Uiso   1.00
C288   C     0.57666   0.49725   0.43056   0.00000  Uiso   1.00
C289   C     0.54512   0.51726   0.40951   0.00000  Uiso   1.00
C290   C     0.50520   0.50222   0.06734   0.00000  Uiso   1.00
C291   C     0.58321   0.47649   0.06305   0.00000  Uiso   1.00
H292   H     0.60929   0.46792   0.08223   0.00000  Uiso   1.00
H293   H     0.55618   0.62905   0.28279   0.00000  Uiso   1.00
H294   H     0.40912   0.61095   0.22244   0.00000  Uiso   1.00
H295   H     0.42638   0.64794   0.16948   0.00000  Uiso   1.00
H296   H     0.46076   0.60158   0.16479   0.00000  Uiso   1.00
H297   H     0.43024   0.45694   0.07362   0.00000  Uiso   1.00
H298   H     0.39416   0.50215   0.10028   0.00000  Uiso   1.00
H299   H     0.37469   0.46321   0.06253   0.00000  Uiso   1.00
H300   H     0.65721   0.53191   0.00253   0.00000  Uiso   1.00
H301   H     0.33857   0.52982   0.06254   0.00000  Uiso   1.00
H302   H     0.35201   0.57578   0.02221   0.00000  Uiso   1.00
H303   H     0.55545   0.37055   0.28567   0.00000  Uiso   1.00
H304   H     0.44860   0.37349   0.20589   0.00000  Uiso   1.00
H305   H     0.60810   0.45297   0.30878   0.00000  Uiso   1.00
H306   H     0.35880   0.45342   0.30933   0.00000  Uiso   1.00
H307   H     0.39274   0.54567   0.19024   0.00000  Uiso   1.00
H308   H     0.61433   0.49771   0.40907   0.00000  Uiso   1.00
H309   H     0.62996   0.46392   0.48528   0.00000  Uiso   1.00
H310   H     0.47282   0.51758   0.08959   0.00000  Uiso   1.00
I311   I     0.63587   0.57068   0.16704   0.00000  Uiso   1.00
I312   I     0.37197   0.56151   0.39501   0.00000  Uiso   1.00
I313   I     0.57472   0.56803   0.35837   0.00000  Uiso   1.00
N314   N     0.38093   0.50001   0.25001   0.00000  Uiso   1.00
N315   N     0.61906   0.49998   0.25000   0.00000  Uiso   1.00
O316   O     0.46179   0.56108   0.25000   0.00000  Uiso   1.00
O317   O     0.53823   0.56107   0.25000   0.00000  Uiso   1.00
O318   O     0.44280   0.50000   0.32681   0.00000  Uiso   1.00
O319   O     0.51924   0.49999   0.32681   0.00000  Uiso   1.00
O320   O     0.46177   0.43893   0.24999   0.00000  Uiso   1.00
O321   O     0.53821   0.43892   0.24999   0.00000  Uiso   1.00
O322   O     0.48076   0.50001   0.17319   0.00000  Uiso   1.00
O323   O     0.55720   0.50000   0.17319   0.00000  Uiso   1.00
Zn324  Zn    0.44896   0.50001   0.25000   0.00000  Uiso   1.00
Zn325  Zn    0.55104   0.49999   0.25000   0.00000  Uiso   1.00
C326   C     0.83390   0.58004   0.24770   0.00000  Uiso   1.00
C327   C     0.79508   0.51803   0.40687   0.00000  Uiso   1.00
C328   C     0.86568   0.64540   0.26601   0.00000  Uiso   1.00
C329   C     0.80821   0.50657   0.35050   0.00000  Uiso   1.00
C330   C     0.86541   0.35459   0.26758   0.00000  Uiso   1.00
C331   C     0.83424   0.37613   0.24715   0.00000  Uiso   1.00
C332   C     0.80474   0.35582   0.22308   0.00000  Uiso   1.00
C333   C     0.80479   0.64625   0.22082   0.00000  Uiso   1.00
C334   C     0.83463   0.62439   0.24437   0.00000  Uiso   1.00
C335   C     0.96688   0.47381   0.28260   0.00000  Uiso   1.00
C336   C     0.68140   0.47407   0.28290   0.00000  Uiso   1.00
C337   C     0.81224   0.50370   0.48880   0.00000  Uiso   1.00
C338   C     0.70018   0.52562   0.21701   0.00000  Uiso   1.00
C339   C     0.98571   0.52626   0.21740   0.00000  Uiso   1.00
C340   C     0.83341   0.42008   0.24962   0.00000  Uiso   1.00
C341   C     0.85897   0.49855   0.14868   0.00000  Uiso   1.00
C342   C     0.92773   0.47316   0.00832   0.00000  Uiso   1.00
C343   C     0.87264   0.49316   0.09199   0.00000  Uiso   1.00
C344   C     0.74877   0.53071   0.43503   0.00000  Uiso   1.00
C345   C     0.73245   0.52511   0.49024   0.00000  Uiso   1.00
C346   C     0.76219   0.50491   0.01545   0.00000  Uiso   1.00
C347   C     0.77357   0.62536   0.19281   0.00000  Uiso   1.00
C348   C     0.82870   0.51332   0.43448   0.00000  Uiso   1.00
C349   C     0.73934   0.48074   0.06604   0.00000  Uiso   1.00
C350   C     0.68411   0.54126   0.02134   0.00000  Uiso   1.00
C351   C     0.84717   0.49505   0.01389   0.00000  Uiso   1.00
C352   C     0.89455   0.48585   0.48348   0.00000  Uiso   1.00
C353   C     0.91000   0.49725   0.43056   0.00000  Uiso   1.00
C354   C     0.87845   0.51726   0.40951   0.00000  Uiso   1.00
C355   C     0.83854   0.50222   0.06734   0.00000  Uiso   1.00
C356   C     0.91654   0.47649   0.06305   0.00000  Uiso   1.00
H357   H     0.94262   0.46792   0.08223   0.00000  Uiso   1.00
H358   H     0.88951   0.62905   0.28279   0.00000  Uiso   1.00
H359   H     0.74246   0.61095   0.22244   0.00000  Uiso   1.00
H360   H     0.75972   0.64794   0.16948   0.00000  Uiso   1.00
H361   H     0.79409   0.60158   0.16479   0.00000  Uiso   1.00
H362   H     0.76357   0.45694   0.07362   0.00000  Uiso   1.00
H363   H     0.72749   0.50215   0.10028   0.00000  Uiso   1.00
H364   H     0.70802   0.46321   0.06253   0.00000  Uiso   1.00
H365   H     0.99055   0.53191   0.00253   0.00000  Uiso   1.00
H366   H     0.67190   0.52982   0.06254   0.00000  Uiso   1.00
H367   H     0.68534   0.57578   0.02221   0.00000  Uiso   1.00
H368   H     0.88878   0.37055   0.28567   0.00000  Uiso   1.00
H369   H     0.78194   0.37349   0.20589   0.00000  Uiso   1.00
H370   H     0.94144   0.45297   0.30878   0.00000  Uiso   1.00
H371   H     0.69214   0.45342   0.30933   0.00000  Uiso   1.00
H372   H     0.72608   0.54567   0.19024   0.00000  Uiso   1.00
H373   H     0.94766   0.49771   0.40907   0.00000  Uiso   1.00
H374   H     0.96330   0.46392   0.48528   0.00000  Uiso   1.00
H375   H     0.80615   0.51758   0.08959   0.00000  Uiso   1.00
I376   I     0.96921   0.57068   0.16704   0.00000  Uiso   1.00
I377   I     0.70531   0.56151   0.39501   0.00000  Uiso   1.00
I378   I     0.90806   0.56803   0.35837   0.00000  Uiso   1.00
N379   N     0.71426   0.50001   0.25001   0.00000  Uiso   1.00
N380   N     0.95239   0.49998   0.25000   0.00000  Uiso   1.00
O381   O     0.79512   0.56108   0.25000   0.00000  Uiso   1.00
O382   O     0.87157   0.56107   0.25000   0.00000  Uiso   1.00
O383   O     0.77613   0.50000   0.32681   0.00000  Uiso   1.00
O384   O     0.85258   0.49999   0.32681   0.00000  Uiso   1.00
O385   O     0.79510   0.43893   0.24999   0.00000  Uiso   1.00
O386   O     0.87154   0.43892   0.24999   0.00000  Uiso   1.00
O387   O     0.81409   0.50001   0.17319   0.00000  Uiso   1.00
O388   O     0.89053   0.50000   0.17319   0.00000  Uiso   1.00
Zn389  Zn    0.78229   0.50001   0.25000   0.00000  Uiso   1.00
Zn390  Zn    0.88438   0.49999   0.25000   0.00000  Uiso   1.00
C391   C     0.16723   0.91337   0.24770   0.00000  Uiso   1.00
C392   C     0.12841   0.85137   0.40687   0.00000  Uiso   1.00
C393   C     0.19901   0.97873   0.26601   0.00000  Uiso   1.00
C394   C     0.14154   0.83991   0.35050   0.00000  Uiso   1.00
C395   C     0.19874   0.68792   0.26758   0.00000  Uiso   1.00
C396   C     0.16758   0.70946   0.24715   0.00000  Uiso   1.00
C397   C     0.13807   0.68915   0.22308   0.00000  Uiso   1.00
C398   C     0.13812   0.97958   0.22082   0.00000  Uiso   1.00
C399   C     0.16796   0.95772   0.24437   0.00000  Uiso   1.00
C400   C     0.30022   0.80714   0.28260   0.00000  Uiso   1.00
C401   C     0.01474   0.80740   0.28290   0.00000  Uiso   1.00
C402   C     0.14557   0.83704   0.48880   0.00000  Uiso   1.00
C403   C     0.03351   0.85895   0.21701   0.00000  Uiso   1.00
C404   C     0.31904   0.85960   0.21740   0.00000  Uiso   1.00
C405   C     0.16674   0.75341   0.24962   0.00000  Uiso   1.00
C406   C     0.19230   0.83188   0.14868   0.00000  Uiso   1.00
C407   C     0.26107   0.80649   0.00832   0.00000  Uiso   1.00
C408   C     0.20598   0.82649   0.09199   0.00000  Uiso   1.00
C409   C     0.08210   0.86405   0.43503   0.00000  Uiso   1.00
C410   C     0.06578   0.85844   0.49024   0.00000  Uiso   1.00
C411   C     0.09553   0.83824   0.01545   0.00000  Uiso   1.00
C412   C     0.10691   0.95870   0.19281   0.00000  Uiso   1.00
C413   C     0.16203   0.84666   0.43448   0.00000  Uiso   1.00
C414   C     0.07268   0.81407   0.06604   0.00000  Uiso   1.00
C415   C     0.01744   0.87459   0.02134   0.00000  Uiso   1.00
C416   C     0.18050   0.82839   0.01389   0.00000  Uiso   1.00
C417   C     0.22789   0.81918   0.48348   0.00000  Uiso   1.00
C418   C     0.24333   0.83058   0.43056   0.00000  Uiso   1.00
C419   C     0.21178   0.85060   0.40951   0.00000  Uiso   1.00
C420   C     0.17187   0.83555   0.06734   0.00000  Uiso   1.00
C421   C     0.24988   0.80982   0.06305   0.00000  Uiso   1.00
H422   H     0.27596   0.80125   0.08223   0.00000  Uiso   1.00
H423   H     0.22284   0.96238   0.28279   0.00000  Uiso   1.00
H424   H     0.07579   0.94428   0.22244   0.00000  Uiso   1.00
H425   H     0.09305   0.98127   0.16948   0.00000  Uiso   1.00
H426   H     0.12742   0.93491   0.16479   0.00000  Uiso   1.00
H427   H     0.09690   0.79028   0.07362   0.00000  Uiso   1.00
H428   H     0.06083   0.83548   0.10028   0.00000  Uiso   1.00
H429   H     0.04135   0.79654   0.06253   0.00000  Uiso   1.00
H430   H     0.32388   0.86525   0.00253   0.00000  Uiso   1.00
H431   H     0.00523   0.86315   0.06254   0.00000  Uiso   1.00
H432   H     0.01867   0.90911   0.02221   0.00000  Uiso   1.00
H433   H     0.22211   0.70388   0.28567   0.00000  Uiso   1.00
H434   H     0.11527   0.70682   0.20589   0.00000  Uiso   1.00
H435   H     0.27477   0.78630   0.30878   0.00000  Uiso   1.00
H436   H     0.02547   0.78675   0.30933   0.00000  Uiso   1.00
H437   H     0.05941   0.87900   0.19024   0.00000  Uiso   1.00
H438   H     0.28099   0.83104   0.40907   0.00000  Uiso   1.00
H439   H     0.29663   0.79726   0.48528   0.00000  Uiso   1.00
H440   H     0.13948   0.85092   0.08959   0.00000  Uiso   1.00
I441   I     0.30254   0.90401   0.16704   0.00000  Uiso   1.00
I442   I     0.03864   0.89484   0.39501   0.00000  Uiso   1.00
I443   I     0.24139   0.90136   0.35837   0.00000  Uiso   1.00
N444   N     0.04760   0.83334   0.25001   0.00000  Uiso   1.00
N445   N     0.28573   0.83331   0.25000   0.00000  Uiso   1.00
O446   O     0.12846   0.89442   0.25000   0.00000  Uiso   1.00
O447   O     0.20490   0.89441   0.25000   0.00000  Uiso   1.00
O448   O     0.10947   0.83333   0.32681   0.00000  Uiso   1.00
O449   O     0.18591   0.83332   0.32681   0.00000  Uiso   1.00
O450   O     0.12843   0.77226   0.24999   0.00000  Uiso   1.00
O451   O     0.20488   0.77225   0.24999   0.00000  Uiso   1.00
O452   O     0.14742   0.83335   0.17319   0.00000  Uiso   1.00
O453   O     0.22387   0.83334   0.17319   0.00000  Uiso   1.00
Zn454  Zn    0.11562   0.83334   0.25000   0.00000  Uiso   1.00
Zn455  Zn    0.21771   0.83333   0.25000   0.00000  Uiso   1.00
C456   C     0.50057   0.91337   0.24770   0.00000  Uiso   1.00
C457   C     0.46174   0.85137   0.40687   0.00000  Uiso   1.00
C458   C     0.53234   0.97873   0.26601   0.00000  Uiso   1.00
C459   C     0.47487   0.83991   0.35050   0.00000  Uiso   1.00
C460   C     0.53208   0.68792   0.26758   0.00000  Uiso   1.00
C461   C     0.50091   0.70946   0.24715   0.00000  Uiso   1.00
C462   C     0.47141   0.68915   0.22308   0.00000  Uiso   1.00
C463   C     0.47145   0.97958   0.22082   0.00000  Uiso   1.00
C464   C     0.50129   0.95772   0.24437   0.00000  Uiso   1.00
C465   C     0.63355   0.80714   0.28260   0.00000  Uiso   1.00
C466   C     0.34807   0.80740   0.28290   0.00000  Uiso   1.00
C467   C     0.47891   0.83704   0.48880   0.00000  Uiso   1.00
C468   C     0.36685   0.85895   0.21701   0.00000  Uiso   1.00
C469   C     0.65238   0.85960   0.21740   0.00000  Uiso   1.00
C470   C     0.50008   0.75341   0.24962   0.00000  Uiso   1.00
C471   C     0.52564   0.83188   0.14868   0.00000  Uiso   1.00
C472   C     0.59440   0.80649   0.00832   0.00000  Uiso   1.00
C473   C     0.53931   0.82649   0.09199   0.00000  Uiso   1.00
C474   C     0.41543   0.86405   0.43503   0.00000  Uiso   1.00
C475   C     0.39911   0.85844   0.49024   0.00000  Uiso   1.00
C476   C     0.42886   0.83824   0.01545   0.00000  Uiso   1.00
C477   C     0.44024   0.95870   0.19281   0.00000  Uiso   1.00
C478   C     0.49537   0.84666   0.43448   0.00000  Uiso   1.00
C479   C     0.40601   0.81407   0.06604   0.00000  Uiso   1.00
C480   C     0.35078   0.87459   0.02134   0.00000  Uiso   1.00
C481   C     0.51384   0.82839   0.01389   0.00000  Uiso   1.00
C482   C     0.56122   0.81918   0.48348   0.00000  Uiso   1.00
C483   C     0.57666   0.83058   0.43056   0.00000  Uiso   1.00
C484   C     0.54512   0.85060   0.40951   0.00000  Uiso   1.00
C485   C     0.50520   0.83555   0.06734   0.00000  Uiso   1.00
C486   C     0.58321   0.80982   0.06305   0.00000  Uiso   1.00
H487   H     0.60929   0.80125   0.08223   0.00000  Uiso   1.00
H488   H     0.55618   0.96238   0.28279   0.00000  Uiso   1.00
H489   H     0.40912   0.94428   0.22244   0.00000  Uiso   1.00
H490   H     0.42638   0.98127   0.16948   0.00000  Uiso   1.00
H491   H     0.46076   0.93491   0.16479   0.00000  Uiso   1.00
H492   H     0.43024   0.79028   0.07362   0.00000  Uiso   1.00
H493   H     0.39416   0.83548   0.10028   0.00000  Uiso   1.00
H494   H     0.37469   0.79654   0.06253   0.00000  Uiso   1.00
H495   H     0.65721   0.86525   0.00253   0.00000  Uiso   1.00
H496   H     0.33857   0.86315   0.06254   0.00000  Uiso   1.00
H497   H     0.35201   0.90911   0.02221   0.00000  Uiso   1.00
H498   H     0.55545   0.70388   0.28567   0.00000  Uiso   1.00
H499   H     0.44860   0.70682   0.20589   0.00000  Uiso   1.00
H500   H     0.60810   0.78630   0.30878   0.00000  Uiso   1.00
H501   H     0.35880   0.78675   0.30933   0.00000  Uiso   1.00
H502   H     0.39274   0.87900   0.19024   0.00000  Uiso   1.00
H503   H     0.61433   0.83104   0.40907   0.00000  Uiso   1.00
H504   H     0.62996   0.79726   0.48528   0.00000  Uiso   1.00
H505   H     0.47282   0.85092   0.08959   0.00000  Uiso   1.00
I506   I     0.63587   0.90401   0.16704   0.00000  Uiso   1.00
I507   I     0.37197   0.89484   0.39501   0.00000  Uiso   1.00
I508   I     0.57472   0.90136   0.35837   0.00000  Uiso   1.00
N509   N     0.38093   0.83334   0.25001   0.00000  Uiso   1.00
N510   N     0.61906   0.83331   0.25000   0.00000  Uiso   1.00
O511   O     0.46179   0.89442   0.25000   0.00000  Uiso   1.00
O512   O     0.53823   0.89441   0.25000   0.00000  Uiso   1.00
O513   O     0.44280   0.83333   0.32681   0.00000  Uiso   1.00
O514   O     0.51924   0.83332   0.32681   0.00000  Uiso   1.00
O515   O     0.46177   0.77226   0.24999   0.00000  Uiso   1.00
O516   O     0.53821   0.77225   0.24999   0.00000  Uiso   1.00
O517   O     0.48076   0.83335   0.17319   0.00000  Uiso   1.00
O518   O     0.55720   0.83334   0.17319   0.00000  Uiso   1.00
Zn519  Zn    0.44896   0.83334   0.25000   0.00000  Uiso   1.00
Zn520  Zn    0.55104   0.83333   0.25000   0.00000  Uiso   1.00
C521   C     0.83390   0.91337   0.24770   0.00000  Uiso   1.00
C522   C     0.79508   0.85137   0.40687   0.00000  Uiso   1.00
C523   C     0.86568   0.97873   0.26601   0.00000  Uiso   1.00
C524   C     0.80821   0.83991   0.35050   0.00000  Uiso   1.00
C525   C     0.86541   0.68792   0.26758   0.00000  Uiso   1.00
C526   C     0.83424   0.70946   0.24715   0.00000  Uiso   1.00
C527   C     0.80474   0.68915   0.22308   0.00000  Uiso   1.00
C528   C     0.80479   0.97958   0.22082   0.00000  Uiso   1.00
C529   C     0.83463   0.95772   0.24437   0.00000  Uiso   1.00
C530   C     0.96688   0.80714   0.28260   0.00000  Uiso   1.00
C531   C     0.68140   0.80740   0.28290   0.00000  Uiso   1.00
C532   C     0.81224   0.83704   0.48880   0.00000  Uiso   1.00
C533   C     0.70018   0.85895   0.21701   0.00000  Uiso   1.00
C534   C     0.98571   0.85960   0.21740   0.00000  Uiso   1.00
C535   C     0.83341   0.75341   0.24962   0.00000  Uiso   1.00
C536   C     0.85897   0.83188   0.14868   0.00000  Uiso   1.00
C537   C     0.92773   0.80649   0.00832   0.00000  Uiso   1.00
C538   C     0.87264   0.82649   0.09199   0.00000  Uiso   1.00
C539   C     0.74877   0.86405   0.43503   0.00000  Uiso   1.00
C540   C     0.73245   0.85844   0.49024   0.00000  Uiso   1.00
C541   C     0.76219   0.83824   0.01545   0.00000  Uiso   1.00
C542   C     0.77357   0.95870   0.19281   0.00000  Uiso   1.00
C543   C     0.82870   0.84666   0.43448   0.00000  Uiso   1.00
C544   C     0.73934   0.81407   0.06604   0.00000  Uiso   1.00
C545   C     0.68411   0.87459   0.02134   0.00000  Uiso   1.00
C546   C     0.84717   0.82839   0.01389   0.00000  Uiso   1.00
C547   C     0.89455   0.81918   0.48348   0.00000  Uiso   1.00
C548   C     0.91000   0.83058   0.43056   0.00000  Uiso   1.00
C549   C     0.87845   0.85060   0.40951   0.00000  Uiso   1.00
C550   C     0.83854   0.83555   0.06734   0.00000  Uiso   1.00
C551   C     0.91654   0.80982   0.06305   0.00000  Uiso   1.00
H552   H     0.94262   0.80125   0.08223   0.00000  Uiso   1.00
H553   H     0.88951   0.96238   0.28279   0.00000  Uiso   1.00
H554   H     0.74246   0.94428   0.22244   0.00000  Uiso   1.00
H555   H     0.75972   0.98127   0.16948   0.00000  Uiso   1.00
H556   H     0.79409   0.93491   0.16479   0.00000  Uiso   1.00
H557   H     0.76357   0.79028   0.07362   0.00000  Uiso   1.00
H558   H     0.72749   0.83548   0.10028   0.00000  Uiso   1.00
H559   H     0.70802   0.79654   0.06253   0.00000  Uiso   1.00
H560   H     0.99055   0.86525   0.00253   0.00000  Uiso   1.00
H561   H     0.67190   0.86315   0.06254   0.00000  Uiso   1.00
H562   H     0.68534   0.90911   0.02221   0.00000  Uiso   1.00
H563   H     0.88878   0.70388   0.28567   0.00000  Uiso   1.00
H564   H     0.78194   0.70682   0.20589   0.00000  Uiso   1.00
H565   H     0.94144   0.78630   0.30878   0.00000  Uiso   1.00
H566   H     0.69214   0.78675   0.30933   0.00000  Uiso   1.00
H567   H     0.72608   0.87900   0.19024   0.00000  Uiso   1.00
H568   H     0.94766   0.83104   0.40907   0.00000  Uiso   1.00
H569   H     0.96330   0.79726   0.48528   0.00000  Uiso   1.00
H570   H     0.80615   0.85092   0.08959   0.00000  Uiso   1.00
I571   I     0.96921   0.90401   0.16704   0.00000  Uiso   1.00
I572   I     0.70531   0.89484   0.39501   0.00000  Uiso   1.00
I573   I     0.90806   0.90136   0.35837   0.00000  Uiso   1.00
N574   N     0.71426   0.83334   0.25001   0.00000  Uiso   1.00
N575   N     0.95239   0.83331   0.25000   0.00000  Uiso   1.00
O576   O     0.79512   0.89442   0.25000   0.00000  Uiso   1.00
O577   O     0.87157   0.89441   0.25000   0.00000  Uiso   1.00
O578   O     0.77613   0.83333   0.32681   0.00000  Uiso   1.00
O579   O     0.85258   0.83332   0.32681   0.00000  Uiso   1.00
O580   O     0.79510   0.77226   0.24999   0.00000  Uiso   1.00
O581   O     0.87154   0.77225   0.24999   0.00000  Uiso   1.00
O582   O     0.81409   0.83335   0.17319   0.00000  Uiso   1.00
O583   O     0.89053   0.83334   0.17319   0.00000  Uiso   1.00
Zn584  Zn    0.78229   0.83334   0.25000   0.00000  Uiso   1.00
Zn585  Zn    0.88438   0.83333   0.25000   0.00000  Uiso   1.00
C586   C     0.16723   0.24670   0.74770   0.00000  Uiso   1.00
C587   C     0.12841   0.18470   0.90687   0.00000  Uiso   1.00
C588   C     0.19901   0.31206   0.76601   0.00000  Uiso   1.00
C589   C     0.14154   0.17324   0.85050   0.00000  Uiso   1.00
C590   C     0.19874   0.02125   0.76758   0.00000  Uiso   1.00
C591   C     0.16758   0.04279   0.74715   0.00000  Uiso   1.00
C592   C     0.13807   0.02248   0.72308   0.00000  Uiso   1.00
C593   C     0.13812   0.31292   0.72082   0.00000  Uiso   1.00
C594   C     0.16796   0.29105   0.74437   0.00000  Uiso   1.00
C595   C     0.30022   0.14048   0.78260   0.00000  Uiso   1.00
C596   C     0.01474   0.14074   0.78290   0.00000  Uiso   1.00
C597   C     0.14557   0.17037   0.98880   0.00000  Uiso   1.00
C598   C     0.03351   0.19228   0.71701   0.00000  Uiso   1.00
C599   C     0.31904   0.19293   0.71740   0.00000  Uiso   1.00
C600   C     0.16674   0.08674   0.74962   0.00000  Uiso   1.00
C601   C     0.19230   0.16521   0.64868   0.00000  Uiso   1.00
C602   C     0.26107   0.13983   0.50832   0.00000  Uiso   1.00
C603   C     0.20598   0.15982   0.59199   0.00000  Uiso   1.00
C604   C     0.08210   0.19738   0.93503   0.00000  Uiso   1.00
C605   C     0.06578   0.19178   0.99024   0.00000  Uiso   1.00
C606   C     0.09553   0.17157   0.51545   0.00000  Uiso   1.00
C607   C     0.10691   0.29203   0.69281   0.00000  Uiso   1.00
C608   C     0.16203   0.17999   0.93448   0.00000  Uiso   1.00
C609   C     0.07268   0.14741   0.56604   0.00000  Uiso   1.00
C610   C     0.01744   0.20793   0.52134   0.00000  Uiso   1.00
C611   C     0.18050   0.16172   0.51389   0.00000  Uiso   1.00
C612   C     0.22789   0.15251   0.98348   0.00000  Uiso   1.00
C613   C     0.24333   0.16392   0.93056   0.00000  Uiso   1.00
C614   C     0.21178   0.18393   0.90951   0.00000  Uiso   1.00
C615   C     0.17187   0.16888   0.56734   0.00000  Uiso   1.00
C616   C     0.24988   0.14316   0.56305   0.00000  Uiso   1.00
H617   H     0.27596   0.13459   0.58223   0.00000  Uiso   1.00
H618   H     0.22284   0.29572   0.78279   0.00000  Uiso   1.00
H619   H     0.07579   0.27761   0.72244   0.00000  Uiso   1.00
H620   H     0.09305   0.31460   0.66948   0.00000  Uiso   1.00
H621   H     0.12742   0.26824   0.66479   0.00000  Uiso   1.00
H622   H     0.09690   0.12361   0.57362   0.00000  Uiso   1.00
H623   H     0.06083   0.16881   0.60028   0.00000  Uiso   1.00
H624   H     0.04135   0.12988   0.56253   0.00000  Uiso   1.00
H625   H     0.32388   0.19858   0.50253   0.00000  Uiso   1.00
H626   H     0.00523   0.19649   0.56254   0.00000  Uiso   1.00
H627   H     0.01867   0.24245   0.52221   0.00000  Uiso   1.00
H628   H     0.22211   0.03721   0.78567   0.00000  Uiso   1.00
H629   H     0.11527   0.04015   0.70589   0.00000  Uiso   1.00
H630   H     0.27477   0.11964   0.80878   0.00000  Uiso   1.00
H631   H     0.02547   0.12009   0.80933   0.00000  Uiso   1.00
H632   H     0.05941   0.21234   0.69024   0.00000  Uiso   1.00
H633   H     0.28099   0.16437   0.90907   0.00000  Uiso   1.00
H634   H     0.29663   0.13059   0.98528   0.00000  Uiso   1.00
H635   H     0.13948   0.18425   0.58959   0.00000  Uiso   1.00
I636   I     0.30254   0.23735   0.66704   0.00000  Uiso   1.00
I637   I     0.03864   0.22818   0.89501   0.00000  Uiso   1.00
I638   I     0.24139   0.23470   0.85837   0.00000  Uiso   1.00
N639   N     0.04760   0.16668   0.75001   0.00000  Uiso   1.00
N640   N     0.28573   0.16665   0.75000   0.00000  Uiso   1.00
O641   O     0.12846   0.22775   0.75000   0.00000  Uiso   1.00
O642   O     0.20490   0.22774   0.75000   0.00000  Uiso   1.00
O643   O     0.10947   0.16666   0.82681   0.00000  Uiso   1.00
O644   O     0.18591   0.16665   0.82681   0.00000  Uiso   1.00
O645   O     0.12843   0.10559   0.74999   0.00000  Uiso   1.00
O646   O     0.20488   0.10558   0.74999   0.00000  Uiso   1.00
O647   O     0.14742   0.16668   0.67319   0.00000  Uiso   1.00
O648   O     0.22387   0.16667   0.67319   0.00000  Uiso   1.00
Zn649  Zn    0.11562   0.16667   0.75000   0.00000  Uiso   1.00
Zn650  Zn    0.21771   0.16666   0.75000   0.00000  Uiso   1.00
C651   C     0.50057   0.24670   0.74770   0.00000  Uiso   1.00
C652   C     0.46174   0.18470   0.90687   0.00000  Uiso   1.00
C653   C     0.53234   0.31206   0.76601   0.00000  Uiso   1.00
C654   C     0.47487   0.17324   0.85050   0.00000  Uiso   1.00
C655   C     0.53208   0.02125   0.76758   0.00000  Uiso   1.00
C656   C     0.50091   0.04279   0.74715   0.00000  Uiso   1.00
C657   C     0.47141   0.02248   0.72308   0.00000  Uiso   1.00
C658   C     0.47145   0.31292   0.72082   0.00000  Uiso   1.00
C659   C     0.50129   0.29105   0.74437   0.00000  Uiso   1.00
C660   C     0.63355   0.14048   0.78260   0.00000  Uiso   1.00
C661   C     0.34807   0.14074   0.78290   0.00000  Uiso   1.00
C662   C     0.47891   0.17037   0.98880   0.00000  Uiso   1.00
C663   C     0.36685   0.19228   0.71701   0.00000  Uiso   1.00
C664   C     0.65238   0.19293   0.71740   0.00000  Uiso   1.00
C665   C     0.50008   0.08674   0.74962   0.00000  Uiso   1.00
C666   C     0.52564   0.16521   0.64868   0.00000  Uiso   1.00
C667   C     0.59440   0.13983   0.50832   0.00000  Uiso   1.00
C668   C     0.53931   0.15982   0.59199   0.00000  Uiso   1.00
C669   C     0.41543   0.19738   0.93503   0.00000  Uiso   1.00
C670   C     0.39911   0.19178   0.99024   0.00000  Uiso   1.00
C671   C     0.42886   0.17157   0.51545   0.00000  Uiso   1.00
C672   C     0.44024   0.29203   0.69281   0.00000  Uiso   1.00
C673   C     0.49537   0.17999   0.93448   0.00000  Uiso   1.00
C674   C     0.40601   0.14741   0.56604   0.00000  Uiso   1.00
C675   C     0.35078   0.20793   0.52134   0.00000  Uiso   1.00
C676   C     0.51384   0.16172   0.51389   0.00000  Uiso   1.00
C677   C     0.56122   0.15251   0.98348   0.00000  Uiso   1.00
C678   C     0.57666   0.16392   0.93056   0.00000  Uiso   1.00
C679   C     0.54512   0.18393   0.90951   0.00000  Uiso   1.00
C680   C     0.50520   0.16888   0.56734   0.00000  Uiso   1.00
C681   C     0.58321   0.14316   0.56305   0.00000  Uiso   1.00
H682   H     0.60929   0.13459   0.58223   0.00000  Uiso   1.00
H683   H     0.55618   0.29572   0.78279   0.00000  Uiso   1.00
H684   H     0.40912   0.27761   0.72244   0.00000  Uiso   1.00
H685   H     0.42638   0.31460   0.66948   0.00000  Uiso   1.00
H686   H     0.46076   0.26824   0.66479   0.00000  Uiso   1.00
H687   H     0.43024   0.12361   0.57362   0.00000  Uiso   1.00
H688   H     0.39416   0.16881   0.60028   0.00000  Uiso   1.00
H689   H     0.37469   0.12988   0.56253   0.00000  Uiso   1.00
H690   H     0.65721   0.19858   0.50253   0.00000  Uiso   1.00
H691   H     0.33857   0.19649   0.56254   0.00000  Uiso   1.00
H692   H     0.35201   0.24245   0.52221   0.00000  Uiso   1.00
H693   H     0.55545   0.03721   0.78567   0.00000  Uiso   1.00
H694   H     0.44860   0.04015   0.70589   0.00000  Uiso   1.00
H695   H     0.60810   0.11964   0.80878   0.00000  Uiso   1.00
H696   H     0.35880   0.12009   0.80933   0.00000  Uiso   1.00
H697   H     0.39274   0.21234   0.69024   0.00000  Uiso   1.00
H698   H     0.61433   0.16437   0.90907   0.00000  Uiso   1.00
H699   H     0.62996   0.13059   0.98528   0.00000  Uiso   1.00
H700   H     0.47282   0.18425   0.58959   0.00000  Uiso   1.00
I701   I     0.63587   0.23735   0.66704   0.00000  Uiso   1.00
I702   I     0.37197   0.22818   0.89501   0.00000  Uiso   1.00
I703   I     0.57472   0.23470   0.85837   0.00000  Uiso   1.00
N704   N     0.38093   0.16668   0.75001   0.00000  Uiso   1.00
N705   N     0.61906   0.16665   0.75000   0.00000  Uiso   1.00
O706   O     0.46179   0.22775   0.75000   0.00000  Uiso   1.00
O707   O     0.53823   0.22774   0.75000   0.00000  Uiso   1.00
O708   O     0.44280   0.16666   0.82681   0.00000  Uiso   1.00
O709   O     0.51924   0.16665   0.82681   0.00000  Uiso   1.00
O710   O     0.46177   0.10559   0.74999   0.00000  Uiso   1.00
O711   O     0.53821   0.10558   0.74999   0.00000  Uiso   1.00
O712   O     0.48076   0.16668   0.67319   0.00000  Uiso   1.00
O713   O     0.55720   0.16667   0.67319   0.00000  Uiso   1.00
Zn714  Zn    0.44896   0.16667   0.75000   0.00000  Uiso   1.00
Zn715  Zn    0.55104   0.16666   0.75000   0.00000  Uiso   1.00
C716   C     0.83390   0.24670   0.74770   0.00000  Uiso   1.00
C717   C     0.79508   0.18470   0.90687   0.00000  Uiso   1.00
C718   C     0.86568   0.31206   0.76601   0.00000  Uiso   1.00
C719   C     0.80821   0.17324   0.85050   0.00000  Uiso   1.00
C720   C     0.86541   0.02125   0.76758   0.00000  Uiso   1.00
C721   C     0.83424   0.04279   0.74715   0.00000  Uiso   1.00
C722   C     0.80474   0.02248   0.72308   0.00000  Uiso   1.00
C723   C     0.80479   0.31292   0.72082   0.00000  Uiso   1.00
C724   C     0.83463   0.29105   0.74437   0.00000  Uiso   1.00
C725   C     0.96688   0.14048   0.78260   0.00000  Uiso   1.00
C726   C     0.68140   0.14074   0.78290   0.00000  Uiso   1.00
C727   C     0.81224   0.17037   0.98880   0.00000  Uiso   1.00
C728   C     0.70018   0.19228   0.71701   0.00000  Uiso   1.00
C729   C     0.98571   0.19293   0.71740   0.00000  Uiso   1.00
C730   C     0.83341   0.08674   0.74962   0.00000  Uiso   1.00
C731   C     0.85897   0.16521   0.64868   0.00000  Uiso   1.00
C732   C     0.92773   0.13983   0.50832   0.00000  Uiso   1.00
C733   C     0.87264   0.15982   0.59199   0.00000  Uiso   1.00
C734   C     0.74877   0.19738   0.93503   0.00000  Uiso   1.00
C735   C     0.73245   0.19178   0.99024   0.00000  Uiso   1.00
C736   C     0.76219   0.17157   0.51545   0.00000  Uiso   1.00
C737   C     0.77357   0.29203   0.69281   0.00000  Uiso   1.00
C738   C     0.82870   0.17999   0.93448   0.00000  Uiso   1.00
C739   C     0.73934   0.14741   0.56604   0.00000  Uiso   1.00
C740   C     0.68411   0.20793   0.52134   0.00000  Uiso   1.00
C741   C     0.84717   0.16172   0.51389   0.00000  Uiso   1.00
C742   C     0.89455   0.15251   0.98348   0.00000  Uiso   1.00
C743   C     0.91000   0.16392   0.93056   0.00000  Uiso   1.00
C744   C     0.87845   0.18393   0.90951   0.00000  Uiso   1.00
C745   C     0.83854   0.16888   0.56734   0.00000  Uiso   1.00
C746   C     0.91654   0.14316   0.56305   0.00000  Uiso   1.00
H747   H     0.94262   0.13459   0.58223   0.00000  Uiso   1.00
H748   H     0.88951   0.29572   0.78279   0.00000  Uiso   1.00
H749   H     0.74246   0.27761   0.72244   0.00000  Uiso   1.00
H750   H     0.75972   0.31460   0.66948   0.00000  Uiso   1.00
H751   H     0.79409   0.26824   0.66479   0.00000  Uiso   1.00
H752   H     0.76357   0.12361   0.57362   0.00000  Uiso   1.00
H753   H     0.72749   0.16881   0.60028   0.00000  Uiso   1.00
H754   H     0.70802   0.12988   0.56253   0.00000  Uiso   1.00
H755   H     0.99055   0.19858   0.50253   0.00000  Uiso   1.00
H756   H     0.67190   0.19649   0.56254   0.00000  Uiso   1.00
H757   H     0.68534   0.24245   0.52221   0.00000  Uiso   1.00
H758   H     0.88878   0.03721   0.78567   0.00000  Uiso   1.00
H759   H     0.78194   0.04015   0.70589   0.00000  Uiso   1.00
H760   H     0.94144   0.11964   0.80878   0.00000  Uiso   1.00
H761   H     0.69214   0.12009   0.80933   0.00000  Uiso   1.00
H762   H     0.72608   0.21234   0.69024   0.00000  Uiso   1.00
H763   H     0.94766   0.16437   0.90907   0.00000  Uiso   1.00
H764   H     0.96330   0.13059   0.98528   0.00000  Uiso   1.00
H765   H     0.80615   0.18425   0.58959   0.00000  Uiso   1.00
I766   I     0.96921   0.23735   0.66704   0.00000  Uiso   1.00
I767   I     0.70531   0.22818   0.89501   0.00000  Uiso   1.00
I768   I     0.90806   0.23470   0.85837   0.00000  Uiso   1.00
N769   N     0.71426   0.16668   0.75001   0.00000  Uiso   1.00
N770   N     0.95239   0.16665   0.75000   0.00000  Uiso   1.00
O771   O     0.79512   0.22775   0.75000   0.00000  Uiso   1.00
O772   O     0.87157   0.22774   0.75000   0.00000  Uiso   1.00
O773   O     0.77613   0.16666   0.82681   0.00000  Uiso   1.00
O774   O     0.85258   0.16665   0.82681   0.00000  Uiso   1.00
O775   O     0.79510   0.10559   0.74999   0.00000  Uiso   1.00
O776   O     0.87154   0.10558   0.74999   0.00000  Uiso   1.00
O777   O     0.81409   0.16668   0.67319   0.00000  Uiso   1.00
O778   O     0.89053   0.16667   0.67319   0.00000  Uiso   1.00
Zn779  Zn    0.78229   0.16667   0.75000   0.00000  Uiso   1.00
Zn780  Zn    0.88438   0.16666   0.75000   0.00000  Uiso   1.00
C781   C     0.16723   0.58004   0.74770   0.00000  Uiso   1.00
C782   C     0.12841   0.51803   0.90687   0.00000  Uiso   1.00
C783   C     0.19901   0.64540   0.76601   0.00000  Uiso   1.00
C784   C     0.14154   0.50657   0.85050   0.00000  Uiso   1.00
C785   C     0.19874   0.35459   0.76758   0.00000  Uiso   1.00
C786   C     0.16758   0.37613   0.74715   0.00000  Uiso   1.00
C787   C     0.13807   0.35582   0.72308   0.00000  Uiso   1.00
C788   C     0.13812   0.64625   0.72082   0.00000  Uiso   1.00
C789   C     0.16796   0.62439   0.74437   0.00000  Uiso   1.00
C790   C     0.30022   0.47381   0.78260   0.00000  Uiso   1.00
C791   C     0.01474   0.47407   0.78290   0.00000  Uiso   1.00
C792   C     0.14557   0.50370   0.98880   0.00000  Uiso   1.00
C793   C     0.03351   0.52562   0.71701   0.00000  Uiso   1.00
C794   C     0.31904   0.52626   0.71740   0.00000  Uiso   1.00
C795   C     0.16674   0.42008   0.74962   0.00000  Uiso   1.00
C796   C     0.19230   0.49855   0.64868   0.00000  Uiso   1.00
C797   C     0.26107   0.47316   0.50832   0.00000  Uiso   1.00
C798   C     0.20598   0.49316   0.59199   0.00000  Uiso   1.00
C799   C     0.08210   0.53071   0.93503   0.00000  Uiso   1.00
C800   C     0.06578   0.52511   0.99024   0.00000  Uiso   1.00
C801   C     0.09553   0.50491   0.51545   0.00000  Uiso   1.00
C802   C     0.10691   0.62536   0.69281   0.00000  Uiso   1.00
C803   C     0.16203   0.51332   0.93448   0.00000  Uiso   1.00
C804   C     0.07268   0.48074   0.56604   0.00000  Uiso   1.00
C805   C     0.01744   0.54126   0.52134   0.00000  Uiso   1.00
C806   C     0.18050   0.49505   0.51389   0.00000  Uiso   1.00
C807   C     0.22789   0.48585   0.98348   0.00000  Uiso   1.00
C808   C     0.24333   0.49725   0.93056   0.00000  Uiso   1.00
C809   C     0.21178   0.51726   0.90951   0.00000  Uiso   1.00
C810   C     0.17187   0.50222   0.56734   0.00000  Uiso   1.00
C811   C     0.24988   0.47649   0.56305   0.00000  Uiso   1.00
H812   H     0.27596   0.46792   0.58223   0.00000  Uiso   1.00
H813   H     0.22284   0.62905   0.78279   0.00000  Uiso   1.00
H814   H     0.07579   0.61095   0.72244   0.00000  Uiso   1.00
H815   H     0.09305   0.64794   0.66948   0.00000  Uiso   1.00
H816   H     0.12742   0.60158   0.66479   0.00000  Uiso   1.00
H817   H     0.09690   0.45694   0.57362   0.00000  Uiso   1.00
H818   H     0.06083   0.50215   0.60028   0.00000  Uiso   1.00
H819   H     0.04135   0.46321   0.56253   0.00000  Uiso   1.00
H820   H     0.32388   0.53191   0.50253   0.00000  Uiso   1.00
H821   H     0.00523   0.52982   0.56254   0.00000  Uiso   1.00
H822   H     0.01867   0.57578   0.52221   0.00000  Uiso   1.00
H823   H     0.22211   0.37055   0.78567   0.00000  Uiso   1.00
H824   H     0.11527   0.37349   0.70589   0.00000  Uiso   1.00
H825   H     0.27477   0.45297   0.80878   0.00000  Uiso   1.00
H826   H     0.02547   0.45342   0.80933   0.00000  Uiso   1.00
H827   H     0.05941   0.54567   0.69024   0.00000  Uiso   1.00
H828   H     0.28099   0.49771   0.90907   0.00000  Uiso   1.00
H829   H     0.29663   0.46392   0.98528   0.00000  Uiso   1.00
H830   H     0.13948   0.51758   0.58959   0.00000  Uiso   1.00
I831   I     0.30254   0.57068   0.66704   0.00000  Uiso   1.00
I832   I     0.03864   0.56151   0.89501   0.00000  Uiso   1.00
I833   I     0.24139   0.56803   0.85837   0.00000  Uiso   1.00
N834   N     0.04760   0.50001   0.75001   0.00000  Uiso   1.00
N835   N     0.28573   0.49998   0.75000   0.00000  Uiso   1.00
O836   O     0.12846   0.56108   0.75000   0.00000  Uiso   1.00
O837   O     0.20490   0.56107   0.75000   0.00000  Uiso   1.00
O838   O     0.10947   0.50000   0.82681   0.00000  Uiso   1.00
O839   O     0.18591   0.49999   0.82681   0.00000  Uiso   1.00
O840   O     0.12843   0.43893   0.74999   0.00000  Uiso   1.00
O841   O     0.20488   0.43892   0.74999   0.00000  Uiso   1.00
O842   O     0.14742   0.50001   0.67319   0.00000  Uiso   1.00
O843   O     0.22387   0.50000   0.67319   0.00000  Uiso   1.00
Zn844  Zn    0.11562   0.50001   0.75000   0.00000  Uiso   1.00
Zn845  Zn    0.21771   0.49999   0.75000   0.00000  Uiso   1.00
C846   C     0.50057   0.58004   0.74770   0.00000  Uiso   1.00
C847   C     0.46174   0.51803   0.90687   0.00000  Uiso   1.00
C848   C     0.53234   0.64540   0.76601   0.00000  Uiso   1.00
C849   C     0.47487   0.50657   0.85050   0.00000  Uiso   1.00
C850   C     0.53208   0.35459   0.76758   0.00000  Uiso   1.00
C851   C     0.50091   0.37613   0.74715   0.00000  Uiso   1.00
C852   C     0.47141   0.35582   0.72308   0.00000  Uiso   1.00
C853   C     0.47145   0.64625   0.72082   0.00000  Uiso   1.00
C854   C     0.50129   0.62439   0.74437   0.00000  Uiso   1.00
C855   C     0.63355   0.47381   0.78260   0.00000  Uiso   1.00
C856   C     0.34807   0.47407   0.78290   0.00000  Uiso   1.00
C857   C     0.47891   0.50370   0.98880   0.00000  Uiso   1.00
C858   C     0.36685   0.52562   0.71701   0.00000  Uiso   1.00
C859   C     0.65238   0.52626   0.71740   0.00000  Uiso   1.00
C860   C     0.50008   0.42008   0.74962   0.00000  Uiso   1.00
C861   C     0.52564   0.49855   0.64868   0.00000  Uiso   1.00
C862   C     0.59440   0.47316   0.50832   0.00000  Uiso   1.00
C863   C     0.53931   0.49316   0.59199   0.00000  Uiso   1.00
C864   C     0.41543   0.53071   0.93503   0.00000  Uiso   1.00
C865   C     0.39911   0.52511   0.99024   0.00000  Uiso   1.00
C866   C     0.42886   0.50491   0.51545   0.00000  Uiso   1.00
C867   C     0.44024   0.62536   0.69281   0.00000  Uiso   1.00
C868   C     0.49537   0.51332   0.93448   0.00000  Uiso   1.00
C869   C     0.40601   0.48074   0.56604   0.00000  Uiso   1.00
C870   C     0.35078   0.54126   0.52134   0.00000  Uiso   1.00
C871   C     0.51384   0.49505   0.51389   0.00000  Uiso   1.00
C872   C     0.56122   0.48585   0.98348   0.00000  Uiso   1.00
C873   C     0.57666   0.49725   0.93056   0.00000  Uiso   1.00
C874   C     0.54512   0.51726   0.90951   0.00000  Uiso   1.00
C875   C     0.50520   0.50222   0.56734   0.00000  Uiso   1.00
C876   C     0.58321   0.47649   0.56305   0.00000  Uiso   1.00
H877   H     0.60929   0.46792   0.58223   0.00000  Uiso   1.00
H878   H     0.55618   0.62905   0.78279   0.00000  Uiso   1.00
H879   H     0.40912   0.61095   0.72244   0.00000  Uiso   1.00
H880   H     0.42638   0.64794   0.66948   0.00000  Uiso   1.00
H881   H     0.46076   0.60158   0.66479   0.00000  Uiso   1.00
H882   H     0.43024   0.45694   0.57362   0.00000  Uiso   1.00
H883   H     0.39416   0.50215   0.60028   0.00000  Uiso   1.00
H884   H     0.37469   0.46321   0.56253   0.00000  Uiso   1.00
H885   H     0.65721   0.53191   0.50253   0.00000  Uiso   1.00
H886   H     0.33857   0.52982   0.56254   0.00000  Uiso   1.00
H887   H     0.35201   0.57578   0.52221   0.00000  Uiso   1.00
H888   H     0.55545   0.37055   0.78567   0.00000  Uiso   1.00
H889   H     0.44860   0.37349   0.70589   0.00000  Uiso   1.00
H890   H     0.60810   0.45297   0.80878   0.00000  Uiso   1.00
H891   H     0.35880   0.45342   0.80933   0.00000  Uiso   1.00
H892   H     0.39274   0.54567   0.69024   0.00000  Uiso   1.00
H893   H     0.61433   0.49771   0.90907   0.00000  Uiso   1.00
H894   H     0.62996   0.46392   0.98528   0.00000  Uiso   1.00
H895   H     0.47282   0.51758   0.58959   0.00000  Uiso   1.00
I896   I     0.63587   0.57068   0.66704   0.00000  Uiso   1.00
I897   I     0.37197   0.56151   0.89501   0.00000  Uiso   1.00
I898   I     0.57472   0.56803   0.85837   0.00000  Uiso   1.00
N899   N     0.38093   0.50001   0.75001   0.00000  Uiso   1.00
N900   N     0.61906   0.49998   0.75000   0.00000  Uiso   1.00
O901   O     0.46179   0.56108   0.75000   0.00000  Uiso   1.00
O902   O     0.53823   0.56107   0.75000   0.00000  Uiso   1.00
O903   O     0.44280   0.50000   0.82681   0.00000  Uiso   1.00
O904   O     0.51924   0.49999   0.82681   0.00000  Uiso   1.00
O905   O     0.46177   0.43893   0.74999   0.00000  Uiso   1.00
O906   O     0.53821   0.43892   0.74999   0.00000  Uiso   1.00
O907   O     0.48076   0.50001   0.67319   0.00000  Uiso   1.00
O908   O     0.55720   0.50000   0.67319   0.00000  Uiso   1.00
Zn909  Zn    0.44896   0.50001   0.75000   0.00000  Uiso   1.00
Zn910  Zn    0.55104   0.49999   0.75000   0.00000  Uiso   1.00
C911   C     0.83390   0.58004   0.74770   0.00000  Uiso   1.00
C912   C     0.79508   0.51803   0.90687   0.00000  Uiso   1.00
C913   C     0.86568   0.64540   0.76601   0.00000  Uiso   1.00
C914   C     0.80821   0.50657   0.85050   0.00000  Uiso   1.00
C915   C     0.86541   0.35459   0.76758   0.00000  Uiso   1.00
C916   C     0.83424   0.37613   0.74715   0.00000  Uiso   1.00
C917   C     0.80474   0.35582   0.72308   0.00000  Uiso   1.00
C918   C     0.80479   0.64625   0.72082   0.00000  Uiso   1.00
C919   C     0.83463   0.62439   0.74437   0.00000  Uiso   1.00
C920   C     0.96688   0.47381   0.78260   0.00000  Uiso   1.00
C921   C     0.68140   0.47407   0.78290   0.00000  Uiso   1.00
C922   C     0.81224   0.50370   0.98880   0.00000  Uiso   1.00
C923   C     0.70018   0.52562   0.71701   0.00000  Uiso   1.00
C924   C     0.98571   0.52626   0.71740   0.00000  Uiso   1.00
C925   C     0.83341   0.42008   0.74962   0.00000  Uiso   1.00
C926   C     0.85897   0.49855   0.64868   0.00000  Uiso   1.00
C927   C     0.92773   0.47316   0.50832   0.00000  Uiso   1.00
C928   C     0.87264   0.49316   0.59199   0.00000  Uiso   1.00
C929   C     0.74877   0.53071   0.93503   0.00000  Uiso   1.00
C930   C     0.73245   0.52511   0.99024   0.00000  Uiso   1.00
C931   C     0.76219   0.50491   0.51545   0.00000  Uiso   1.00
C932   C     0.77357   0.62536   0.69281   0.00000  Uiso   1.00
C933   C     0.82870   0.51332   0.93448   0.00000  Uiso   1.00
C934   C     0.73934   0.48074   0.56604   0.00000  Uiso   1.00
C935   C     0.68411   0.54126   0.52134   0.00000  Uiso   1.00
C936   C     0.84717   0.49505   0.51389   0.00000  Uiso   1.00
C937   C     0.89455   0.48585   0.98348   0.00000  Uiso   1.00
C938   C     0.91000   0.49725   0.93056   0.00000  Uiso   1.00
C939   C     0.87845   0.51726   0.90951   0.00000  Uiso   1.00
C940   C     0.83854   0.50222   0.56734   0.00000  Uiso   1.00
C941   C     0.91654   0.47649   0.56305   0.00000  Uiso   1.00
H942   H     0.94262   0.46792   0.58223   0.00000  Uiso   1.00
H943   H     0.88951   0.62905   0.78279   0.00000  Uiso   1.00
H944   H     0.74246   0.61095   0.72244   0.00000  Uiso   1.00
H945   H     0.75972   0.64794   0.66948   0.00000  Uiso   1.00
H946   H     0.79409   0.60158   0.66479   0.00000  Uiso   1.00
H947   H     0.76357   0.45694   0.57362   0.00000  Uiso   1.00
H948   H     0.72749   0.50215   0.60028   0.00000  Uiso   1.00
H949   H     0.70802   0.46321   0.56253   0.00000  Uiso   1.00
H950   H     0.99055   0.53191   0.50253   0.00000  Uiso   1.00
H951   H     0.67190   0.52982   0.56254   0.00000  Uiso   1.00
H952   H     0.68534   0.57578   0.52221   0.00000  Uiso   1.00
H953   H     0.88878   0.37055   0.78567   0.00000  Uiso   1.00
H954   H     0.78194   0.37349   0.70589   0.00000  Uiso   1.00
H955   H     0.94144   0.45297   0.80878   0.00000  Uiso   1.00
H956   H     0.69214   0.45342   0.80933   0.00000  Uiso   1.00
H957   H     0.72608   0.54567   0.69024   0.00000  Uiso   1.00
H958   H     0.94766   0.49771   0.90907   0.00000  Uiso   1.00
H959   H     0.96330   0.46392   0.98528   0.00000  Uiso   1.00
H960   H     0.80615   0.51758   0.58959   0.00000  Uiso   1.00
I961   I     0.96921   0.57068   0.66704   0.00000  Uiso   1.00
I962   I     0.70531   0.56151   0.89501   0.00000  Uiso   1.00
I963   I     0.90806   0.56803   0.85837   0.00000  Uiso   1.00
N964   N     0.71426   0.50001   0.75001   0.00000  Uiso   1.00
N965   N     0.95239   0.49998   0.75000   0.00000  Uiso   1.00
O966   O     0.79512   0.56108   0.75000   0.00000  Uiso   1.00
O967   O     0.87157   0.56107   0.75000   0.00000  Uiso   1.00
O968   O     0.77613   0.50000   0.82681   0.00000  Uiso   1.00
O969   O     0.85258   0.49999   0.82681   0.00000  Uiso   1.00
O970   O     0.79510   0.43893   0.74999   0.00000  Uiso   1.00
O971   O     0.87154   0.43892   0.74999   0.00000  Uiso   1.00
O972   O     0.81409   0.50001   0.67319   0.00000  Uiso   1.00
O973   O     0.89053   0.50000   0.67319   0.00000  Uiso   1.00
Zn974  Zn    0.78229   0.50001   0.75000   0.00000  Uiso   1.00
Zn975  Zn    0.88438   0.49999   0.75000   0.00000  Uiso   1.00
C976   C     0.16723   0.91337   0.74770   0.00000  Uiso   1.00
C977   C     0.12841   0.85137   0.90687   0.00000  Uiso   1.00
C978   C     0.19901   0.97873   0.76601   0.00000  Uiso   1.00
C979   C     0.14154   0.83991   0.85050   0.00000  Uiso   1.00
C980   C     0.19874   0.68792   0.76758   0.00000  Uiso   1.00
C981   C     0.16758   0.70946   0.74715   0.00000  Uiso   1.00
C982   C     0.13807   0.68915   0.72308   0.00000  Uiso   1.00
C983   C     0.13812   0.97958   0.72082   0.00000  Uiso   1.00
C984   C     0.16796   0.95772   0.74437   0.00000  Uiso   1.00
C985   C     0.30022   0.80714   0.78260   0.00000  Uiso   1.00
C986   C     0.01474   0.80740   0.78290   0.00000  Uiso   1.00
C987   C     0.14557   0.83704   0.98880   0.00000  Uiso   1.00
C988   C     0.03351   0.85895   0.71701   0.00000  Uiso   1.00
C989   C     0.31904   0.85960   0.71740   0.00000  Uiso   1.00
C990   C     0.16674   0.75341   0.74962   0.00000  Uiso   1.00
C991   C     0.19230   0.83188   0.64868   0.00000  Uiso   1.00
C992   C     0.26107   0.80649   0.50832   0.00000  Uiso   1.00
C993   C     0.20598   0.82649   0.59199   0.00000  Uiso   1.00
C994   C     0.08210   0.86405   0.93503   0.00000  Uiso   1.00
C995   C     0.06578   0.85844   0.99024   0.00000  Uiso   1.00
C996   C     0.09553   0.83824   0.51545   0.00000  Uiso   1.00
C997   C     0.10691   0.95870   0.69281   0.00000  Uiso   1.00
C998   C     0.16203   0.84666   0.93448   0.00000  Uiso   1.00
C999   C     0.07268   0.81407   0.56604   0.00000  Uiso   1.00
C1000  C     0.01744   0.87459   0.52134   0.00000  Uiso   1.00
C1001  C     0.18050   0.82839   0.51389   0.00000  Uiso   1.00
C1002  C     0.22789   0.81918   0.98348   0.00000  Uiso   1.00
C1003  C     0.24333   0.83058   0.93056   0.00000  Uiso   1.00
C1004  C     0.21178   0.85060   0.90951   0.00000  Uiso   1.00
C1005  C     0.17187   0.83555   0.56734   0.00000  Uiso   1.00
C1006  C     0.24988   0.80982   0.56305   0.00000  Uiso   1.00
H1007  H     0.27596   0.80125   0.58223   0.00000  Uiso   1.00
H1008  H     0.22284   0.96238   0.78279   0.00000  Uiso   1.00
H1009  H     0.07579   0.94428   0.72244   0.00000  Uiso   1.00
H1010  H     0.09305   0.98127   0.66948   0.00000  Uiso   1.00
H1011  H     0.12742   0.93491   0.66479   0.00000  Uiso   1.00
H1012  H     0.09690   0.79028   0.57362   0.00000  Uiso   1.00
H1013  H     0.06083   0.83548   0.60028   0.00000  Uiso   1.00
H1014  H     0.04135   0.79654   0.56253   0.00000  Uiso   1.00
H1015  H     0.32388   0.86525   0.50253   0.00000  Uiso   1.00
H1016  H     0.00523   0.86315   0.56254   0.00000  Uiso   1.00
H1017  H     0.01867   0.90911   0.52221   0.00000  Uiso   1.00
H1018  H     0.22211   0.70388   0.78567   0.00000  Uiso   1.00
H1019  H     0.11527   0.70682   0.70589   0.00000  Uiso   1.00
H1020  H     0.27477   0.78630   0.80878   0.00000  Uiso   1.00
H1021  H     0.02547   0.78675   0.80933   0.00000  Uiso   1.00
H1022  H     0.05941   0.87900   0.69024   0.00000  Uiso   1.00
H1023  H     0.28099   0.83104   0.90907   0.00000  Uiso   1.00
H1024  H     0.29663   0.79726   0.98528   0.00000  Uiso   1.00
H1025  H     0.13948   0.85092   0.58959   0.00000  Uiso   1.00
I1026  I     0.30254   0.90401   0.66704   0.00000  Uiso   1.00
I1027  I     0.03864   0.89484   0.89501   0.00000  Uiso   1.00
I1028  I     0.24139   0.90136   0.85837   0.00000  Uiso   1.00
N1029  N     0.04760   0.83334   0.75001   0.00000  Uiso   1.00
N1030  N     0.28573   0.83331   0.75000   0.00000  Uiso   1.00
O1031  O     0.12846   0.89442   0.75000   0.00000  Uiso   1.00
O1032  O     0.20490   0.89441   0.75000   0.00000  Uiso   1.00
O1033  O     0.10947   0.83333   0.82681   0.00000  Uiso   1.00
O1034  O     0.18591   0.83332   0.82681   0.00000  Uiso   1.00
O1035  O     0.12843   0.77226   0.74999   0.00000  Uiso   1.00
O1036  O     0.20488   0.77225   0.74999   0.00000  Uiso   1.00
O1037  O     0.14742   0.83335   0.67319   0.00000  Uiso   1.00
O1038  O     0.22387   0.83334   0.67319   0.00000  Uiso   1.00
Zn1039 Zn    0.11562   0.83334   0.75000   0.00000  Uiso   1.00
Zn1040 Zn    0.21771   0.83333   0.75000   0.00000  Uiso   1.00
C1041  C     0.50057   0.91337   0.74770   0.00000  Uiso   1.00
C1042  C     0.46174   0.85137   0.90687   0.00000  Uiso   1.00
C1043  C     0.53234   0.97873   0.76601   0.00000  Uiso   1.00
C1044  C     0.47487   0.83991   0.85050   0.00000  Uiso   1.00
C1045  C     0.53208   0.68792   0.76758   0.00000  Uiso   1.00
C1046  C     0.50091   0.70946   0.74715   0.00000  Uiso   1.00
C1047  C     0.47141   0.68915   0.72308   0.00000  Uiso   1.00
C1048  C     0.47145   0.97958   0.72082   0.00000  Uiso   1.00
C1049  C     0.50129   0.95772   0.74437   0.00000  Uiso   1.00
C1050  C     0.63355   0.80714   0.78260   0.00000  Uiso   1.00
C1051  C     0.34807   0.80740   0.78290   0.00000  Uiso   1.00
C1052  C     0.47891   0.83704   0.98880   0.00000  Uiso   1.00
C1053  C     0.36685   0.85895   0.71701   0.00000  Uiso   1.00
C1054  C     0.65238   0.85960   0.71740   0.00000  Uiso   1.00
C1055  C     0.50008   0.75341   0.74962   0.00000  Uiso   1.00
C1056  C     0.52564   0.83188   0.64868   0.00000  Uiso   1.00
C1057  C     0.59440   0.80649   0.50832   0.00000  Uiso   1.00
C1058  C     0.53931   0.82649   0.59199   0.00000  Uiso   1.00
C1059  C     0.41543   0.86405   0.93503   0.00000  Uiso   1.00
C1060  C     0.39911   0.85844   0.99024   0.00000  Uiso   1.00
C1061  C     0.42886   0.83824   0.51545   0.00000  Uiso   1.00
C1062  C     0.44024   0.95870   0.69281   0.00000  Uiso   1.00
C1063  C     0.49537   0.84666   0.93448   0.00000  Uiso   1.00
C1064  C     0.40601   0.81407   0.56604   0.00000  Uiso   1.00
C1065  C     0.35078   0.87459   0.52134   0.00000  Uiso   1.00
C1066  C     0.51384   0.82839   0.51389   0.00000  Uiso   1.00
C1067  C     0.56122   0.81918   0.98348   0.00000  Uiso   1.00
C1068  C     0.57666   0.83058   0.93056   0.00000  Uiso   1.00
C1069  C     0.54512   0.85060   0.90951   0.00000  Uiso   1.00
C1070  C     0.50520   0.83555   0.56734   0.00000  Uiso   1.00
C1071  C     0.58321   0.80982   0.56305   0.00000  Uiso   1.00
H1072  H     0.60929   0.80125   0.58223   0.00000  Uiso   1.00
H1073  H     0.55618   0.96238   0.78279   0.00000  Uiso   1.00
H1074  H     0.40912   0.94428   0.72244   0.00000  Uiso   1.00
H1075  H     0.42638   0.98127   0.66948   0.00000  Uiso   1.00
H1076  H     0.46076   0.93491   0.66479   0.00000  Uiso   1.00
H1077  H     0.43024   0.79028   0.57362   0.00000  Uiso   1.00
H1078  H     0.39416   0.83548   0.60028   0.00000  Uiso   1.00
H1079  H     0.37469   0.79654   0.56253   0.00000  Uiso   1.00
H1080  H     0.65721   0.86525   0.50253   0.00000  Uiso   1.00
H1081  H     0.33857   0.86315   0.56254   0.00000  Uiso   1.00
H1082  H     0.35201   0.90911   0.52221   0.00000  Uiso   1.00
H1083  H     0.55545   0.70388   0.78567   0.00000  Uiso   1.00
H1084  H     0.44860   0.70682   0.70589   0.00000  Uiso   1.00
H1085  H     0.60810   0.78630   0.80878   0.00000  Uiso   1.00
H1086  H     0.35880   0.78675   0.80933   0.00000  Uiso   1.00
H1087  H     0.39274   0.87900   0.69024   0.00000  Uiso   1.00
H1088  H     0.61433   0.83104   0.90907   0.00000  Uiso   1.00
H1089  H     0.62996   0.79726   0.98528   0.00000  Uiso   1.00
H1090  H     0.47282   0.85092   0.58959   0.00000  Uiso   1.00
I1091  I     0.63587   0.90401   0.66704   0.00000  Uiso   1.00
I1092  I     0.37197   0.89484   0.89501   0.00000  Uiso   1.00
I1093  I     0.57472   0.90136   0.85837   0.00000  Uiso   1.00
N1094  N     0.38093   0.83334   0.75001   0.00000  Uiso   1.00
N1095  N     0.61906   0.83331   0.75000   0.00000  Uiso   1.00
O1096  O     0.46179   0.89442   0.75000   0.00000  Uiso   1.00
O1097  O     0.53823   0.89441   0.75000   0.00000  Uiso   1.00
O1098  O     0.44280   0.83333   0.82681   0.00000  Uiso   1.00
O1099  O     0.51924   0.83332   0.82681   0.00000  Uiso   1.00
O1100  O     0.46177   0.77226   0.74999   0.00000  Uiso   1.00
O1101  O     0.53821   0.77225   0.74999   0.00000  Uiso   1.00
O1102  O     0.48076   0.83335   0.67319   0.00000  Uiso   1.00
O1103  O     0.55720   0.83334   0.67319   0.00000  Uiso   1.00
Zn1104 Zn    0.44896   0.83334   0.75000   0.00000  Uiso   1.00
Zn1105 Zn    0.55104   0.83333   0.75000   0.00000  Uiso   1.00
C1106  C     0.83390   0.91337   0.74770   0.00000  Uiso   1.00
C1107  C     0.79508   0.85137   0.90687   0.00000  Uiso   1.00
C1108  C     0.86568   0.97873   0.76601   0.00000  Uiso   1.00
C1109  C     0.80821   0.83991   0.85050   0.00000  Uiso   1.00
C1110  C     0.86541   0.68792   0.76758   0.00000  Uiso   1.00
C1111  C     0.83424   0.70946   0.74715   0.00000  Uiso   1.00
C1112  C     0.80474   0.68915   0.72308   0.00000  Uiso   1.00
C1113  C     0.80479   0.97958   0.72082   0.00000  Uiso   1.00
C1114  C     0.83463   0.95772   0.74437   0.00000  Uiso   1.00
C1115  C     0.96688   0.80714   0.78260   0.00000  Uiso   1.00
C1116  C     0.68140   0.80740   0.78290   0.00000  Uiso   1.00
C1117  C     0.81224   0.83704   0.98880   0.00000  Uiso   1.00
C1118  C     0.70018   0.85895   0.71701   0.00000  Uiso   1.00
C1119  C     0.98571   0.85960   0.71740   0.00000  Uiso   1.00
C1120  C     0.83341   0.75341   0.74962   0.00000  Uiso   1.00
C1121  C     0.85897   0.83188   0.64868   0.00000  Uiso   1.00
C1122  C     0.92773   0.80649   0.50832   0.00000  Uiso   1.00
C1123  C     0.87264   0.82649   0.59199   0.00000  Uiso   1.00
C1124  C     0.74877   0.86405   0.93503   0.00000  Uiso   1.00
C1125  C     0.73245   0.85844   0.99024   0.00000  Uiso   1.00
C1126  C     0.76219   0.83824   0.51545   0.00000  Uiso   1.00
C1127  C     0.77357   0.95870   0.69281   0.00000  Uiso   1.00
C1128  C     0.82870   0.84666   0.93448   0.00000  Uiso   1.00
C1129  C     0.73934   0.81407   0.56604   0.00000  Uiso   1.00
C1130  C     0.68411   0.87459   0.52134   0.00000  Uiso   1.00
C1131  C     0.84717   0.82839   0.51389   0.00000  Uiso   1.00
C1132  C     0.89455   0.81918   0.98348   0.00000  Uiso   1.00
C1133  C     0.91000   0.83058   0.93056   0.00000  Uiso   1.00
C1134  C     0.87845   0.85060   0.90951   0.00000  Uiso   1.00
C1135  C     0.83854   0.83555   0.56734   0.00000  Uiso   1.00
C1136  C     0.91654   0.80982   0.56305   0.00000  Uiso   1.00
H1137  H     0.94262   0.80125   0.58223   0.00000  Uiso   1.00
H1138  H     0.88951   0.96238   0.78279   0.00000  Uiso   1.00
H1139  H     0.74246   0.94428   0.72244   0.00000  Uiso   1.00
H1140  H     0.75972   0.98127   0.66948   0.00000  Uiso   1.00
H1141  H     0.79409   0.93491   0.66479   0.00000  Uiso   1.00
H1142  H     0.76357   0.79028   0.57362   0.00000  Uiso   1.00
H1143  H     0.72749   0.83548   0.60028   0.00000  Uiso   1.00
H1144  H     0.70802   0.79654   0.56253   0.00000  Uiso   1.00
H1145  H     0.99055   0.86525   0.50253   0.00000  Uiso   1.00
H1146  H     0.67190   0.86315   0.56254   0.00000  Uiso   1.00
H1147  H     0.68534   0.90911   0.52221   0.00000  Uiso   1.00
H1148  H     0.88878   0.70388   0.78567   0.00000  Uiso   1.00
H1149  H     0.78194   0.70682   0.70589   0.00000  Uiso   1.00
H1150  H     0.94144   0.78630   0.80878   0.00000  Uiso   1.00
H1151  H     0.69214   0.78675   0.80933   0.00000  Uiso   1.00
H1152  H     0.72608   0.87900   0.69024   0.00000  Uiso   1.00
H1153  H     0.94766   0.83104   0.90907   0.00000  Uiso   1.00
H1154  H     0.96330   0.79726   0.98528   0.00000  Uiso   1.00
H1155  H     0.80615   0.85092   0.58959   0.00000  Uiso   1.00
I1156  I     0.96921   0.90401   0.66704   0.00000  Uiso   1.00
I1157  I     0.70531   0.89484   0.89501   0.00000  Uiso   1.00
I1158  I     0.90806   0.90136   0.85837   0.00000  Uiso   1.00
N1159  N     0.71426   0.83334   0.75001   0.00000  Uiso   1.00
N1160  N     0.95239   0.83331   0.75000   0.00000  Uiso   1.00
O1161  O     0.79512   0.89442   0.75000   0.00000  Uiso   1.00
O1162  O     0.87157   0.89441   0.75000   0.00000  Uiso   1.00
O1163  O     0.77613   0.83333   0.82681   0.00000  Uiso   1.00
O1164  O     0.85258   0.83332   0.82681   0.00000  Uiso   1.00
O1165  O     0.79510   0.77226   0.74999   0.00000  Uiso   1.00
O1166  O     0.87154   0.77225   0.74999   0.00000  Uiso   1.00
O1167  O     0.81409   0.83335   0.67319   0.00000  Uiso   1.00
O1168  O     0.89053   0.83334   0.67319   0.00000  Uiso   1.00
Zn1169 Zn    0.78229   0.83334   0.75000   0.00000  Uiso   1.00
Zn1170 Zn    0.88438   0.83333   0.75000   0.00000  Uiso   1.00
loop_
_geom_bond_atom_site_label_1
_geom_bond_atom_site_label_2
_geom_bond_distance
_geom_bond_site_symmetry_2
_ccdc_geom_bond_type
C1     O57     1.289   .     A
C1     O56     1.281   .     A
C1     C9      1.427   .     S
C2     C4      1.474   .     S
C2     C23     1.414   .     A
C2     C19     1.405   .     A
C3     C9      1.397   .     A
C3     H33     1.080   .     S
C3     C200    1.367   .     S
C4     O59     1.287   .     A
C4     O58     1.307   .     A
C5     C6      1.391   .     A
C5     H43     1.084   .     S
C5     C393    1.367   1_545 S
C6     C7      1.392   .     A
C6     C15     1.414   .     S
C7     H44     1.085   .     S
C7     C398    1.380   1_545 S
C8     C22     1.509   .     S
C8     C9      1.416   .     A
C8     C202    1.380   .     S
C10    H45     1.082   .     S
C10    N55     1.367   .     A
C10    C76     1.418   .     S
C11    N54     1.367   .     A
C11    H46     1.082   .     S
C11    C140    1.418   1_455 S
C12    C23     1.407   .     A
C12    C606    1.431   .     S
C12    C611    1.419   .     S
C13    N54     1.357   .     A
C13    H47     1.080   .     S
C13    C144    1.411   1_455 S
C14    I51     2.112   .     S
C14    N55     1.378   .     A
C14    C78     1.411   .     S
C15    O60     1.284   .     A
C15    O61     1.281   .     A
C16    O63     1.293   .     A
C16    C18     1.445   .     S
C16    O62     1.287   .     A
C17    C31     1.392   .     A
C17    C612    1.402   1_554 S
C17    H634    1.084   1_554 S
C18    C30     1.392   .     A
C18    C31     1.398   .     A
C19    C20     1.407   .     A
C19    I52     2.146   .     S
C20    C606    1.417   .     S
C20    C610    1.508   .     S
C21    C24     1.516   .     S
C21    C597    1.431   1_554 S
C21    C605    1.417   1_554 S
C22    H36     1.111   .     S
C22    H35     1.111   .     S
C22    H34     1.109   .     S
C23    C29     1.420   .     A
C24    H37     1.109   .     S
C24    H38     1.110   .     S
C24    H39     1.111   .     S
C25    H42     1.110   .     S
C25    H41     1.103   .     S
C25    C605    1.508   1_554 S
C25    H170    1.103   1_455 S
C26    C30     1.383   .     A
C26    C597    1.419   1_554 S
C26    C612    1.418   1_554 S
C27    C28     1.386   .     A
C27    C602    1.402   .     S
C27    C611    1.418   .     S
C28    C29     1.386   .     A
C28    H48     1.084   .     S
C29    I53     2.126   .     S
C30    H50     1.080   .     S
C31    H32     1.083   .     S
H40    C90     1.103   .     S
H49    C602    1.084   .     S
N54    Zn64    2.012   .     S
N55    Zn65    2.011   .     S
O56    Zn64    1.998   .     S
O57    Zn65    2.000   .     S
O58    Zn64    1.992   .     S
O59    Zn65    1.966   .     S
O60    Zn64    2.000   .     S
O61    Zn65    1.998   .     S
O62    Zn64    1.966   .     S
O63    Zn65    1.992   .     S
C66    O122    1.289   .     A
C66    O121    1.281   .     A
C66    C74     1.427   .     S
C67    C69     1.474   .     S
C67    C88     1.414   .     A
C67    C84     1.405   .     A
C68    C74     1.397   .     A
C68    H98     1.080   .     S
C68    C265    1.367   .     S
C69    O124    1.287   .     A
C69    O123    1.307   .     A
C70    C71     1.391   .     A
C70    H108    1.084   .     S
C70    C458    1.367   1_545 S
C71    C72     1.392   .     A
C71    C80     1.414   .     S
C72    H109    1.085   .     S
C72    C463    1.380   1_545 S
C73    C87     1.509   .     S
C73    C74     1.416   .     A
C73    C267    1.380   .     S
C75    H110    1.082   .     S
C75    N120    1.367   .     A
C75    C141    1.418   .     S
C76    N119    1.367   .     A
C76    H111    1.082   .     S
C77    C88     1.407   .     A
C77    C671    1.431   .     S
C77    C676    1.419   .     S
C78    N119    1.357   .     A
C78    H112    1.080   .     S
C79    I116    2.112   .     S
C79    N120    1.378   .     A
C79    C143    1.411   .     S
C80    O125    1.284   .     A
C80    O126    1.281   .     A
C81    O128    1.293   .     A
C81    C83     1.445   .     S
C81    O127    1.287   .     A
C82    C96     1.392   .     A
C82    C677    1.402   1_554 S
C82    H699    1.084   1_554 S
C83    C95     1.392   .     A
C83    C96     1.398   .     A
C84    C85     1.407   .     A
C84    I117    2.146   .     S
C85    C671    1.417   .     S
C85    C675    1.508   .     S
C86    C89     1.516   .     S
C86    C662    1.431   1_554 S
C86    C670    1.417   1_554 S
C87    H101    1.111   .     S
C87    H100    1.111   .     S
C87    H99     1.109   .     S
C88    C94     1.420   .     A
C89    H102    1.109   .     S
C89    H103    1.110   .     S
C89    H104    1.111   .     S
C90    H107    1.110   .     S
C90    H106    1.103   .     S
C90    C670    1.508   1_554 S
C91    C95     1.383   .     A
C91    C662    1.419   1_554 S
C91    C677    1.418   1_554 S
C92    C93     1.386   .     A
C92    C667    1.402   .     S
C92    C676    1.418   .     S
C93    C94     1.386   .     A
C93    H113    1.084   .     S
C94    I118    2.126   .     S
C95    H115    1.080   .     S
C96    H97     1.083   .     S
H105   C155    1.103   .     S
H114   C667    1.084   .     S
N119   Zn129   2.012   .     S
N120   Zn130   2.011   .     S
O121   Zn129   1.998   .     S
O122   Zn130   2.000   .     S
O123   Zn129   1.992   .     S
O124   Zn130   1.966   .     S
O125   Zn129   2.000   .     S
O126   Zn130   1.998   .     S
O127   Zn129   1.966   .     S
O128   Zn130   1.992   .     S
C131   O187    1.289   .     A
C131   O186    1.281   .     A
C131   C139    1.427   .     S
C132   C134    1.474   .     S
C132   C153    1.414   .     A
C132   C149    1.405   .     A
C133   C139    1.397   .     A
C133   H163    1.080   .     S
C133   C330    1.367   .     S
C134   O189    1.287   .     A
C134   O188    1.307   .     A
C135   C136    1.391   .     A
C135   H173    1.084   .     S
C135   C523    1.367   1_545 S
C136   C137    1.392   .     A
C136   C145    1.414   .     S
C137   H174    1.085   .     S
C137   C528    1.380   1_545 S
C138   C152    1.509   .     S
C138   C139    1.416   .     A
C138   C332    1.380   .     S
C140   H175    1.082   .     S
C140   N185    1.367   .     A
C140   C11     1.418   1_655 S
C141   N184    1.367   .     A
C141   H176    1.082   .     S
C142   C153    1.407   .     A
C142   C736    1.431   .     S
C142   C741    1.419   .     S
C143   N184    1.357   .     A
C143   H177    1.080   .     S
C144   I181    2.112   .     S
C144   N185    1.378   .     A
C144   C13     1.411   1_655 S
C145   O190    1.284   .     A
C145   O191    1.281   .     A
C146   O193    1.293   .     A
C146   C148    1.445   .     S
C146   O192    1.287   .     A
C147   C161    1.392   .     A
C147   C742    1.402   1_554 S
C147   H764    1.084   1_554 S
C148   C160    1.392   .     A
C148   C161    1.398   .     A
C149   C150    1.407   .     A
C149   I182    2.146   .     S
C150   C736    1.417   .     S
C150   C740    1.508   .     S
C151   C154    1.516   .     S
C151   C727    1.431   1_554 S
C151   C735    1.417   1_554 S
C152   H166    1.111   .     S
C152   H165    1.111   .     S
C152   H164    1.109   .     S
C153   C159    1.420   .     A
C154   H167    1.109   .     S
C154   H168    1.110   .     S
C154   H169    1.111   .     S
C155   H172    1.110   .     S
C155   H171    1.103   .     S
C155   C735    1.508   1_554 S
C156   C160    1.383   .     A
C156   C727    1.419   1_554 S
C156   C742    1.418   1_554 S
C157   C158    1.386   .     A
C157   C732    1.402   .     S
C157   C741    1.418   .     S
C158   C159    1.386   .     A
C158   H178    1.084   .     S
C159   I183    2.126   .     S
C160   H180    1.080   .     S
C161   H162    1.083   .     S
H170   C25     1.103   1_655 S
H179   C732    1.084   .     S
N184   Zn194   2.012   .     S
N185   Zn195   2.011   .     S
O186   Zn194   1.998   .     S
O187   Zn195   2.000   .     S
O188   Zn194   1.992   .     S
O189   Zn195   1.966   .     S
O190   Zn194   2.000   .     S
O191   Zn195   1.998   .     S
O192   Zn194   1.966   .     S
O193   Zn195   1.992   .     S
C196   O252    1.289   .     A
C196   O251    1.281   .     A
C196   C204    1.427   .     S
C197   C199    1.474   .     S
C197   C218    1.414   .     A
C197   C214    1.405   .     A
C198   C204    1.397   .     A
C198   H228    1.080   .     S
C198   C395    1.367   .     S
C199   O254    1.287   .     A
C199   O253    1.307   .     A
C200   C201    1.391   .     A
C200   H238    1.084   .     S
C201   C202    1.392   .     A
C201   C210    1.414   .     S
C202   H239    1.085   .     S
C203   C217    1.509   .     S
C203   C204    1.416   .     A
C203   C397    1.380   .     S
C205   H240    1.082   .     S
C205   N250    1.367   .     A
C205   C271    1.418   .     S
C206   N249    1.367   .     A
C206   H241    1.082   .     S
C206   C335    1.418   1_455 S
C207   C218    1.407   .     A
C207   C801    1.431   .     S
C207   C806    1.419   .     S
C208   N249    1.357   .     A
C208   H242    1.080   .     S
C208   C339    1.411   1_455 S
C209   I246    2.112   .     S
C209   N250    1.378   .     A
C209   C273    1.411   .     S
C210   O255    1.284   .     A
C210   O256    1.281   .     A
C211   O258    1.293   .     A
C211   C213    1.445   .     S
C211   O257    1.287   .     A
C212   C226    1.392   .     A
C212   C807    1.402   1_554 S
C212   H829    1.084   1_554 S
C213   C225    1.392   .     A
C213   C226    1.398   .     A
C214   C215    1.407   .     A
C214   I247    2.146   .     S
C215   C801    1.417   .     S
C215   C805    1.508   .     S
C216   C219    1.516   .     S
C216   C792    1.431   1_554 S
C216   C800    1.417   1_554 S
C217   H231    1.111   .     S
C217   H230    1.111   .     S
C217   H229    1.109   .     S
C218   C224    1.420   .     A
C219   H232    1.109   .     S
C219   H233    1.110   .     S
C219   H234    1.111   .     S
C220   H237    1.110   .     S
C220   H236    1.103   .     S
C220   C800    1.508   1_554 S
C220   H365    1.103   1_455 S
C221   C225    1.383   .     A
C221   C792    1.419   1_554 S
C221   C807    1.418   1_554 S
C222   C223    1.386   .     A
C222   C797    1.402   .     S
C222   C806    1.418   .     S
C223   C224    1.386   .     A
C223   H243    1.084   .     S
C224   I248    2.126   .     S
C225   H245    1.080   .     S
C226   H227    1.083   .     S
H235   C285    1.103   .     S
H244   C797    1.084   .     S
N249   Zn259   2.012   .     S
N250   Zn260   2.011   .     S
O251   Zn259   1.998   .     S
O252   Zn260   2.000   .     S
O253   Zn259   1.992   .     S
O254   Zn260   1.966   .     S
O255   Zn259   2.000   .     S
O256   Zn260   1.998   .     S
O257   Zn259   1.966   .     S
O258   Zn260   1.992   .     S
C261   O317    1.289   .     A
C261   O316    1.281   .     A
C261   C269    1.427   .     S
C262   C264    1.474   .     S
C262   C283    1.414   .     A
C262   C279    1.405   .     A
C263   C269    1.397   .     A
C263   H293    1.080   .     S
C263   C460    1.367   .     S
C264   O319    1.287   .     A
C264   O318    1.307   .     A
C265   C266    1.391   .     A
C265   H303    1.084   .     S
C266   C267    1.392   .     A
C266   C275    1.414   .     S
C267   H304    1.085   .     S
C268   C282    1.509   .     S
C268   C269    1.416   .     A
C268   C462    1.380   .     S
C270   H305    1.082   .     S
C270   N315    1.367   .     A
C270   C336    1.418   .     S
C271   N314    1.367   .     A
C271   H306    1.082   .     S
C272   C283    1.407   .     A
C272   C866    1.431   .     S
C272   C871    1.419   .     S
C273   N314    1.357   .     A
C273   H307    1.080   .     S
C274   I311    2.112   .     S
C274   N315    1.378   .     A
C274   C338    1.411   .     S
C275   O320    1.284   .     A
C275   O321    1.281   .     A
C276   O323    1.293   .     A
C276   C278    1.445   .     S
C276   O322    1.287   .     A
C277   C291    1.392   .     A
C277   C872    1.402   1_554 S
C277   H894    1.084   1_554 S
C278   C290    1.392   .     A
C278   C291    1.398   .     A
C279   C280    1.407   .     A
C279   I312    2.146   .     S
C280   C866    1.417   .     S
C280   C870    1.508   .     S
C281   C284    1.516   .     S
C281   C857    1.431   1_554 S
C281   C865    1.417   1_554 S
C282   H296    1.111   .     S
C282   H295    1.111   .     S
C282   H294    1.109   .     S
C283   C289    1.420   .     A
C284   H297    1.109   .     S
C284   H298    1.110   .     S
C284   H299    1.111   .     S
C285   H302    1.110   .     S
C285   H301    1.103   .     S
C285   C865    1.508   1_554 S
C286   C290    1.383   .     A
C286   C857    1.419   1_554 S
C286   C872    1.418   1_554 S
C287   C288    1.386   .     A
C287   C862    1.402   .     S
C287   C871    1.418   .     S
C288   C289    1.386   .     A
C288   H308    1.084   .     S
C289   I313    2.126   .     S
C290   H310    1.080   .     S
C291   H292    1.083   .     S
H300   C350    1.103   .     S
H309   C862    1.084   .     S
N314   Zn324   2.012   .     S
N315   Zn325   2.011   .     S
O316   Zn324   1.998   .     S
O317   Zn325   2.000   .     S
O318   Zn324   1.992   .     S
O319   Zn325   1.966   .     S
O320   Zn324   2.000   .     S
O321   Zn325   1.998   .     S
O322   Zn324   1.966   .     S
O323   Zn325   1.992   .     S
C326   O382    1.289   .     A
C326   O381    1.281   .     A
C326   C334    1.427   .     S
C327   C329    1.474   .     S
C327   C348    1.414   .     A
C327   C344    1.405   .     A
C328   C334    1.397   .     A
C328   H358    1.080   .     S
C328   C525    1.367   .     S
C329   O384    1.287   .     A
C329   O383    1.307   .     A
C330   C331    1.391   .     A
C330   H368    1.084   .     S
C331   C332    1.392   .     A
C331   C340    1.414   .     S
C332   H369    1.085   .     S
C333   C347    1.509   .     S
C333   C334    1.416   .     A
C333   C527    1.380   .     S
C335   H370    1.082   .     S
C335   N380    1.367   .     A
C335   C206    1.418   1_655 S
C336   N379    1.367   .     A
C336   H371    1.082   .     S
C337   C348    1.407   .     A
C337   C931    1.431   .     S
C337   C936    1.419   .     S
C338   N379    1.357   .     A
C338   H372    1.080   .     S
C339   I376    2.112   .     S
C339   N380    1.378   .     A
C339   C208    1.411   1_655 S
C340   O385    1.284   .     A
C340   O386    1.281   .     A
C341   O388    1.293   .     A
C341   C343    1.445   .     S
C341   O387    1.287   .     A
C342   C356    1.392   .     A
C342   C937    1.402   1_554 S
C342   H959    1.084   1_554 S
C343   C355    1.392   .     A
C343   C356    1.398   .     A
C344   C345    1.407   .     A
C344   I377    2.146   .     S
C345   C931    1.417   .     S
C345   C935    1.508   .     S
C346   C349    1.516   .     S
C346   C922    1.431   1_554 S
C346   C930    1.417   1_554 S
C347   H361    1.111   .     S
C347   H360    1.111   .     S
C347   H359    1.109   .     S
C348   C354    1.420   .     A
C349   H362    1.109   .     S
C349   H363    1.110   .     S
C349   H364    1.111   .     S
C350   H367    1.110   .     S
C350   H366    1.103   .     S
C350   C930    1.508   1_554 S
C351   C355    1.383   .     A
C351   C922    1.419   1_554 S
C351   C937    1.418   1_554 S
C352   C353    1.386   .     A
C352   C927    1.402   .     S
C352   C936    1.418   .     S
C353   C354    1.386   .     A
C353   H373    1.084   .     S
C354   I378    2.126   .     S
C355   H375    1.080   .     S
C356   H357    1.083   .     S
H365   C220    1.103   1_655 S
H374   C927    1.084   .     S
N379   Zn389   2.012   .     S
N380   Zn390   2.011   .     S
O381   Zn389   1.998   .     S
O382   Zn390   2.000   .     S
O383   Zn389   1.992   .     S
O384   Zn390   1.966   .     S
O385   Zn389   2.000   .     S
O386   Zn390   1.998   .     S
O387   Zn389   1.966   .     S
O388   Zn390   1.992   .     S
C391   O447    1.289   .     A
C391   O446    1.281   .     A
C391   C399    1.427   .     S
C392   C394    1.474   .     S
C392   C413    1.414   .     A
C392   C409    1.405   .     A
C393   C399    1.397   .     A
C393   H423    1.080   .     S
C393   C5      1.367   1_565 S
C394   O449    1.287   .     A
C394   O448    1.307   .     A
C395   C396    1.391   .     A
C395   H433    1.084   .     S
C396   C397    1.392   .     A
C396   C405    1.414   .     S
C397   H434    1.085   .     S
C398   C412    1.509   .     S
C398   C399    1.416   .     A
C398   C7      1.380   1_565 S
C400   H435    1.082   .     S
C400   N445    1.367   .     A
C400   C466    1.418   .     S
C401   N444    1.367   .     A
C401   H436    1.082   .     S
C401   C530    1.418   1_455 S
C402   C413    1.407   .     A
C402   C996    1.431   .     S
C402   C1001   1.419   .     S
C403   N444    1.357   .     A
C403   H437    1.080   .     S
C403   C534    1.411   1_455 S
C404   I441    2.112   .     S
C404   N445    1.378   .     A
C404   C468    1.411   .     S
C405   O450    1.284   .     A
C405   O451    1.281   .     A
C406   O453    1.293   .     A
C406   C408    1.445   .     S
C406   O452    1.287   .     A
C407   C421    1.392   .     A
C407   C1002   1.402   1_554 S
C407   H1024   1.084   1_554 S
C408   C420    1.392   .     A
C408   C421    1.398   .     A
C409   C410    1.407   .     A
C409   I442    2.146   .     S
C410   C996    1.417   .     S
C410   C1000   1.508   .     S
C411   C414    1.516   .     S
C411   C987    1.431   1_554 S
C411   C995    1.417   1_554 S
C412   H426    1.111   .     S
C412   H425    1.111   .     S
C412   H424    1.109   .     S
C413   C419    1.420   .     A
C414   H427    1.109   .     S
C414   H428    1.110   .     S
C414   H429    1.111   .     S
C415   H432    1.110   .     S
C415   H431    1.103   .     S
C415   C995    1.508   1_554 S
C415   H560    1.103   1_455 S
C416   C420    1.383   .     A
C416   C987    1.419   1_554 S
C416   C1002   1.418   1_554 S
C417   C418    1.386   .     A
C417   C992    1.402   .     S
C417   C1001   1.418   .     S
C418   C419    1.386   .     A
C418   H438    1.084   .     S
C419   I443    2.126   .     S
C420   H440    1.080   .     S
C421   H422    1.083   .     S
H430   C480    1.103   .     S
H439   C992    1.084   .     S
N444   Zn454   2.012   .     S
N445   Zn455   2.011   .     S
O446   Zn454   1.998   .     S
O447   Zn455   2.000   .     S
O448   Zn454   1.992   .     S
O449   Zn455   1.966   .     S
O450   Zn454   2.000   .     S
O451   Zn455   1.998   .     S
O452   Zn454   1.966   .     S
O453   Zn455   1.992   .     S
C456   O512    1.289   .     A
C456   O511    1.281   .     A
C456   C464    1.427   .     S
C457   C459    1.474   .     S
C457   C478    1.414   .     A
C457   C474    1.405   .     A
C458   C464    1.397   .     A
C458   H488    1.080   .     S
C458   C70     1.367   1_565 S
C459   O514    1.287   .     A
C459   O513    1.307   .     A
C460   C461    1.391   .     A
C460   H498    1.084   .     S
C461   C462    1.392   .     A
C461   C470    1.414   .     S
C462   H499    1.085   .     S
C463   C477    1.509   .     S
C463   C464    1.416   .     A
C463   C72     1.380   1_565 S
C465   H500    1.082   .     S
C465   N510    1.367   .     A
C465   C531    1.418   .     S
C466   N509    1.367   .     A
C466   H501    1.082   .     S
C467   C478    1.407   .     A
C467   C1061   1.431   .     S
C467   C1066   1.419   .     S
C468   N509    1.357   .     A
C468   H502    1.080   .     S
C469   I506    2.112   .     S
C469   N510    1.378   .     A
C469   C533    1.411   .     S
C470   O515    1.284   .     A
C470   O516    1.281   .     A
C471   O518    1.293   .     A
C471   C473    1.445   .     S
C471   O517    1.287   .     A
C472   C486    1.392   .     A
C472   C1067   1.402   1_554 S
C472   H1089   1.084   1_554 S
C473   C485    1.392   .     A
C473   C486    1.398   .     A
C474   C475    1.407   .     A
C474   I507    2.146   .     S
C475   C1061   1.417   .     S
C475   C1065   1.508   .     S
C476   C479    1.516   .     S
C476   C1052   1.431   1_554 S
C476   C1060   1.417   1_554 S
C477   H491    1.111   .     S
C477   H490    1.111   .     S
C477   H489    1.109   .     S
C478   C484    1.420   .     A
C479   H492    1.109   .     S
C479   H493    1.110   .     S
C479   H494    1.111   .     S
C480   H497    1.110   .     S
C480   H496    1.103   .     S
C480   C1060   1.508   1_554 S
C481   C485    1.383   .     A
C481   C1052   1.419   1_554 S
C481   C1067   1.418   1_554 S
C482   C483    1.386   .     A
C482   C1057   1.402   .     S
C482   C1066   1.418   .     S
C483   C484    1.386   .     A
C483   H503    1.084   .     S
C484   I508    2.126   .     S
C485   H505    1.080   .     S
C486   H487    1.083   .     S
H495   C545    1.103   .     S
H504   C1057   1.084   .     S
N509   Zn519   2.012   .     S
N510   Zn520   2.011   .     S
O511   Zn519   1.998   .     S
O512   Zn520   2.000   .     S
O513   Zn519   1.992   .     S
O514   Zn520   1.966   .     S
O515   Zn519   2.000   .     S
O516   Zn520   1.998   .     S
O517   Zn519   1.966   .     S
O518   Zn520   1.992   .     S
C521   O577    1.289   .     A
C521   O576    1.281   .     A
C521   C529    1.427   .     S
C522   C524    1.474   .     S
C522   C543    1.414   .     A
C522   C539    1.405   .     A
C523   C529    1.397   .     A
C523   H553    1.080   .     S
C523   C135    1.367   1_565 S
C524   O579    1.287   .     A
C524   O578    1.307   .     A
C525   C526    1.391   .     A
C525   H563    1.084   .     S
C526   C527    1.392   .     A
C526   C535    1.414   .     S
C527   H564    1.085   .     S
C528   C542    1.509   .     S
C528   C529    1.416   .     A
C528   C137    1.380   1_565 S
C530   H565    1.082   .     S
C530   N575    1.367   .     A
C530   C401    1.418   1_655 S
C531   N574    1.367   .     A
C531   H566    1.082   .     S
C532   C543    1.407   .     A
C532   C1126   1.431   .     S
C532   C1131   1.419   .     S
C533   N574    1.357   .     A
C533   H567    1.080   .     S
C534   I571    2.112   .     S
C534   N575    1.378   .     A
C534   C403    1.411   1_655 S
C535   O580    1.284   .     A
C535   O581    1.281   .     A
C536   O583    1.293   .     A
C536   C538    1.445   .     S
C536   O582    1.287   .     A
C537   C551    1.392   .     A
C537   C1132   1.402   1_554 S
C537   H1154   1.084   1_554 S
C538   C550    1.392   .     A
C538   C551    1.398   .     A
C539   C540    1.407   .     A
C539   I572    2.146   .     S
C540   C1126   1.417   .     S
C540   C1130   1.508   .     S
C541   C544    1.516   .     S
C541   C1117   1.431   1_554 S
C541   C1125   1.417   1_554 S
C542   H556    1.111   .     S
C542   H555    1.111   .     S
C542   H554    1.109   .     S
C543   C549    1.420   .     A
C544   H557    1.109   .     S
C544   H558    1.110   .     S
C544   H559    1.111   .     S
C545   H562    1.110   .     S
C545   H561    1.103   .     S
C545   C1125   1.508   1_554 S
C546   C550    1.383   .     A
C546   C1117   1.419   1_554 S
C546   C1132   1.418   1_554 S
C547   C548    1.386   .     A
C547   C1122   1.402   .     S
C547   C1131   1.418   .     S
C548   C549    1.386   .     A
C548   H568    1.084   .     S
C549   I573    2.126   .     S
C550   H570    1.080   .     S
C551   H552    1.083   .     S
H560   C415    1.103   1_655 S
H569   C1122   1.084   .     S
N574   Zn584   2.012   .     S
N575   Zn585   2.011   .     S
O576   Zn584   1.998   .     S
O577   Zn585   2.000   .     S
O578   Zn584   1.992   .     S
O579   Zn585   1.966   .     S
O580   Zn584   2.000   .     S
O581   Zn585   1.998   .     S
O582   Zn584   1.966   .     S
O583   Zn585   1.992   .     S
C586   O642    1.289   .     A
C586   O641    1.281   .     A
C586   C594    1.427   .     S
C587   C589    1.474   .     S
C587   C608    1.414   .     A
C587   C604    1.405   .     A
C588   C594    1.397   .     A
C588   H618    1.080   .     S
C588   C785    1.367   .     S
C589   O644    1.287   .     A
C589   O643    1.307   .     A
C590   C591    1.391   .     A
C590   H628    1.084   .     S
C590   C978    1.367   1_545 S
C591   C592    1.392   .     A
C591   C600    1.414   .     S
C592   H629    1.085   .     S
C592   C983    1.380   1_545 S
C593   C607    1.509   .     S
C593   C594    1.416   .     A
C593   C787    1.380   .     S
C595   H630    1.082   .     S
C595   N640    1.367   .     A
C595   C661    1.418   .     S
C596   N639    1.367   .     A
C596   H631    1.082   .     S
C596   C725    1.418   1_455 S
C597   C608    1.407   .     A
C597   C21     1.431   1_556 S
C597   C26     1.419   1_556 S
C598   N639    1.357   .     A
C598   H632    1.080   .     S
C598   C729    1.411   1_455 S
C599   I636    2.112   .     S
C599   N640    1.378   .     A
C599   C663    1.411   .     S
C600   O645    1.284   .     A
C600   O646    1.281   .     A
C601   O648    1.293   .     A
C601   C603    1.445   .     S
C601   O647    1.287   .     A
C602   C616    1.392   .     A
C603   C615    1.392   .     A
C603   C616    1.398   .     A
C604   C605    1.407   .     A
C604   I637    2.146   .     S
C605   C21     1.417   1_556 S
C605   C25     1.508   1_556 S
C606   C609    1.516   .     S
C607   H621    1.111   .     S
C607   H620    1.111   .     S
C607   H619    1.109   .     S
C608   C614    1.420   .     A
C609   H622    1.109   .     S
C609   H623    1.110   .     S
C609   H624    1.111   .     S
C610   H627    1.110   .     S
C610   H626    1.103   .     S
C610   H755    1.103   1_455 S
C611   C615    1.383   .     A
C612   C613    1.386   .     A
C612   C17     1.402   1_556 S
C612   C26     1.418   1_556 S
C613   C614    1.386   .     A
C613   H633    1.084   .     S
C614   I638    2.126   .     S
C615   H635    1.080   .     S
C616   H617    1.083   .     S
H625   C675    1.103   .     S
H634   C17     1.084   1_556 S
N639   Zn649   2.012   .     S
N640   Zn650   2.011   .     S
O641   Zn649   1.998   .     S
O642   Zn650   2.000   .     S
O643   Zn649   1.992   .     S
O644   Zn650   1.966   .     S
O645   Zn649   2.000   .     S
O646   Zn650   1.998   .     S
O647   Zn649   1.966   .     S
O648   Zn650   1.992   .     S
C651   O707    1.289   .     A
C651   O706    1.281   .     A
C651   C659    1.427   .     S
C652   C654    1.474   .     S
C652   C673    1.414   .     A
C652   C669    1.405   .     A
C653   C659    1.397   .     A
C653   H683    1.080   .     S
C653   C850    1.367   .     S
C654   O709    1.287   .     A
C654   O708    1.307   .     A
C655   C656    1.391   .     A
C655   H693    1.084   .     S
C655   C1043   1.367   1_545 S
C656   C657    1.392   .     A
C656   C665    1.414   .     S
C657   H694    1.085   .     S
C657   C1048   1.380   1_545 S
C658   C672    1.509   .     S
C658   C659    1.416   .     A
C658   C852    1.380   .     S
C660   H695    1.082   .     S
C660   N705    1.367   .     A
C660   C726    1.418   .     S
C661   N704    1.367   .     A
C661   H696    1.082   .     S
C662   C673    1.407   .     A
C662   C86     1.431   1_556 S
C662   C91     1.419   1_556 S
C663   N704    1.357   .     A
C663   H697    1.080   .     S
C664   I701    2.112   .     S
C664   N705    1.378   .     A
C664   C728    1.411   .     S
C665   O710    1.284   .     A
C665   O711    1.281   .     A
C666   O713    1.293   .     A
C666   C668    1.445   .     S
C666   O712    1.287   .     A
C667   C681    1.392   .     A
C668   C680    1.392   .     A
C668   C681    1.398   .     A
C669   C670    1.407   .     A
C669   I702    2.146   .     S
C670   C86     1.417   1_556 S
C670   C90     1.508   1_556 S
C671   C674    1.516   .     S
C672   H686    1.111   .     S
C672   H685    1.111   .     S
C672   H684    1.109   .     S
C673   C679    1.420   .     A
C674   H687    1.109   .     S
C674   H688    1.110   .     S
C674   H689    1.111   .     S
C675   H692    1.110   .     S
C675   H691    1.103   .     S
C676   C680    1.383   .     A
C677   C678    1.386   .     A
C677   C82     1.402   1_556 S
C677   C91     1.418   1_556 S
C678   C679    1.386   .     A
C678   H698    1.084   .     S
C679   I703    2.126   .     S
C680   H700    1.080   .     S
C681   H682    1.083   .     S
H690   C740    1.103   .     S
H699   C82     1.084   1_556 S
N704   Zn714   2.012   .     S
N705   Zn715   2.011   .     S
O706   Zn714   1.998   .     S
O707   Zn715   2.000   .     S
O708   Zn714   1.992   .     S
O709   Zn715   1.966   .     S
O710   Zn714   2.000   .     S
O711   Zn715   1.998   .     S
O712   Zn714   1.966   .     S
O713   Zn715   1.992   .     S
C716   O772    1.289   .     A
C716   O771    1.281   .     A
C716   C724    1.427   .     S
C717   C719    1.474   .     S
C717   C738    1.414   .     A
C717   C734    1.405   .     A
C718   C724    1.397   .     A
C718   H748    1.080   .     S
C718   C915    1.367   .     S
C719   O774    1.287   .     A
C719   O773    1.307   .     A
C720   C721    1.391   .     A
C720   H758    1.084   .     S
C720   C1108   1.367   1_545 S
C721   C722    1.392   .     A
C721   C730    1.414   .     S
C722   H759    1.085   .     S
C722   C1113   1.380   1_545 S
C723   C737    1.509   .     S
C723   C724    1.416   .     A
C723   C917    1.380   .     S
C725   H760    1.082   .     S
C725   N770    1.367   .     A
C725   C596    1.418   1_655 S
C726   N769    1.367   .     A
C726   H761    1.082   .     S
C727   C738    1.407   .     A
C727   C151    1.431   1_556 S
C727   C156    1.419   1_556 S
C728   N769    1.357   .     A
C728   H762    1.080   .     S
C729   I766    2.112   .     S
C729   N770    1.378   .     A
C729   C598    1.411   1_655 S
C730   O775    1.284   .     A
C730   O776    1.281   .     A
C731   O778    1.293   .     A
C731   C733    1.445   .     S
C731   O777    1.287   .     A
C732   C746    1.392   .     A
C733   C745    1.392   .     A
C733   C746    1.398   .     A
C734   C735    1.407   .     A
C734   I767    2.146   .     S
C735   C151    1.417   1_556 S
C735   C155    1.508   1_556 S
C736   C739    1.516   .     S
C737   H751    1.111   .     S
C737   H750    1.111   .     S
C737   H749    1.109   .     S
C738   C744    1.420   .     A
C739   H752    1.109   .     S
C739   H753    1.110   .     S
C739   H754    1.111   .     S
C740   H757    1.110   .     S
C740   H756    1.103   .     S
C741   C745    1.383   .     A
C742   C743    1.386   .     A
C742   C147    1.402   1_556 S
C742   C156    1.418   1_556 S
C743   C744    1.386   .     A
C743   H763    1.084   .     S
C744   I768    2.126   .     S
C745   H765    1.080   .     S
C746   H747    1.083   .     S
H755   C610    1.103   1_655 S
H764   C147    1.084   1_556 S
N769   Zn779   2.012   .     S
N770   Zn780   2.011   .     S
O771   Zn779   1.998   .     S
O772   Zn780   2.000   .     S
O773   Zn779   1.992   .     S
O774   Zn780   1.966   .     S
O775   Zn779   2.000   .     S
O776   Zn780   1.998   .     S
O777   Zn779   1.966   .     S
O778   Zn780   1.992   .     S
C781   O837    1.289   .     A
C781   O836    1.281   .     A
C781   C789    1.427   .     S
C782   C784    1.474   .     S
C782   C803    1.414   .     A
C782   C799    1.405   .     A
C783   C789    1.397   .     A
C783   H813    1.080   .     S
C783   C980    1.367   .     S
C784   O839    1.287   .     A
C784   O838    1.307   .     A
C785   C786    1.391   .     A
C785   H823    1.084   .     S
C786   C787    1.392   .     A
C786   C795    1.414   .     S
C787   H824    1.085   .     S
C788   C802    1.509   .     S
C788   C789    1.416   .     A
C788   C982    1.380   .     S
C790   H825    1.082   .     S
C790   N835    1.367   .     A
C790   C856    1.418   .     S
C791   N834    1.367   .     A
C791   H826    1.082   .     S
C791   C920    1.418   1_455 S
C792   C803    1.407   .     A
C792   C216    1.431   1_556 S
C792   C221    1.419   1_556 S
C793   N834    1.357   .     A
C793   H827    1.080   .     S
C793   C924    1.411   1_455 S
C794   I831    2.112   .     S
C794   N835    1.378   .     A
C794   C858    1.411   .     S
C795   O840    1.284   .     A
C795   O841    1.281   .     A
C796   O843    1.293   .     A
C796   C798    1.445   .     S
C796   O842    1.287   .     A
C797   C811    1.392   .     A
C798   C810    1.392   .     A
C798   C811    1.398   .     A
C799   C800    1.407   .     A
C799   I832    2.146   .     S
C800   C216    1.417   1_556 S
C800   C220    1.508   1_556 S
C801   C804    1.516   .     S
C802   H816    1.111   .     S
C802   H815    1.111   .     S
C802   H814    1.109   .     S
C803   C809    1.420   .     A
C804   H817    1.109   .     S
C804   H818    1.110   .     S
C804   H819    1.111   .     S
C805   H822    1.110   .     S
C805   H821    1.103   .     S
C805   H950    1.103   1_455 S
C806   C810    1.383   .     A
C807   C808    1.386   .     A
C807   C212    1.402   1_556 S
C807   C221    1.418   1_556 S
C808   C809    1.386   .     A
C808   H828    1.084   .     S
C809   I833    2.126   .     S
C810   H830    1.080   .     S
C811   H812    1.083   .     S
H820   C870    1.103   .     S
H829   C212    1.084   1_556 S
N834   Zn844   2.012   .     S
N835   Zn845   2.011   .     S
O836   Zn844   1.998   .     S
O837   Zn845   2.000   .     S
O838   Zn844   1.992   .     S
O839   Zn845   1.966   .     S
O840   Zn844   2.000   .     S
O841   Zn845   1.998   .     S
O842   Zn844   1.966   .     S
O843   Zn845   1.992   .     S
C846   O902    1.289   .     A
C846   O901    1.281   .     A
C846   C854    1.427   .     S
C847   C849    1.474   .     S
C847   C868    1.414   .     A
C847   C864    1.405   .     A
C848   C854    1.397   .     A
C848   H878    1.080   .     S
C848   C1045   1.367   .     S
C849   O904    1.287   .     A
C849   O903    1.307   .     A
C850   C851    1.391   .     A
C850   H888    1.084   .     S
C851   C852    1.392   .     A
C851   C860    1.414   .     S
C852   H889    1.085   .     S
C853   C867    1.509   .     S
C853   C854    1.416   .     A
C853   C1047   1.380   .     S
C855   H890    1.082   .     S
C855   N900    1.367   .     A
C855   C921    1.418   .     S
C856   N899    1.367   .     A
C856   H891    1.082   .     S
C857   C868    1.407   .     A
C857   C281    1.431   1_556 S
C857   C286    1.419   1_556 S
C858   N899    1.357   .     A
C858   H892    1.080   .     S
C859   I896    2.112   .     S
C859   N900    1.378   .     A
C859   C923    1.411   .     S
C860   O905    1.284   .     A
C860   O906    1.281   .     A
C861   O908    1.293   .     A
C861   C863    1.445   .     S
C861   O907    1.287   .     A
C862   C876    1.392   .     A
C863   C875    1.392   .     A
C863   C876    1.398   .     A
C864   C865    1.407   .     A
C864   I897    2.146   .     S
C865   C281    1.417   1_556 S
C865   C285    1.508   1_556 S
C866   C869    1.516   .     S
C867   H881    1.111   .     S
C867   H880    1.111   .     S
C867   H879    1.109   .     S
C868   C874    1.420   .     A
C869   H882    1.109   .     S
C869   H883    1.110   .     S
C869   H884    1.111   .     S
C870   H887    1.110   .     S
C870   H886    1.103   .     S
C871   C875    1.383   .     A
C872   C873    1.386   .     A
C872   C277    1.402   1_556 S
C872   C286    1.418   1_556 S
C873   C874    1.386   .     A
C873   H893    1.084   .     S
C874   I898    2.126   .     S
C875   H895    1.080   .     S
C876   H877    1.083   .     S
H885   C935    1.103   .     S
H894   C277    1.084   1_556 S
N899   Zn909   2.012   .     S
N900   Zn910   2.011   .     S
O901   Zn909   1.998   .     S
O902   Zn910   2.000   .     S
O903   Zn909   1.992   .     S
O904   Zn910   1.966   .     S
O905   Zn909   2.000   .     S
O906   Zn910   1.998   .     S
O907   Zn909   1.966   .     S
O908   Zn910   1.992   .     S
C911   O967    1.289   .     A
C911   O966    1.281   .     A
C911   C919    1.427   .     S
C912   C914    1.474   .     S
C912   C933    1.414   .     A
C912   C929    1.405   .     A
C913   C919    1.397   .     A
C913   H943    1.080   .     S
C913   C1110   1.367   .     S
C914   O969    1.287   .     A
C914   O968    1.307   .     A
C915   C916    1.391   .     A
C915   H953    1.084   .     S
C916   C917    1.392   .     A
C916   C925    1.414   .     S
C917   H954    1.085   .     S
C918   C932    1.509   .     S
C918   C919    1.416   .     A
C918   C1112   1.380   .     S
C920   H955    1.082   .     S
C920   N965    1.367   .     A
C920   C791    1.418   1_655 S
C921   N964    1.367   .     A
C921   H956    1.082   .     S
C922   C933    1.407   .     A
C922   C346    1.431   1_556 S
C922   C351    1.419   1_556 S
C923   N964    1.357   .     A
C923   H957    1.080   .     S
C924   I961    2.112   .     S
C924   N965    1.378   .     A
C924   C793    1.411   1_655 S
C925   O970    1.284   .     A
C925   O971    1.281   .     A
C926   O973    1.293   .     A
C926   C928    1.445   .     S
C926   O972    1.287   .     A
C927   C941    1.392   .     A
C928   C940    1.392   .     A
C928   C941    1.398   .     A
C929   C930    1.407   .     A
C929   I962    2.146   .     S
C930   C346    1.417   1_556 S
C930   C350    1.508   1_556 S
C931   C934    1.516   .     S
C932   H946    1.111   .     S
C932   H945    1.111   .     S
C932   H944    1.109   .     S
C933   C939    1.420   .     A
C934   H947    1.109   .     S
C934   H948    1.110   .     S
C934   H949    1.111   .     S
C935   H952    1.110   .     S
C935   H951    1.103   .     S
C936   C940    1.383   .     A
C937   C938    1.386   .     A
C937   C342    1.402   1_556 S
C937   C351    1.418   1_556 S
C938   C939    1.386   .     A
C938   H958    1.084   .     S
C939   I963    2.126   .     S
C940   H960    1.080   .     S
C941   H942    1.083   .     S
H950   C805    1.103   1_655 S
H959   C342    1.084   1_556 S
N964   Zn974   2.012   .     S
N965   Zn975   2.011   .     S
O966   Zn974   1.998   .     S
O967   Zn975   2.000   .     S
O968   Zn974   1.992   .     S
O969   Zn975   1.966   .     S
O970   Zn974   2.000   .     S
O971   Zn975   1.998   .     S
O972   Zn974   1.966   .     S
O973   Zn975   1.992   .     S
C976   O1032   1.289   .     A
C976   O1031   1.281   .     A
C976   C984    1.427   .     S
C977   C979    1.474   .     S
C977   C998    1.414   .     A
C977   C994    1.405   .     A
C978   C984    1.397   .     A
C978   H1008   1.080   .     S
C978   C590    1.367   1_565 S
C979   O1034   1.287   .     A
C979   O1033   1.307   .     A
C980   C981    1.391   .     A
C980   H1018   1.084   .     S
C981   C982    1.392   .     A
C981   C990    1.414   .     S
C982   H1019   1.085   .     S
C983   C997    1.509   .     S
C983   C984    1.416   .     A
C983   C592    1.380   1_565 S
C985   H1020   1.082   .     S
C985   N1030   1.367   .     A
C985   C1051   1.418   .     S
C986   N1029   1.367   .     A
C986   H1021   1.082   .     S
C986   C1115   1.418   1_455 S
C987   C998    1.407   .     A
C987   C411    1.431   1_556 S
C987   C416    1.419   1_556 S
C988   N1029   1.357   .     A
C988   H1022   1.080   .     S
C988   C1119   1.411   1_455 S
C989   I1026   2.112   .     S
C989   N1030   1.378   .     A
C989   C1053   1.411   .     S
C990   O1035   1.284   .     A
C990   O1036   1.281   .     A
C991   O1038   1.293   .     A
C991   C993    1.445   .     S
C991   O1037   1.287   .     A
C992   C1006   1.392   .     A
C993   C1005   1.392   .     A
C993   C1006   1.398   .     A
C994   C995    1.407   .     A
C994   I1027   2.146   .     S
C995   C411    1.417   1_556 S
C995   C415    1.508   1_556 S
C996   C999    1.516   .     S
C997   H1011   1.111   .     S
C997   H1010   1.111   .     S
C997   H1009   1.109   .     S
C998   C1004   1.420   .     A
C999   H1012   1.109   .     S
C999   H1013   1.110   .     S
C999   H1014   1.111   .     S
C1000  H1017   1.110   .     S
C1000  H1016   1.103   .     S
C1000  H1145   1.103   1_455 S
C1001  C1005   1.383   .     A
C1002  C1003   1.386   .     A
C1002  C407    1.402   1_556 S
C1002  C416    1.418   1_556 S
C1003  C1004   1.386   .     A
C1003  H1023   1.084   .     S
C1004  I1028   2.126   .     S
C1005  H1025   1.080   .     S
C1006  H1007   1.083   .     S
H1015  C1065   1.103   .     S
H1024  C407    1.084   1_556 S
N1029  Zn1039  2.012   .     S
N1030  Zn1040  2.011   .     S
O1031  Zn1039  1.998   .     S
O1032  Zn1040  2.000   .     S
O1033  Zn1039  1.992   .     S
O1034  Zn1040  1.966   .     S
O1035  Zn1039  2.000   .     S
O1036  Zn1040  1.998   .     S
O1037  Zn1039  1.966   .     S
O1038  Zn1040  1.992   .     S
C1041  O1097   1.289   .     A
C1041  O1096   1.281   .     A
C1041  C1049   1.427   .     S
C1042  C1044   1.474   .     S
C1042  C1063   1.414   .     A
C1042  C1059   1.405   .     A
C1043  C1049   1.397   .     A
C1043  H1073   1.080   .     S
C1043  C655    1.367   1_565 S
C1044  O1099   1.287   .     A
C1044  O1098   1.307   .     A
C1045  C1046   1.391   .     A
C1045  H1083   1.084   .     S
C1046  C1047   1.392   .     A
C1046  C1055   1.414   .     S
C1047  H1084   1.085   .     S
C1048  C1062   1.509   .     S
C1048  C1049   1.416   .     A
C1048  C657    1.380   1_565 S
C1050  H1085   1.082   .     S
C1050  N1095   1.367   .     A
C1050  C1116   1.418   .     S
C1051  N1094   1.367   .     A
C1051  H1086   1.082   .     S
C1052  C1063   1.407   .     A
C1052  C476    1.431   1_556 S
C1052  C481    1.419   1_556 S
C1053  N1094   1.357   .     A
C1053  H1087   1.080   .     S
C1054  I1091   2.112   .     S
C1054  N1095   1.378   .     A
C1054  C1118   1.411   .     S
C1055  O1100   1.284   .     A
C1055  O1101   1.281   .     A
C1056  O1103   1.293   .     A
C1056  C1058   1.445   .     S
C1056  O1102   1.287   .     A
C1057  C1071   1.392   .     A
C1058  C1070   1.392   .     A
C1058  C1071   1.398   .     A
C1059  C1060   1.407   .     A
C1059  I1092   2.146   .     S
C1060  C476    1.417   1_556 S
C1060  C480    1.508   1_556 S
C1061  C1064   1.516   .     S
C1062  H1076   1.111   .     S
C1062  H1075   1.111   .     S
C1062  H1074   1.109   .     S
C1063  C1069   1.420   .     A
C1064  H1077   1.109   .     S
C1064  H1078   1.110   .     S
C1064  H1079   1.111   .     S
C1065  H1082   1.110   .     S
C1065  H1081   1.103   .     S
C1066  C1070   1.383   .     A
C1067  C1068   1.386   .     A
C1067  C472    1.402   1_556 S
C1067  C481    1.418   1_556 S
C1068  C1069   1.386   .     A
C1068  H1088   1.084   .     S
C1069  I1093   2.126   .     S
C1070  H1090   1.080   .     S
C1071  H1072   1.083   .     S
H1080  C1130   1.103   .     S
H1089  C472    1.084   1_556 S
N1094  Zn1104  2.012   .     S
N1095  Zn1105  2.011   .     S
O1096  Zn1104  1.998   .     S
O1097  Zn1105  2.000   .     S
O1098  Zn1104  1.992   .     S
O1099  Zn1105  1.966   .     S
O1100  Zn1104  2.000   .     S
O1101  Zn1105  1.998   .     S
O1102  Zn1104  1.966   .     S
O1103  Zn1105  1.992   .     S
C1106  O1162   1.289   .     A
C1106  O1161   1.281   .     A
C1106  C1114   1.427   .     S
C1107  C1109   1.474   .     S
C1107  C1128   1.414   .     A
C1107  C1124   1.405   .     A
C1108  C1114   1.397   .     A
C1108  H1138   1.080   .     S
C1108  C720    1.367   1_565 S
C1109  O1164   1.287   .     A
C1109  O1163   1.307   .     A
C1110  C1111   1.391   .     A
C1110  H1148   1.084   .     S
C1111  C1112   1.392   .     A
C1111  C1120   1.414   .     S
C1112  H1149   1.085   .     S
C1113  C1127   1.509   .     S
C1113  C1114   1.416   .     A
C1113  C722    1.380   1_565 S
C1115  H1150   1.082   .     S
C1115  N1160   1.367   .     A
C1115  C986    1.418   1_655 S
C1116  N1159   1.367   .     A
C1116  H1151   1.082   .     S
C1117  C1128   1.407   .     A
C1117  C541    1.431   1_556 S
C1117  C546    1.419   1_556 S
C1118  N1159   1.357   .     A
C1118  H1152   1.080   .     S
C1119  I1156   2.112   .     S
C1119  N1160   1.378   .     A
C1119  C988    1.411   1_655 S
C1120  O1165   1.284   .     A
C1120  O1166   1.281   .     A
C1121  O1168   1.293   .     A
C1121  C1123   1.445   .     S
C1121  O1167   1.287   .     A
C1122  C1136   1.392   .     A
C1123  C1135   1.392   .     A
C1123  C1136   1.398   .     A
C1124  C1125   1.407   .     A
C1124  I1157   2.146   .     S
C1125  C541    1.417   1_556 S
C1125  C545    1.508   1_556 S
C1126  C1129   1.516   .     S
C1127  H1141   1.111   .     S
C1127  H1140   1.111   .     S
C1127  H1139   1.109   .     S
C1128  C1134   1.420   .     A
C1129  H1142   1.109   .     S
C1129  H1143   1.110   .     S
C1129  H1144   1.111   .     S
C1130  H1147   1.110   .     S
C1130  H1146   1.103   .     S
C1131  C1135   1.383   .     A
C1132  C1133   1.386   .     A
C1132  C537    1.402   1_556 S
C1132  C546    1.418   1_556 S
C1133  C1134   1.386   .     A
C1133  H1153   1.084   .     S
C1134  I1158   2.126   .     S
C1135  H1155   1.080   .     S
C1136  H1137   1.083   .     S
H1145  C1000   1.103   1_655 S
H1154  C537    1.084   1_556 S
N1159  Zn1169  2.012   .     S
N1160  Zn1170  2.011   .     S
O1161  Zn1169  1.998   .     S
O1162  Zn1170  2.000   .     S
O1163  Zn1169  1.992   .     S
O1164  Zn1170  1.966   .     S
O1165  Zn1169  2.000   .     S
O1166  Zn1170  1.998   .     S
O1167  Zn1169  1.966   .     S
O1168  Zn1170  1.992   .     S
