data_str_m3_o1_o17_pcu_sym.104
_audit_creation_date              2020-01-03
_audit_creation_method            'Materials Studio'
_symmetry_space_group_name_H-M    'P1'
_symmetry_Int_Tables_number       1
_symmetry_cell_setting            triclinic
loop_
_symmetry_equiv_pos_as_xyz
  x,y,z
_cell_length_a                    32.2233
_cell_length_b                    29.5196
_cell_length_c                    29.7751
_cell_angle_alpha                 90.3620
_cell_angle_beta                  89.5376
_cell_angle_gamma                 90.7500
loop_
_atom_site_label
_atom_site_type_symbol
_atom_site_fract_x
_atom_site_fract_y
_atom_site_fract_z
_atom_site_U_iso_or_equiv
_atom_site_adp_type
_atom_site_occupancy
O1     O     0.10559   0.20487   0.25000   0.00000  Uiso   1.00
O2     O     0.22774   0.12846   0.25001   0.00000  Uiso   1.00
O3     O     0.22774   0.20487   0.25001   0.00000  Uiso   1.00
O4     O     0.10559   0.12846   0.25000   0.00000  Uiso   1.00
C5     C     0.08668   0.16630   0.25045   0.00000  Uiso   1.00
C6     C     0.24664   0.16706   0.24922   0.00000  Uiso   1.00
O7     O     0.16666   0.20489   0.18393   0.00000  Uiso   1.00
O8     O     0.16667   0.12844   0.31608   0.00000  Uiso   1.00
O9     O     0.16667   0.20489   0.31608   0.00000  Uiso   1.00
O10    O     0.16666   0.12844   0.18393   0.00000  Uiso   1.00
C11    C     0.16703   0.16658   0.16353   0.00000  Uiso   1.00
C12    C     0.16615   0.16675   0.33652   0.00000  Uiso   1.00
Zn13   Zn    0.16667   0.21771   0.25000   0.00000  Uiso   1.00
Zn14   Zn    0.16667   0.11563   0.25000   0.00000  Uiso   1.00
C15    C     0.20322   0.17463   0.40633   0.00000  Uiso   1.00
C16    C     0.12975   0.15855   0.09396   0.00000  Uiso   1.00
C17    C     0.16600   0.16692   0.38418   0.00000  Uiso   1.00
C18    C     0.16696   0.16653   0.11597   0.00000  Uiso   1.00
C19    C     0.12885   0.15922   0.40716   0.00000  Uiso   1.00
C20    C     0.20376   0.17575   0.09299   0.00000  Uiso   1.00
C21    C     0.12854   0.15992   0.45372   0.00000  Uiso   1.00
C22    C     0.20376   0.17609   0.04649   0.00000  Uiso   1.00
C23    C     0.16614   0.16812   0.47673   0.00000  Uiso   1.00
C24    C     0.16618   0.16812   0.02349   0.00000  Uiso   1.00
C25    C     0.20380   0.17560   0.45289   0.00000  Uiso   1.00
C26    C     0.12877   0.15971   0.04737   0.00000  Uiso   1.00
C27    C     0.09142   0.15245   0.47748   0.00000  Uiso   1.00
C28    C     0.24074   0.18382   0.02283   0.00000  Uiso   1.00
C29    C     0.09124   0.15287   0.02434   0.00000  Uiso   1.00
C30    C     0.24109   0.18394   0.47601   0.00000  Uiso   1.00
H31    H     0.23152   0.17951   0.38708   0.00000  Uiso   1.00
H32    H     0.10177   0.15208   0.11343   0.00000  Uiso   1.00
H33    H     0.10043   0.15282   0.38874   0.00000  Uiso   1.00
H34    H     0.23219   0.18226   0.11136   0.00000  Uiso   1.00
H35    H     0.06260   0.14618   0.45981   0.00000  Uiso   1.00
H36    H     0.26950   0.18935   0.04056   0.00000  Uiso   1.00
C37    C     0.02104   0.13180   0.22685   0.00000  Uiso   1.00
C38    C     0.31234   0.20226   0.27166   0.00000  Uiso   1.00
C39    C     0.31165   0.13358   0.22429   0.00000  Uiso   1.00
C40    C     0.02170   0.20042   0.27428   0.00000  Uiso   1.00
C41    C     0.29083   0.16807   0.24781   0.00000  Uiso   1.00
C42    C     0.04249   0.16554   0.25133   0.00000  Uiso   1.00
C43    C     0.18728   0.02448   0.28237   0.00000  Uiso   1.00
C44    C     0.14610   0.30886   0.21759   0.00000  Uiso   1.00
C45    C     0.14621   0.02348   0.21752   0.00000  Uiso   1.00
C46    C     0.18724   0.30985   0.28240   0.00000  Uiso   1.00
H47    H     0.20381   0.04302   0.30823   0.00000  Uiso   1.00
H48    H     0.12959   0.29031   0.19172   0.00000  Uiso   1.00
H49    H     0.12993   0.04124   0.19149   0.00000  Uiso   1.00
H50    H     0.20367   0.29210   0.30832   0.00000  Uiso   1.00
N51    N     0.16667   0.28573   0.25000   0.00000  Uiso   1.00
N52    N     0.16667   0.04760   0.25000   0.00000  Uiso   1.00
O53    O     0.05470   0.14449   0.04769   0.00000  Uiso   1.00
C54    C     0.03349   0.18571   0.05388   0.00000  Uiso   1.00
H55    H     0.01341   0.19167   0.02441   0.00000  Uiso   1.00
H56    H     0.05473   0.21561   0.05836   0.00000  Uiso   1.00
C57    C     0.00636   0.18247   0.09586   0.00000  Uiso   1.00
H58    H     0.02608   0.17953   0.12606   0.00000  Uiso   1.00
H59    H     0.32073   0.21345   0.09940   0.00000  Uiso   1.00
H60    H     0.31870   0.15241   0.09368   0.00000  Uiso   1.00
O61    O     0.27843   0.18829   0.45308   0.00000  Uiso   1.00
C62    C     0.28974   0.23461   0.45135   0.00000  Uiso   1.00
H63    H     0.29283   0.24947   0.48567   0.00000  Uiso   1.00
H64    H     0.26635   0.25397   0.43221   0.00000  Uiso   1.00
C65    C     0.33151   0.23950   0.42753   0.00000  Uiso   1.00
H66    H     0.33000   0.22389   0.39358   0.00000  Uiso   1.00
H67    H     0.00658   0.27593   0.42415   0.00000  Uiso   1.00
H68    H     0.02263   0.22248   0.44703   0.00000  Uiso   1.00
N69    N     0.04252   0.09657   0.20323   0.00000  Uiso   1.00
O70    O     0.05011   0.05876   0.22361   0.00000  Uiso   1.00
O71    O     0.04747   0.09893   0.15993   0.00000  Uiso   1.00
N72    N     0.29097   0.23774   0.29504   0.00000  Uiso   1.00
O73    O     0.28936   0.27799   0.27766   0.00000  Uiso   1.00
O74    O     0.27063   0.22906   0.33194   0.00000  Uiso   1.00
N75    N     0.28971   0.10143   0.19644   0.00000  Uiso   1.00
O76    O     0.26578   0.11545   0.16456   0.00000  Uiso   1.00
O77    O     0.29424   0.05813   0.20224   0.00000  Uiso   1.00
N78    N     0.04355   0.23219   0.30262   0.00000  Uiso   1.00
O79    O     0.06640   0.21775   0.33524   0.00000  Uiso   1.00
O80    O     0.04138   0.27550   0.29536   0.00000  Uiso   1.00
O81    O     0.43892   0.20487   0.25000   0.00000  Uiso   1.00
O82    O     0.56108   0.12846   0.25001   0.00000  Uiso   1.00
O83    O     0.56108   0.20487   0.25001   0.00000  Uiso   1.00
O84    O     0.43892   0.12846   0.25000   0.00000  Uiso   1.00
C85    C     0.42002   0.16630   0.25045   0.00000  Uiso   1.00
C86    C     0.57998   0.16706   0.24922   0.00000  Uiso   1.00
O87    O     0.49999   0.20489   0.18393   0.00000  Uiso   1.00
O88    O     0.50001   0.12844   0.31608   0.00000  Uiso   1.00
O89    O     0.50001   0.20489   0.31608   0.00000  Uiso   1.00
O90    O     0.49999   0.12844   0.18393   0.00000  Uiso   1.00
C91    C     0.50037   0.16658   0.16353   0.00000  Uiso   1.00
C92    C     0.49949   0.16675   0.33652   0.00000  Uiso   1.00
Zn93   Zn    0.50000   0.21771   0.25000   0.00000  Uiso   1.00
Zn94   Zn    0.50000   0.11563   0.25000   0.00000  Uiso   1.00
C95    C     0.53655   0.17463   0.40633   0.00000  Uiso   1.00
C96    C     0.46308   0.15855   0.09396   0.00000  Uiso   1.00
C97    C     0.49934   0.16692   0.38418   0.00000  Uiso   1.00
C98    C     0.50030   0.16653   0.11597   0.00000  Uiso   1.00
C99    C     0.46218   0.15922   0.40716   0.00000  Uiso   1.00
C100   C     0.53709   0.17575   0.09299   0.00000  Uiso   1.00
C101   C     0.46187   0.15992   0.45372   0.00000  Uiso   1.00
C102   C     0.53710   0.17609   0.04649   0.00000  Uiso   1.00
C103   C     0.49947   0.16812   0.47673   0.00000  Uiso   1.00
C104   C     0.49951   0.16812   0.02349   0.00000  Uiso   1.00
C105   C     0.53713   0.17560   0.45289   0.00000  Uiso   1.00
C106   C     0.46210   0.15971   0.04737   0.00000  Uiso   1.00
C107   C     0.42475   0.15245   0.47748   0.00000  Uiso   1.00
C108   C     0.57408   0.18382   0.02283   0.00000  Uiso   1.00
C109   C     0.42457   0.15287   0.02434   0.00000  Uiso   1.00
C110   C     0.57442   0.18394   0.47601   0.00000  Uiso   1.00
H111   H     0.56485   0.17951   0.38708   0.00000  Uiso   1.00
H112   H     0.43510   0.15208   0.11343   0.00000  Uiso   1.00
H113   H     0.43376   0.15282   0.38874   0.00000  Uiso   1.00
H114   H     0.56553   0.18226   0.11136   0.00000  Uiso   1.00
H115   H     0.39594   0.14618   0.45981   0.00000  Uiso   1.00
H116   H     0.60283   0.18935   0.04056   0.00000  Uiso   1.00
C117   C     0.35437   0.13180   0.22685   0.00000  Uiso   1.00
C118   C     0.64568   0.20226   0.27166   0.00000  Uiso   1.00
C119   C     0.64498   0.13358   0.22429   0.00000  Uiso   1.00
C120   C     0.35503   0.20042   0.27428   0.00000  Uiso   1.00
C121   C     0.62417   0.16807   0.24781   0.00000  Uiso   1.00
C122   C     0.37583   0.16554   0.25133   0.00000  Uiso   1.00
C123   C     0.52061   0.02448   0.28237   0.00000  Uiso   1.00
C124   C     0.47943   0.30886   0.21759   0.00000  Uiso   1.00
C125   C     0.47954   0.02348   0.21752   0.00000  Uiso   1.00
C126   C     0.52058   0.30985   0.28240   0.00000  Uiso   1.00
H127   H     0.53715   0.04302   0.30823   0.00000  Uiso   1.00
H128   H     0.46292   0.29031   0.19172   0.00000  Uiso   1.00
H129   H     0.46326   0.04124   0.19149   0.00000  Uiso   1.00
H130   H     0.53700   0.29210   0.30832   0.00000  Uiso   1.00
N131   N     0.50000   0.28573   0.25000   0.00000  Uiso   1.00
N132   N     0.50000   0.04760   0.25000   0.00000  Uiso   1.00
O133   O     0.38803   0.14449   0.04769   0.00000  Uiso   1.00
C134   C     0.36682   0.18571   0.05388   0.00000  Uiso   1.00
H135   H     0.34675   0.19167   0.02441   0.00000  Uiso   1.00
H136   H     0.38806   0.21561   0.05836   0.00000  Uiso   1.00
C137   C     0.33969   0.18247   0.09586   0.00000  Uiso   1.00
H138   H     0.35941   0.17953   0.12606   0.00000  Uiso   1.00
H139   H     0.65406   0.21345   0.09940   0.00000  Uiso   1.00
H140   H     0.65204   0.15241   0.09368   0.00000  Uiso   1.00
O141   O     0.61177   0.18829   0.45308   0.00000  Uiso   1.00
C142   C     0.62308   0.23461   0.45135   0.00000  Uiso   1.00
H143   H     0.62616   0.24947   0.48567   0.00000  Uiso   1.00
H144   H     0.59969   0.25397   0.43221   0.00000  Uiso   1.00
C145   C     0.66485   0.23950   0.42753   0.00000  Uiso   1.00
H146   H     0.66333   0.22389   0.39358   0.00000  Uiso   1.00
H147   H     0.33991   0.27593   0.42415   0.00000  Uiso   1.00
H148   H     0.35597   0.22248   0.44703   0.00000  Uiso   1.00
N149   N     0.37585   0.09657   0.20323   0.00000  Uiso   1.00
O150   O     0.38344   0.05876   0.22361   0.00000  Uiso   1.00
O151   O     0.38080   0.09893   0.15993   0.00000  Uiso   1.00
N152   N     0.62431   0.23774   0.29504   0.00000  Uiso   1.00
O153   O     0.62269   0.27799   0.27766   0.00000  Uiso   1.00
O154   O     0.60397   0.22906   0.33194   0.00000  Uiso   1.00
N155   N     0.62304   0.10143   0.19644   0.00000  Uiso   1.00
O156   O     0.59911   0.11545   0.16456   0.00000  Uiso   1.00
O157   O     0.62758   0.05813   0.20224   0.00000  Uiso   1.00
N158   N     0.37688   0.23219   0.30262   0.00000  Uiso   1.00
O159   O     0.39974   0.21775   0.33524   0.00000  Uiso   1.00
O160   O     0.37471   0.27550   0.29536   0.00000  Uiso   1.00
O161   O     0.77226   0.20487   0.25000   0.00000  Uiso   1.00
O162   O     0.89441   0.12846   0.25001   0.00000  Uiso   1.00
O163   O     0.89441   0.20487   0.25001   0.00000  Uiso   1.00
O164   O     0.77226   0.12846   0.25000   0.00000  Uiso   1.00
C165   C     0.75335   0.16630   0.25045   0.00000  Uiso   1.00
C166   C     0.91331   0.16706   0.24922   0.00000  Uiso   1.00
O167   O     0.83333   0.20489   0.18393   0.00000  Uiso   1.00
O168   O     0.83334   0.12844   0.31608   0.00000  Uiso   1.00
O169   O     0.83334   0.20489   0.31608   0.00000  Uiso   1.00
O170   O     0.83333   0.12844   0.18393   0.00000  Uiso   1.00
C171   C     0.83370   0.16658   0.16353   0.00000  Uiso   1.00
C172   C     0.83282   0.16675   0.33652   0.00000  Uiso   1.00
Zn173  Zn    0.83333   0.21771   0.25000   0.00000  Uiso   1.00
Zn174  Zn    0.83333   0.11563   0.25000   0.00000  Uiso   1.00
C175   C     0.86988   0.17463   0.40633   0.00000  Uiso   1.00
C176   C     0.79642   0.15855   0.09396   0.00000  Uiso   1.00
C177   C     0.83267   0.16692   0.38418   0.00000  Uiso   1.00
C178   C     0.83363   0.16653   0.11597   0.00000  Uiso   1.00
C179   C     0.79552   0.15922   0.40716   0.00000  Uiso   1.00
C180   C     0.87042   0.17575   0.09299   0.00000  Uiso   1.00
C181   C     0.79520   0.15992   0.45372   0.00000  Uiso   1.00
C182   C     0.87043   0.17609   0.04649   0.00000  Uiso   1.00
C183   C     0.83280   0.16812   0.47673   0.00000  Uiso   1.00
C184   C     0.83285   0.16812   0.02349   0.00000  Uiso   1.00
C185   C     0.87046   0.17560   0.45289   0.00000  Uiso   1.00
C186   C     0.79543   0.15971   0.04737   0.00000  Uiso   1.00
C187   C     0.75808   0.15245   0.47748   0.00000  Uiso   1.00
C188   C     0.90741   0.18382   0.02283   0.00000  Uiso   1.00
C189   C     0.75791   0.15287   0.02434   0.00000  Uiso   1.00
C190   C     0.90775   0.18394   0.47601   0.00000  Uiso   1.00
H191   H     0.89819   0.17951   0.38708   0.00000  Uiso   1.00
H192   H     0.76843   0.15208   0.11343   0.00000  Uiso   1.00
H193   H     0.76710   0.15282   0.38874   0.00000  Uiso   1.00
H194   H     0.89886   0.18226   0.11136   0.00000  Uiso   1.00
H195   H     0.72927   0.14618   0.45981   0.00000  Uiso   1.00
H196   H     0.93617   0.18935   0.04056   0.00000  Uiso   1.00
C197   C     0.68771   0.13180   0.22685   0.00000  Uiso   1.00
C198   C     0.97901   0.20226   0.27166   0.00000  Uiso   1.00
C199   C     0.97832   0.13358   0.22429   0.00000  Uiso   1.00
C200   C     0.68836   0.20042   0.27428   0.00000  Uiso   1.00
C201   C     0.95750   0.16807   0.24781   0.00000  Uiso   1.00
C202   C     0.70916   0.16554   0.25133   0.00000  Uiso   1.00
C203   C     0.85394   0.02448   0.28237   0.00000  Uiso   1.00
C204   C     0.81277   0.30886   0.21759   0.00000  Uiso   1.00
C205   C     0.81287   0.02348   0.21752   0.00000  Uiso   1.00
C206   C     0.85391   0.30985   0.28240   0.00000  Uiso   1.00
H207   H     0.87048   0.04302   0.30823   0.00000  Uiso   1.00
H208   H     0.79625   0.29031   0.19172   0.00000  Uiso   1.00
H209   H     0.79659   0.04124   0.19149   0.00000  Uiso   1.00
H210   H     0.87033   0.29210   0.30832   0.00000  Uiso   1.00
N211   N     0.83333   0.28573   0.25000   0.00000  Uiso   1.00
N212   N     0.83333   0.04760   0.25000   0.00000  Uiso   1.00
O213   O     0.72137   0.14449   0.04769   0.00000  Uiso   1.00
C214   C     0.70015   0.18571   0.05388   0.00000  Uiso   1.00
H215   H     0.68008   0.19167   0.02441   0.00000  Uiso   1.00
H216   H     0.72139   0.21561   0.05836   0.00000  Uiso   1.00
C217   C     0.67302   0.18247   0.09586   0.00000  Uiso   1.00
H218   H     0.69275   0.17953   0.12606   0.00000  Uiso   1.00
H219   H     0.98739   0.21345   0.09940   0.00000  Uiso   1.00
H220   H     0.98537   0.15241   0.09368   0.00000  Uiso   1.00
O221   O     0.94510   0.18829   0.45308   0.00000  Uiso   1.00
C222   C     0.95641   0.23461   0.45135   0.00000  Uiso   1.00
H223   H     0.95950   0.24947   0.48567   0.00000  Uiso   1.00
H224   H     0.93302   0.25397   0.43221   0.00000  Uiso   1.00
C225   C     0.99818   0.23950   0.42753   0.00000  Uiso   1.00
H226   H     0.99667   0.22389   0.39358   0.00000  Uiso   1.00
H227   H     0.67324   0.27593   0.42415   0.00000  Uiso   1.00
H228   H     0.68930   0.22248   0.44703   0.00000  Uiso   1.00
N229   N     0.70919   0.09657   0.20323   0.00000  Uiso   1.00
O230   O     0.71677   0.05876   0.22361   0.00000  Uiso   1.00
O231   O     0.71414   0.09893   0.15993   0.00000  Uiso   1.00
N232   N     0.95764   0.23774   0.29504   0.00000  Uiso   1.00
O233   O     0.95603   0.27799   0.27766   0.00000  Uiso   1.00
O234   O     0.93730   0.22906   0.33194   0.00000  Uiso   1.00
N235   N     0.95637   0.10143   0.19644   0.00000  Uiso   1.00
O236   O     0.93244   0.11545   0.16456   0.00000  Uiso   1.00
O237   O     0.96091   0.05813   0.20224   0.00000  Uiso   1.00
N238   N     0.71022   0.23219   0.30262   0.00000  Uiso   1.00
O239   O     0.73307   0.21775   0.33524   0.00000  Uiso   1.00
O240   O     0.70805   0.27550   0.29536   0.00000  Uiso   1.00
O241   O     0.10559   0.53821   0.25000   0.00000  Uiso   1.00
O242   O     0.22774   0.46179   0.25001   0.00000  Uiso   1.00
O243   O     0.22774   0.53821   0.25001   0.00000  Uiso   1.00
O244   O     0.10559   0.46179   0.25000   0.00000  Uiso   1.00
C245   C     0.08668   0.49964   0.25045   0.00000  Uiso   1.00
C246   C     0.24664   0.50039   0.24922   0.00000  Uiso   1.00
O247   O     0.16666   0.53823   0.18393   0.00000  Uiso   1.00
O248   O     0.16667   0.46177   0.31608   0.00000  Uiso   1.00
O249   O     0.16667   0.53823   0.31608   0.00000  Uiso   1.00
O250   O     0.16666   0.46177   0.18393   0.00000  Uiso   1.00
C251   C     0.16703   0.49991   0.16353   0.00000  Uiso   1.00
C252   C     0.16615   0.50008   0.33652   0.00000  Uiso   1.00
Zn253  Zn    0.16667   0.55104   0.25000   0.00000  Uiso   1.00
Zn254  Zn    0.16667   0.44896   0.25000   0.00000  Uiso   1.00
C255   C     0.20322   0.50796   0.40633   0.00000  Uiso   1.00
C256   C     0.12975   0.49188   0.09396   0.00000  Uiso   1.00
C257   C     0.16600   0.50025   0.38418   0.00000  Uiso   1.00
C258   C     0.16696   0.49987   0.11597   0.00000  Uiso   1.00
C259   C     0.12885   0.49255   0.40716   0.00000  Uiso   1.00
C260   C     0.20376   0.50908   0.09299   0.00000  Uiso   1.00
C261   C     0.12854   0.49325   0.45372   0.00000  Uiso   1.00
C262   C     0.20376   0.50942   0.04649   0.00000  Uiso   1.00
C263   C     0.16614   0.50146   0.47673   0.00000  Uiso   1.00
C264   C     0.16618   0.50145   0.02349   0.00000  Uiso   1.00
C265   C     0.20380   0.50894   0.45289   0.00000  Uiso   1.00
C266   C     0.12877   0.49305   0.04737   0.00000  Uiso   1.00
C267   C     0.09142   0.48578   0.47748   0.00000  Uiso   1.00
C268   C     0.24074   0.51716   0.02283   0.00000  Uiso   1.00
C269   C     0.09124   0.48621   0.02434   0.00000  Uiso   1.00
C270   C     0.24109   0.51728   0.47601   0.00000  Uiso   1.00
H271   H     0.23152   0.51285   0.38708   0.00000  Uiso   1.00
H272   H     0.10177   0.48541   0.11343   0.00000  Uiso   1.00
H273   H     0.10043   0.48616   0.38874   0.00000  Uiso   1.00
H274   H     0.23219   0.51559   0.11136   0.00000  Uiso   1.00
H275   H     0.06260   0.47952   0.45981   0.00000  Uiso   1.00
H276   H     0.26950   0.52268   0.04056   0.00000  Uiso   1.00
C277   C     0.02104   0.46513   0.22685   0.00000  Uiso   1.00
C278   C     0.31234   0.53560   0.27166   0.00000  Uiso   1.00
C279   C     0.31165   0.46691   0.22429   0.00000  Uiso   1.00
C280   C     0.02170   0.53375   0.27428   0.00000  Uiso   1.00
C281   C     0.29083   0.50140   0.24781   0.00000  Uiso   1.00
C282   C     0.04249   0.49887   0.25133   0.00000  Uiso   1.00
C283   C     0.18728   0.35781   0.28237   0.00000  Uiso   1.00
C284   C     0.14610   0.64219   0.21759   0.00000  Uiso   1.00
C285   C     0.14621   0.35681   0.21752   0.00000  Uiso   1.00
C286   C     0.18724   0.64318   0.28240   0.00000  Uiso   1.00
H287   H     0.20381   0.37636   0.30823   0.00000  Uiso   1.00
H288   H     0.12959   0.62364   0.19172   0.00000  Uiso   1.00
H289   H     0.12993   0.37457   0.19149   0.00000  Uiso   1.00
H290   H     0.20367   0.62543   0.30832   0.00000  Uiso   1.00
N291   N     0.16667   0.61907   0.25000   0.00000  Uiso   1.00
N292   N     0.16667   0.38093   0.25000   0.00000  Uiso   1.00
O293   O     0.05470   0.47782   0.04769   0.00000  Uiso   1.00
C294   C     0.03349   0.51905   0.05388   0.00000  Uiso   1.00
H295   H     0.01341   0.52500   0.02441   0.00000  Uiso   1.00
H296   H     0.05473   0.54894   0.05836   0.00000  Uiso   1.00
C297   C     0.00636   0.51580   0.09586   0.00000  Uiso   1.00
H298   H     0.02608   0.51286   0.12606   0.00000  Uiso   1.00
H299   H     0.32073   0.54678   0.09940   0.00000  Uiso   1.00
H300   H     0.31870   0.48574   0.09368   0.00000  Uiso   1.00
O301   O     0.27843   0.52162   0.45308   0.00000  Uiso   1.00
C302   C     0.28974   0.56794   0.45135   0.00000  Uiso   1.00
H303   H     0.29283   0.58280   0.48567   0.00000  Uiso   1.00
H304   H     0.26635   0.58730   0.43221   0.00000  Uiso   1.00
C305   C     0.33151   0.57284   0.42753   0.00000  Uiso   1.00
H306   H     0.33000   0.55722   0.39358   0.00000  Uiso   1.00
H307   H     0.00658   0.60926   0.42415   0.00000  Uiso   1.00
H308   H     0.02263   0.55581   0.44703   0.00000  Uiso   1.00
N309   N     0.04252   0.42991   0.20323   0.00000  Uiso   1.00
O310   O     0.05011   0.39209   0.22361   0.00000  Uiso   1.00
O311   O     0.04747   0.43226   0.15993   0.00000  Uiso   1.00
N312   N     0.29097   0.57107   0.29504   0.00000  Uiso   1.00
O313   O     0.28936   0.61133   0.27766   0.00000  Uiso   1.00
O314   O     0.27063   0.56240   0.33194   0.00000  Uiso   1.00
N315   N     0.28971   0.43476   0.19644   0.00000  Uiso   1.00
O316   O     0.26578   0.44878   0.16456   0.00000  Uiso   1.00
O317   O     0.29424   0.39146   0.20224   0.00000  Uiso   1.00
N318   N     0.04355   0.56553   0.30262   0.00000  Uiso   1.00
O319   O     0.06640   0.55109   0.33524   0.00000  Uiso   1.00
O320   O     0.04138   0.60884   0.29536   0.00000  Uiso   1.00
O321   O     0.43892   0.53821   0.25000   0.00000  Uiso   1.00
O322   O     0.56108   0.46179   0.25001   0.00000  Uiso   1.00
O323   O     0.56108   0.53821   0.25001   0.00000  Uiso   1.00
O324   O     0.43892   0.46179   0.25000   0.00000  Uiso   1.00
C325   C     0.42002   0.49964   0.25045   0.00000  Uiso   1.00
C326   C     0.57998   0.50039   0.24922   0.00000  Uiso   1.00
O327   O     0.49999   0.53823   0.18393   0.00000  Uiso   1.00
O328   O     0.50001   0.46177   0.31608   0.00000  Uiso   1.00
O329   O     0.50001   0.53823   0.31608   0.00000  Uiso   1.00
O330   O     0.49999   0.46177   0.18393   0.00000  Uiso   1.00
C331   C     0.50037   0.49991   0.16353   0.00000  Uiso   1.00
C332   C     0.49949   0.50008   0.33652   0.00000  Uiso   1.00
Zn333  Zn    0.50000   0.55104   0.25000   0.00000  Uiso   1.00
Zn334  Zn    0.50000   0.44896   0.25000   0.00000  Uiso   1.00
C335   C     0.53655   0.50796   0.40633   0.00000  Uiso   1.00
C336   C     0.46308   0.49188   0.09396   0.00000  Uiso   1.00
C337   C     0.49934   0.50025   0.38418   0.00000  Uiso   1.00
C338   C     0.50030   0.49987   0.11597   0.00000  Uiso   1.00
C339   C     0.46218   0.49255   0.40716   0.00000  Uiso   1.00
C340   C     0.53709   0.50908   0.09299   0.00000  Uiso   1.00
C341   C     0.46187   0.49325   0.45372   0.00000  Uiso   1.00
C342   C     0.53710   0.50942   0.04649   0.00000  Uiso   1.00
C343   C     0.49947   0.50146   0.47673   0.00000  Uiso   1.00
C344   C     0.49951   0.50145   0.02349   0.00000  Uiso   1.00
C345   C     0.53713   0.50894   0.45289   0.00000  Uiso   1.00
C346   C     0.46210   0.49305   0.04737   0.00000  Uiso   1.00
C347   C     0.42475   0.48578   0.47748   0.00000  Uiso   1.00
C348   C     0.57408   0.51716   0.02283   0.00000  Uiso   1.00
C349   C     0.42457   0.48621   0.02434   0.00000  Uiso   1.00
C350   C     0.57442   0.51728   0.47601   0.00000  Uiso   1.00
H351   H     0.56485   0.51285   0.38708   0.00000  Uiso   1.00
H352   H     0.43510   0.48541   0.11343   0.00000  Uiso   1.00
H353   H     0.43376   0.48616   0.38874   0.00000  Uiso   1.00
H354   H     0.56553   0.51559   0.11136   0.00000  Uiso   1.00
H355   H     0.39594   0.47952   0.45981   0.00000  Uiso   1.00
H356   H     0.60283   0.52268   0.04056   0.00000  Uiso   1.00
C357   C     0.35437   0.46513   0.22685   0.00000  Uiso   1.00
C358   C     0.64568   0.53560   0.27166   0.00000  Uiso   1.00
C359   C     0.64498   0.46691   0.22429   0.00000  Uiso   1.00
C360   C     0.35503   0.53375   0.27428   0.00000  Uiso   1.00
C361   C     0.62417   0.50140   0.24781   0.00000  Uiso   1.00
C362   C     0.37583   0.49887   0.25133   0.00000  Uiso   1.00
C363   C     0.52061   0.35781   0.28237   0.00000  Uiso   1.00
C364   C     0.47943   0.64219   0.21759   0.00000  Uiso   1.00
C365   C     0.47954   0.35681   0.21752   0.00000  Uiso   1.00
C366   C     0.52058   0.64318   0.28240   0.00000  Uiso   1.00
H367   H     0.53715   0.37636   0.30823   0.00000  Uiso   1.00
H368   H     0.46292   0.62364   0.19172   0.00000  Uiso   1.00
H369   H     0.46326   0.37457   0.19149   0.00000  Uiso   1.00
H370   H     0.53700   0.62543   0.30832   0.00000  Uiso   1.00
N371   N     0.50000   0.61907   0.25000   0.00000  Uiso   1.00
N372   N     0.50000   0.38093   0.25000   0.00000  Uiso   1.00
O373   O     0.38803   0.47782   0.04769   0.00000  Uiso   1.00
C374   C     0.36682   0.51905   0.05388   0.00000  Uiso   1.00
H375   H     0.34675   0.52500   0.02441   0.00000  Uiso   1.00
H376   H     0.38806   0.54894   0.05836   0.00000  Uiso   1.00
C377   C     0.33969   0.51580   0.09586   0.00000  Uiso   1.00
H378   H     0.35941   0.51286   0.12606   0.00000  Uiso   1.00
H379   H     0.65406   0.54678   0.09940   0.00000  Uiso   1.00
H380   H     0.65204   0.48574   0.09368   0.00000  Uiso   1.00
O381   O     0.61177   0.52162   0.45308   0.00000  Uiso   1.00
C382   C     0.62308   0.56794   0.45135   0.00000  Uiso   1.00
H383   H     0.62616   0.58280   0.48567   0.00000  Uiso   1.00
H384   H     0.59969   0.58730   0.43221   0.00000  Uiso   1.00
C385   C     0.66485   0.57284   0.42753   0.00000  Uiso   1.00
H386   H     0.66333   0.55722   0.39358   0.00000  Uiso   1.00
H387   H     0.33991   0.60926   0.42415   0.00000  Uiso   1.00
H388   H     0.35597   0.55581   0.44703   0.00000  Uiso   1.00
N389   N     0.37585   0.42991   0.20323   0.00000  Uiso   1.00
O390   O     0.38344   0.39209   0.22361   0.00000  Uiso   1.00
O391   O     0.38080   0.43226   0.15993   0.00000  Uiso   1.00
N392   N     0.62431   0.57107   0.29504   0.00000  Uiso   1.00
O393   O     0.62269   0.61133   0.27766   0.00000  Uiso   1.00
O394   O     0.60397   0.56240   0.33194   0.00000  Uiso   1.00
N395   N     0.62304   0.43476   0.19644   0.00000  Uiso   1.00
O396   O     0.59911   0.44878   0.16456   0.00000  Uiso   1.00
O397   O     0.62758   0.39146   0.20224   0.00000  Uiso   1.00
N398   N     0.37688   0.56553   0.30262   0.00000  Uiso   1.00
O399   O     0.39974   0.55109   0.33524   0.00000  Uiso   1.00
O400   O     0.37471   0.60884   0.29536   0.00000  Uiso   1.00
O401   O     0.77226   0.53821   0.25000   0.00000  Uiso   1.00
O402   O     0.89441   0.46179   0.25001   0.00000  Uiso   1.00
O403   O     0.89441   0.53821   0.25001   0.00000  Uiso   1.00
O404   O     0.77226   0.46179   0.25000   0.00000  Uiso   1.00
C405   C     0.75335   0.49964   0.25045   0.00000  Uiso   1.00
C406   C     0.91331   0.50039   0.24922   0.00000  Uiso   1.00
O407   O     0.83333   0.53823   0.18393   0.00000  Uiso   1.00
O408   O     0.83334   0.46177   0.31608   0.00000  Uiso   1.00
O409   O     0.83334   0.53823   0.31608   0.00000  Uiso   1.00
O410   O     0.83333   0.46177   0.18393   0.00000  Uiso   1.00
C411   C     0.83370   0.49991   0.16353   0.00000  Uiso   1.00
C412   C     0.83282   0.50008   0.33652   0.00000  Uiso   1.00
Zn413  Zn    0.83333   0.55104   0.25000   0.00000  Uiso   1.00
Zn414  Zn    0.83333   0.44896   0.25000   0.00000  Uiso   1.00
C415   C     0.86988   0.50796   0.40633   0.00000  Uiso   1.00
C416   C     0.79642   0.49188   0.09396   0.00000  Uiso   1.00
C417   C     0.83267   0.50025   0.38418   0.00000  Uiso   1.00
C418   C     0.83363   0.49987   0.11597   0.00000  Uiso   1.00
C419   C     0.79552   0.49255   0.40716   0.00000  Uiso   1.00
C420   C     0.87042   0.50908   0.09299   0.00000  Uiso   1.00
C421   C     0.79520   0.49325   0.45372   0.00000  Uiso   1.00
C422   C     0.87043   0.50942   0.04649   0.00000  Uiso   1.00
C423   C     0.83280   0.50146   0.47673   0.00000  Uiso   1.00
C424   C     0.83285   0.50145   0.02349   0.00000  Uiso   1.00
C425   C     0.87046   0.50894   0.45289   0.00000  Uiso   1.00
C426   C     0.79543   0.49305   0.04737   0.00000  Uiso   1.00
C427   C     0.75808   0.48578   0.47748   0.00000  Uiso   1.00
C428   C     0.90741   0.51716   0.02283   0.00000  Uiso   1.00
C429   C     0.75791   0.48621   0.02434   0.00000  Uiso   1.00
C430   C     0.90775   0.51728   0.47601   0.00000  Uiso   1.00
H431   H     0.89819   0.51285   0.38708   0.00000  Uiso   1.00
H432   H     0.76843   0.48541   0.11343   0.00000  Uiso   1.00
H433   H     0.76710   0.48616   0.38874   0.00000  Uiso   1.00
H434   H     0.89886   0.51559   0.11136   0.00000  Uiso   1.00
H435   H     0.72927   0.47952   0.45981   0.00000  Uiso   1.00
H436   H     0.93617   0.52268   0.04056   0.00000  Uiso   1.00
C437   C     0.68771   0.46513   0.22685   0.00000  Uiso   1.00
C438   C     0.97901   0.53560   0.27166   0.00000  Uiso   1.00
C439   C     0.97832   0.46691   0.22429   0.00000  Uiso   1.00
C440   C     0.68836   0.53375   0.27428   0.00000  Uiso   1.00
C441   C     0.95750   0.50140   0.24781   0.00000  Uiso   1.00
C442   C     0.70916   0.49887   0.25133   0.00000  Uiso   1.00
C443   C     0.85394   0.35781   0.28237   0.00000  Uiso   1.00
C444   C     0.81277   0.64219   0.21759   0.00000  Uiso   1.00
C445   C     0.81287   0.35681   0.21752   0.00000  Uiso   1.00
C446   C     0.85391   0.64318   0.28240   0.00000  Uiso   1.00
H447   H     0.87048   0.37636   0.30823   0.00000  Uiso   1.00
H448   H     0.79625   0.62364   0.19172   0.00000  Uiso   1.00
H449   H     0.79659   0.37457   0.19149   0.00000  Uiso   1.00
H450   H     0.87033   0.62543   0.30832   0.00000  Uiso   1.00
N451   N     0.83333   0.61907   0.25000   0.00000  Uiso   1.00
N452   N     0.83333   0.38093   0.25000   0.00000  Uiso   1.00
O453   O     0.72137   0.47782   0.04769   0.00000  Uiso   1.00
C454   C     0.70015   0.51905   0.05388   0.00000  Uiso   1.00
H455   H     0.68008   0.52500   0.02441   0.00000  Uiso   1.00
H456   H     0.72139   0.54894   0.05836   0.00000  Uiso   1.00
C457   C     0.67302   0.51580   0.09586   0.00000  Uiso   1.00
H458   H     0.69275   0.51286   0.12606   0.00000  Uiso   1.00
H459   H     0.98739   0.54678   0.09940   0.00000  Uiso   1.00
H460   H     0.98537   0.48574   0.09368   0.00000  Uiso   1.00
O461   O     0.94510   0.52162   0.45308   0.00000  Uiso   1.00
C462   C     0.95641   0.56794   0.45135   0.00000  Uiso   1.00
H463   H     0.95950   0.58280   0.48567   0.00000  Uiso   1.00
H464   H     0.93302   0.58730   0.43221   0.00000  Uiso   1.00
C465   C     0.99818   0.57284   0.42753   0.00000  Uiso   1.00
H466   H     0.99667   0.55722   0.39358   0.00000  Uiso   1.00
H467   H     0.67324   0.60926   0.42415   0.00000  Uiso   1.00
H468   H     0.68930   0.55581   0.44703   0.00000  Uiso   1.00
N469   N     0.70919   0.42991   0.20323   0.00000  Uiso   1.00
O470   O     0.71677   0.39209   0.22361   0.00000  Uiso   1.00
O471   O     0.71414   0.43226   0.15993   0.00000  Uiso   1.00
N472   N     0.95764   0.57107   0.29504   0.00000  Uiso   1.00
O473   O     0.95603   0.61133   0.27766   0.00000  Uiso   1.00
O474   O     0.93730   0.56240   0.33194   0.00000  Uiso   1.00
N475   N     0.95637   0.43476   0.19644   0.00000  Uiso   1.00
O476   O     0.93244   0.44878   0.16456   0.00000  Uiso   1.00
O477   O     0.96091   0.39146   0.20224   0.00000  Uiso   1.00
N478   N     0.71022   0.56553   0.30262   0.00000  Uiso   1.00
O479   O     0.73307   0.55109   0.33524   0.00000  Uiso   1.00
O480   O     0.70805   0.60884   0.29536   0.00000  Uiso   1.00
O481   O     0.10559   0.87154   0.25000   0.00000  Uiso   1.00
O482   O     0.22774   0.79513   0.25001   0.00000  Uiso   1.00
O483   O     0.22774   0.87154   0.25001   0.00000  Uiso   1.00
O484   O     0.10559   0.79513   0.25000   0.00000  Uiso   1.00
C485   C     0.08668   0.83297   0.25045   0.00000  Uiso   1.00
C486   C     0.24664   0.83372   0.24922   0.00000  Uiso   1.00
O487   O     0.16666   0.87156   0.18393   0.00000  Uiso   1.00
O488   O     0.16667   0.79511   0.31608   0.00000  Uiso   1.00
O489   O     0.16667   0.87156   0.31608   0.00000  Uiso   1.00
O490   O     0.16666   0.79511   0.18393   0.00000  Uiso   1.00
C491   C     0.16703   0.83324   0.16353   0.00000  Uiso   1.00
C492   C     0.16615   0.83342   0.33652   0.00000  Uiso   1.00
Zn493  Zn    0.16667   0.88437   0.25000   0.00000  Uiso   1.00
Zn494  Zn    0.16667   0.78229   0.25000   0.00000  Uiso   1.00
C495   C     0.20322   0.84130   0.40633   0.00000  Uiso   1.00
C496   C     0.12975   0.82521   0.09396   0.00000  Uiso   1.00
C497   C     0.16600   0.83358   0.38418   0.00000  Uiso   1.00
C498   C     0.16696   0.83320   0.11597   0.00000  Uiso   1.00
C499   C     0.12885   0.82589   0.40716   0.00000  Uiso   1.00
C500   C     0.20376   0.84241   0.09299   0.00000  Uiso   1.00
C501   C     0.12854   0.82658   0.45372   0.00000  Uiso   1.00
C502   C     0.20376   0.84275   0.04649   0.00000  Uiso   1.00
C503   C     0.16614   0.83479   0.47673   0.00000  Uiso   1.00
C504   C     0.16618   0.83478   0.02349   0.00000  Uiso   1.00
C505   C     0.20380   0.84227   0.45289   0.00000  Uiso   1.00
C506   C     0.12877   0.82638   0.04737   0.00000  Uiso   1.00
C507   C     0.09142   0.81912   0.47748   0.00000  Uiso   1.00
C508   C     0.24074   0.85049   0.02283   0.00000  Uiso   1.00
C509   C     0.09124   0.81954   0.02434   0.00000  Uiso   1.00
C510   C     0.24109   0.85061   0.47601   0.00000  Uiso   1.00
H511   H     0.23152   0.84618   0.38708   0.00000  Uiso   1.00
H512   H     0.10177   0.81875   0.11343   0.00000  Uiso   1.00
H513   H     0.10043   0.81949   0.38874   0.00000  Uiso   1.00
H514   H     0.23219   0.84893   0.11136   0.00000  Uiso   1.00
H515   H     0.06260   0.81285   0.45981   0.00000  Uiso   1.00
H516   H     0.26950   0.85602   0.04056   0.00000  Uiso   1.00
C517   C     0.02104   0.79846   0.22685   0.00000  Uiso   1.00
C518   C     0.31234   0.86893   0.27166   0.00000  Uiso   1.00
C519   C     0.31165   0.80025   0.22429   0.00000  Uiso   1.00
C520   C     0.02170   0.86708   0.27428   0.00000  Uiso   1.00
C521   C     0.29083   0.83473   0.24781   0.00000  Uiso   1.00
C522   C     0.04249   0.83220   0.25133   0.00000  Uiso   1.00
C523   C     0.18728   0.69114   0.28237   0.00000  Uiso   1.00
C524   C     0.14610   0.97552   0.21759   0.00000  Uiso   1.00
C525   C     0.14621   0.69015   0.21752   0.00000  Uiso   1.00
C526   C     0.18724   0.97652   0.28240   0.00000  Uiso   1.00
H527   H     0.20381   0.70969   0.30823   0.00000  Uiso   1.00
H528   H     0.12959   0.95698   0.19172   0.00000  Uiso   1.00
H529   H     0.12993   0.70790   0.19149   0.00000  Uiso   1.00
H530   H     0.20367   0.95876   0.30832   0.00000  Uiso   1.00
N531   N     0.16667   0.95240   0.25000   0.00000  Uiso   1.00
N532   N     0.16667   0.71427   0.25000   0.00000  Uiso   1.00
O533   O     0.05470   0.81115   0.04769   0.00000  Uiso   1.00
C534   C     0.03349   0.85238   0.05388   0.00000  Uiso   1.00
H535   H     0.01341   0.85834   0.02441   0.00000  Uiso   1.00
H536   H     0.05473   0.88228   0.05836   0.00000  Uiso   1.00
C537   C     0.00636   0.84914   0.09586   0.00000  Uiso   1.00
H538   H     0.02608   0.84620   0.12606   0.00000  Uiso   1.00
H539   H     0.32073   0.88011   0.09940   0.00000  Uiso   1.00
H540   H     0.31870   0.81908   0.09368   0.00000  Uiso   1.00
O541   O     0.27843   0.85496   0.45308   0.00000  Uiso   1.00
C542   C     0.28974   0.90127   0.45135   0.00000  Uiso   1.00
H543   H     0.29283   0.91614   0.48567   0.00000  Uiso   1.00
H544   H     0.26635   0.92063   0.43221   0.00000  Uiso   1.00
C545   C     0.33151   0.90617   0.42753   0.00000  Uiso   1.00
H546   H     0.33000   0.89055   0.39358   0.00000  Uiso   1.00
H547   H     0.00658   0.94259   0.42415   0.00000  Uiso   1.00
H548   H     0.02263   0.88915   0.44703   0.00000  Uiso   1.00
N549   N     0.04252   0.76324   0.20323   0.00000  Uiso   1.00
O550   O     0.05011   0.72543   0.22361   0.00000  Uiso   1.00
O551   O     0.04747   0.76559   0.15993   0.00000  Uiso   1.00
N552   N     0.29097   0.90440   0.29504   0.00000  Uiso   1.00
O553   O     0.28936   0.94466   0.27766   0.00000  Uiso   1.00
O554   O     0.27063   0.89573   0.33194   0.00000  Uiso   1.00
N555   N     0.28971   0.76809   0.19644   0.00000  Uiso   1.00
O556   O     0.26578   0.78211   0.16456   0.00000  Uiso   1.00
O557   O     0.29424   0.72480   0.20224   0.00000  Uiso   1.00
N558   N     0.04355   0.89886   0.30262   0.00000  Uiso   1.00
O559   O     0.06640   0.88442   0.33524   0.00000  Uiso   1.00
O560   O     0.04138   0.94217   0.29536   0.00000  Uiso   1.00
O561   O     0.43892   0.87154   0.25000   0.00000  Uiso   1.00
O562   O     0.56108   0.79513   0.25001   0.00000  Uiso   1.00
O563   O     0.56108   0.87154   0.25001   0.00000  Uiso   1.00
O564   O     0.43892   0.79513   0.25000   0.00000  Uiso   1.00
C565   C     0.42002   0.83297   0.25045   0.00000  Uiso   1.00
C566   C     0.57998   0.83372   0.24922   0.00000  Uiso   1.00
O567   O     0.49999   0.87156   0.18393   0.00000  Uiso   1.00
O568   O     0.50001   0.79511   0.31608   0.00000  Uiso   1.00
O569   O     0.50001   0.87156   0.31608   0.00000  Uiso   1.00
O570   O     0.49999   0.79511   0.18393   0.00000  Uiso   1.00
C571   C     0.50037   0.83324   0.16353   0.00000  Uiso   1.00
C572   C     0.49949   0.83342   0.33652   0.00000  Uiso   1.00
Zn573  Zn    0.50000   0.88437   0.25000   0.00000  Uiso   1.00
Zn574  Zn    0.50000   0.78229   0.25000   0.00000  Uiso   1.00
C575   C     0.53655   0.84130   0.40633   0.00000  Uiso   1.00
C576   C     0.46308   0.82521   0.09396   0.00000  Uiso   1.00
C577   C     0.49934   0.83358   0.38418   0.00000  Uiso   1.00
C578   C     0.50030   0.83320   0.11597   0.00000  Uiso   1.00
C579   C     0.46218   0.82589   0.40716   0.00000  Uiso   1.00
C580   C     0.53709   0.84241   0.09299   0.00000  Uiso   1.00
C581   C     0.46187   0.82658   0.45372   0.00000  Uiso   1.00
C582   C     0.53710   0.84275   0.04649   0.00000  Uiso   1.00
C583   C     0.49947   0.83479   0.47673   0.00000  Uiso   1.00
C584   C     0.49951   0.83478   0.02349   0.00000  Uiso   1.00
C585   C     0.53713   0.84227   0.45289   0.00000  Uiso   1.00
C586   C     0.46210   0.82638   0.04737   0.00000  Uiso   1.00
C587   C     0.42475   0.81912   0.47748   0.00000  Uiso   1.00
C588   C     0.57408   0.85049   0.02283   0.00000  Uiso   1.00
C589   C     0.42457   0.81954   0.02434   0.00000  Uiso   1.00
C590   C     0.57442   0.85061   0.47601   0.00000  Uiso   1.00
H591   H     0.56485   0.84618   0.38708   0.00000  Uiso   1.00
H592   H     0.43510   0.81875   0.11343   0.00000  Uiso   1.00
H593   H     0.43376   0.81949   0.38874   0.00000  Uiso   1.00
H594   H     0.56553   0.84893   0.11136   0.00000  Uiso   1.00
H595   H     0.39594   0.81285   0.45981   0.00000  Uiso   1.00
H596   H     0.60283   0.85602   0.04056   0.00000  Uiso   1.00
C597   C     0.35437   0.79846   0.22685   0.00000  Uiso   1.00
C598   C     0.64568   0.86893   0.27166   0.00000  Uiso   1.00
C599   C     0.64498   0.80025   0.22429   0.00000  Uiso   1.00
C600   C     0.35503   0.86708   0.27428   0.00000  Uiso   1.00
C601   C     0.62417   0.83473   0.24781   0.00000  Uiso   1.00
C602   C     0.37583   0.83220   0.25133   0.00000  Uiso   1.00
C603   C     0.52061   0.69114   0.28237   0.00000  Uiso   1.00
C604   C     0.47943   0.97552   0.21759   0.00000  Uiso   1.00
C605   C     0.47954   0.69015   0.21752   0.00000  Uiso   1.00
C606   C     0.52058   0.97652   0.28240   0.00000  Uiso   1.00
H607   H     0.53715   0.70969   0.30823   0.00000  Uiso   1.00
H608   H     0.46292   0.95698   0.19172   0.00000  Uiso   1.00
H609   H     0.46326   0.70790   0.19149   0.00000  Uiso   1.00
H610   H     0.53700   0.95876   0.30832   0.00000  Uiso   1.00
N611   N     0.50000   0.95240   0.25000   0.00000  Uiso   1.00
N612   N     0.50000   0.71427   0.25000   0.00000  Uiso   1.00
O613   O     0.38803   0.81115   0.04769   0.00000  Uiso   1.00
C614   C     0.36682   0.85238   0.05388   0.00000  Uiso   1.00
H615   H     0.34675   0.85834   0.02441   0.00000  Uiso   1.00
H616   H     0.38806   0.88228   0.05836   0.00000  Uiso   1.00
C617   C     0.33969   0.84914   0.09586   0.00000  Uiso   1.00
H618   H     0.35941   0.84620   0.12606   0.00000  Uiso   1.00
H619   H     0.65406   0.88011   0.09940   0.00000  Uiso   1.00
H620   H     0.65204   0.81908   0.09368   0.00000  Uiso   1.00
O621   O     0.61177   0.85496   0.45308   0.00000  Uiso   1.00
C622   C     0.62308   0.90127   0.45135   0.00000  Uiso   1.00
H623   H     0.62616   0.91614   0.48567   0.00000  Uiso   1.00
H624   H     0.59969   0.92063   0.43221   0.00000  Uiso   1.00
C625   C     0.66485   0.90617   0.42753   0.00000  Uiso   1.00
H626   H     0.66333   0.89055   0.39358   0.00000  Uiso   1.00
H627   H     0.33991   0.94259   0.42415   0.00000  Uiso   1.00
H628   H     0.35597   0.88915   0.44703   0.00000  Uiso   1.00
N629   N     0.37585   0.76324   0.20323   0.00000  Uiso   1.00
O630   O     0.38344   0.72543   0.22361   0.00000  Uiso   1.00
O631   O     0.38080   0.76559   0.15993   0.00000  Uiso   1.00
N632   N     0.62431   0.90440   0.29504   0.00000  Uiso   1.00
O633   O     0.62269   0.94466   0.27766   0.00000  Uiso   1.00
O634   O     0.60397   0.89573   0.33194   0.00000  Uiso   1.00
N635   N     0.62304   0.76809   0.19644   0.00000  Uiso   1.00
O636   O     0.59911   0.78211   0.16456   0.00000  Uiso   1.00
O637   O     0.62758   0.72480   0.20224   0.00000  Uiso   1.00
N638   N     0.37688   0.89886   0.30262   0.00000  Uiso   1.00
O639   O     0.39974   0.88442   0.33524   0.00000  Uiso   1.00
O640   O     0.37471   0.94217   0.29536   0.00000  Uiso   1.00
O641   O     0.77226   0.87154   0.25000   0.00000  Uiso   1.00
O642   O     0.89441   0.79513   0.25001   0.00000  Uiso   1.00
O643   O     0.89441   0.87154   0.25001   0.00000  Uiso   1.00
O644   O     0.77226   0.79513   0.25000   0.00000  Uiso   1.00
C645   C     0.75335   0.83297   0.25045   0.00000  Uiso   1.00
C646   C     0.91331   0.83372   0.24922   0.00000  Uiso   1.00
O647   O     0.83333   0.87156   0.18393   0.00000  Uiso   1.00
O648   O     0.83334   0.79511   0.31608   0.00000  Uiso   1.00
O649   O     0.83334   0.87156   0.31608   0.00000  Uiso   1.00
O650   O     0.83333   0.79511   0.18393   0.00000  Uiso   1.00
C651   C     0.83370   0.83324   0.16353   0.00000  Uiso   1.00
C652   C     0.83282   0.83342   0.33652   0.00000  Uiso   1.00
Zn653  Zn    0.83333   0.88437   0.25000   0.00000  Uiso   1.00
Zn654  Zn    0.83333   0.78229   0.25000   0.00000  Uiso   1.00
C655   C     0.86988   0.84130   0.40633   0.00000  Uiso   1.00
C656   C     0.79642   0.82521   0.09396   0.00000  Uiso   1.00
C657   C     0.83267   0.83358   0.38418   0.00000  Uiso   1.00
C658   C     0.83363   0.83320   0.11597   0.00000  Uiso   1.00
C659   C     0.79552   0.82589   0.40716   0.00000  Uiso   1.00
C660   C     0.87042   0.84241   0.09299   0.00000  Uiso   1.00
C661   C     0.79520   0.82658   0.45372   0.00000  Uiso   1.00
C662   C     0.87043   0.84275   0.04649   0.00000  Uiso   1.00
C663   C     0.83280   0.83479   0.47673   0.00000  Uiso   1.00
C664   C     0.83285   0.83478   0.02349   0.00000  Uiso   1.00
C665   C     0.87046   0.84227   0.45289   0.00000  Uiso   1.00
C666   C     0.79543   0.82638   0.04737   0.00000  Uiso   1.00
C667   C     0.75808   0.81912   0.47748   0.00000  Uiso   1.00
C668   C     0.90741   0.85049   0.02283   0.00000  Uiso   1.00
C669   C     0.75791   0.81954   0.02434   0.00000  Uiso   1.00
C670   C     0.90775   0.85061   0.47601   0.00000  Uiso   1.00
H671   H     0.89819   0.84618   0.38708   0.00000  Uiso   1.00
H672   H     0.76843   0.81875   0.11343   0.00000  Uiso   1.00
H673   H     0.76710   0.81949   0.38874   0.00000  Uiso   1.00
H674   H     0.89886   0.84893   0.11136   0.00000  Uiso   1.00
H675   H     0.72927   0.81285   0.45981   0.00000  Uiso   1.00
H676   H     0.93617   0.85602   0.04056   0.00000  Uiso   1.00
C677   C     0.68771   0.79846   0.22685   0.00000  Uiso   1.00
C678   C     0.97901   0.86893   0.27166   0.00000  Uiso   1.00
C679   C     0.97832   0.80025   0.22429   0.00000  Uiso   1.00
C680   C     0.68836   0.86708   0.27428   0.00000  Uiso   1.00
C681   C     0.95750   0.83473   0.24781   0.00000  Uiso   1.00
C682   C     0.70916   0.83220   0.25133   0.00000  Uiso   1.00
C683   C     0.85394   0.69114   0.28237   0.00000  Uiso   1.00
C684   C     0.81277   0.97552   0.21759   0.00000  Uiso   1.00
C685   C     0.81287   0.69015   0.21752   0.00000  Uiso   1.00
C686   C     0.85391   0.97652   0.28240   0.00000  Uiso   1.00
H687   H     0.87048   0.70969   0.30823   0.00000  Uiso   1.00
H688   H     0.79625   0.95698   0.19172   0.00000  Uiso   1.00
H689   H     0.79659   0.70790   0.19149   0.00000  Uiso   1.00
H690   H     0.87033   0.95876   0.30832   0.00000  Uiso   1.00
N691   N     0.83333   0.95240   0.25000   0.00000  Uiso   1.00
N692   N     0.83333   0.71427   0.25000   0.00000  Uiso   1.00
O693   O     0.72137   0.81115   0.04769   0.00000  Uiso   1.00
C694   C     0.70015   0.85238   0.05388   0.00000  Uiso   1.00
H695   H     0.68008   0.85834   0.02441   0.00000  Uiso   1.00
H696   H     0.72139   0.88228   0.05836   0.00000  Uiso   1.00
C697   C     0.67302   0.84914   0.09586   0.00000  Uiso   1.00
H698   H     0.69275   0.84620   0.12606   0.00000  Uiso   1.00
H699   H     0.98739   0.88011   0.09940   0.00000  Uiso   1.00
H700   H     0.98537   0.81908   0.09368   0.00000  Uiso   1.00
O701   O     0.94510   0.85496   0.45308   0.00000  Uiso   1.00
C702   C     0.95641   0.90127   0.45135   0.00000  Uiso   1.00
H703   H     0.95950   0.91614   0.48567   0.00000  Uiso   1.00
H704   H     0.93302   0.92063   0.43221   0.00000  Uiso   1.00
C705   C     0.99818   0.90617   0.42753   0.00000  Uiso   1.00
H706   H     0.99667   0.89055   0.39358   0.00000  Uiso   1.00
H707   H     0.67324   0.94259   0.42415   0.00000  Uiso   1.00
H708   H     0.68930   0.88915   0.44703   0.00000  Uiso   1.00
N709   N     0.70919   0.76324   0.20323   0.00000  Uiso   1.00
O710   O     0.71677   0.72543   0.22361   0.00000  Uiso   1.00
O711   O     0.71414   0.76559   0.15993   0.00000  Uiso   1.00
N712   N     0.95764   0.90440   0.29504   0.00000  Uiso   1.00
O713   O     0.95603   0.94466   0.27766   0.00000  Uiso   1.00
O714   O     0.93730   0.89573   0.33194   0.00000  Uiso   1.00
N715   N     0.95637   0.76809   0.19644   0.00000  Uiso   1.00
O716   O     0.93244   0.78211   0.16456   0.00000  Uiso   1.00
O717   O     0.96091   0.72480   0.20224   0.00000  Uiso   1.00
N718   N     0.71022   0.89886   0.30262   0.00000  Uiso   1.00
O719   O     0.73307   0.88442   0.33524   0.00000  Uiso   1.00
O720   O     0.70805   0.94217   0.29536   0.00000  Uiso   1.00
O721   O     0.10559   0.20487   0.75000   0.00000  Uiso   1.00
O722   O     0.22774   0.12846   0.75001   0.00000  Uiso   1.00
O723   O     0.22774   0.20487   0.75001   0.00000  Uiso   1.00
O724   O     0.10559   0.12846   0.75000   0.00000  Uiso   1.00
C725   C     0.08668   0.16630   0.75045   0.00000  Uiso   1.00
C726   C     0.24664   0.16706   0.74922   0.00000  Uiso   1.00
O727   O     0.16666   0.20489   0.68393   0.00000  Uiso   1.00
O728   O     0.16667   0.12844   0.81608   0.00000  Uiso   1.00
O729   O     0.16667   0.20489   0.81608   0.00000  Uiso   1.00
O730   O     0.16666   0.12844   0.68393   0.00000  Uiso   1.00
C731   C     0.16703   0.16658   0.66353   0.00000  Uiso   1.00
C732   C     0.16615   0.16675   0.83652   0.00000  Uiso   1.00
Zn733  Zn    0.16667   0.21771   0.75000   0.00000  Uiso   1.00
Zn734  Zn    0.16667   0.11563   0.75000   0.00000  Uiso   1.00
C735   C     0.20322   0.17463   0.90633   0.00000  Uiso   1.00
C736   C     0.12975   0.15855   0.59396   0.00000  Uiso   1.00
C737   C     0.16600   0.16692   0.88418   0.00000  Uiso   1.00
C738   C     0.16696   0.16653   0.61597   0.00000  Uiso   1.00
C739   C     0.12885   0.15922   0.90716   0.00000  Uiso   1.00
C740   C     0.20376   0.17575   0.59299   0.00000  Uiso   1.00
C741   C     0.12854   0.15992   0.95372   0.00000  Uiso   1.00
C742   C     0.20376   0.17609   0.54649   0.00000  Uiso   1.00
C743   C     0.16614   0.16812   0.97673   0.00000  Uiso   1.00
C744   C     0.16618   0.16812   0.52349   0.00000  Uiso   1.00
C745   C     0.20380   0.17560   0.95289   0.00000  Uiso   1.00
C746   C     0.12877   0.15971   0.54737   0.00000  Uiso   1.00
C747   C     0.09142   0.15245   0.97748   0.00000  Uiso   1.00
C748   C     0.24074   0.18382   0.52283   0.00000  Uiso   1.00
C749   C     0.09124   0.15287   0.52434   0.00000  Uiso   1.00
C750   C     0.24109   0.18394   0.97601   0.00000  Uiso   1.00
H751   H     0.23152   0.17951   0.88708   0.00000  Uiso   1.00
H752   H     0.10177   0.15208   0.61343   0.00000  Uiso   1.00
H753   H     0.10043   0.15282   0.88874   0.00000  Uiso   1.00
H754   H     0.23219   0.18226   0.61136   0.00000  Uiso   1.00
H755   H     0.06260   0.14618   0.95981   0.00000  Uiso   1.00
H756   H     0.26950   0.18935   0.54056   0.00000  Uiso   1.00
C757   C     0.02104   0.13180   0.72685   0.00000  Uiso   1.00
C758   C     0.31234   0.20226   0.77166   0.00000  Uiso   1.00
C759   C     0.31165   0.13358   0.72429   0.00000  Uiso   1.00
C760   C     0.02170   0.20042   0.77428   0.00000  Uiso   1.00
C761   C     0.29083   0.16807   0.74781   0.00000  Uiso   1.00
C762   C     0.04249   0.16554   0.75133   0.00000  Uiso   1.00
C763   C     0.18728   0.02448   0.78237   0.00000  Uiso   1.00
C764   C     0.14610   0.30886   0.71759   0.00000  Uiso   1.00
C765   C     0.14621   0.02348   0.71752   0.00000  Uiso   1.00
C766   C     0.18724   0.30985   0.78240   0.00000  Uiso   1.00
H767   H     0.20381   0.04302   0.80823   0.00000  Uiso   1.00
H768   H     0.12959   0.29031   0.69172   0.00000  Uiso   1.00
H769   H     0.12993   0.04124   0.69149   0.00000  Uiso   1.00
H770   H     0.20367   0.29210   0.80832   0.00000  Uiso   1.00
N771   N     0.16667   0.28573   0.75000   0.00000  Uiso   1.00
N772   N     0.16667   0.04760   0.75000   0.00000  Uiso   1.00
O773   O     0.05470   0.14449   0.54769   0.00000  Uiso   1.00
C774   C     0.03349   0.18571   0.55388   0.00000  Uiso   1.00
H775   H     0.01341   0.19167   0.52441   0.00000  Uiso   1.00
H776   H     0.05473   0.21561   0.55836   0.00000  Uiso   1.00
C777   C     0.00636   0.18247   0.59586   0.00000  Uiso   1.00
H778   H     0.02608   0.17953   0.62606   0.00000  Uiso   1.00
H779   H     0.32073   0.21345   0.59940   0.00000  Uiso   1.00
H780   H     0.31870   0.15241   0.59368   0.00000  Uiso   1.00
O781   O     0.27843   0.18829   0.95308   0.00000  Uiso   1.00
C782   C     0.28974   0.23461   0.95135   0.00000  Uiso   1.00
H783   H     0.29283   0.24947   0.98567   0.00000  Uiso   1.00
H784   H     0.26635   0.25397   0.93221   0.00000  Uiso   1.00
C785   C     0.33151   0.23950   0.92753   0.00000  Uiso   1.00
H786   H     0.33000   0.22389   0.89358   0.00000  Uiso   1.00
H787   H     0.00658   0.27593   0.92415   0.00000  Uiso   1.00
H788   H     0.02263   0.22248   0.94703   0.00000  Uiso   1.00
N789   N     0.04252   0.09657   0.70323   0.00000  Uiso   1.00
O790   O     0.05011   0.05876   0.72361   0.00000  Uiso   1.00
O791   O     0.04747   0.09893   0.65993   0.00000  Uiso   1.00
N792   N     0.29097   0.23774   0.79504   0.00000  Uiso   1.00
O793   O     0.28936   0.27799   0.77766   0.00000  Uiso   1.00
O794   O     0.27063   0.22906   0.83194   0.00000  Uiso   1.00
N795   N     0.28971   0.10143   0.69644   0.00000  Uiso   1.00
O796   O     0.26578   0.11545   0.66456   0.00000  Uiso   1.00
O797   O     0.29424   0.05813   0.70224   0.00000  Uiso   1.00
N798   N     0.04355   0.23219   0.80262   0.00000  Uiso   1.00
O799   O     0.06640   0.21775   0.83524   0.00000  Uiso   1.00
O800   O     0.04138   0.27550   0.79536   0.00000  Uiso   1.00
O801   O     0.43892   0.20487   0.75000   0.00000  Uiso   1.00
O802   O     0.56108   0.12846   0.75001   0.00000  Uiso   1.00
O803   O     0.56108   0.20487   0.75001   0.00000  Uiso   1.00
O804   O     0.43892   0.12846   0.75000   0.00000  Uiso   1.00
C805   C     0.42002   0.16630   0.75045   0.00000  Uiso   1.00
C806   C     0.57998   0.16706   0.74922   0.00000  Uiso   1.00
O807   O     0.49999   0.20489   0.68393   0.00000  Uiso   1.00
O808   O     0.50001   0.12844   0.81608   0.00000  Uiso   1.00
O809   O     0.50001   0.20489   0.81608   0.00000  Uiso   1.00
O810   O     0.49999   0.12844   0.68393   0.00000  Uiso   1.00
C811   C     0.50037   0.16658   0.66353   0.00000  Uiso   1.00
C812   C     0.49949   0.16675   0.83652   0.00000  Uiso   1.00
Zn813  Zn    0.50000   0.21771   0.75000   0.00000  Uiso   1.00
Zn814  Zn    0.50000   0.11563   0.75000   0.00000  Uiso   1.00
C815   C     0.53655   0.17463   0.90633   0.00000  Uiso   1.00
C816   C     0.46308   0.15855   0.59396   0.00000  Uiso   1.00
C817   C     0.49934   0.16692   0.88418   0.00000  Uiso   1.00
C818   C     0.50030   0.16653   0.61597   0.00000  Uiso   1.00
C819   C     0.46218   0.15922   0.90716   0.00000  Uiso   1.00
C820   C     0.53709   0.17575   0.59299   0.00000  Uiso   1.00
C821   C     0.46187   0.15992   0.95372   0.00000  Uiso   1.00
C822   C     0.53710   0.17609   0.54649   0.00000  Uiso   1.00
C823   C     0.49947   0.16812   0.97673   0.00000  Uiso   1.00
C824   C     0.49951   0.16812   0.52349   0.00000  Uiso   1.00
C825   C     0.53713   0.17560   0.95289   0.00000  Uiso   1.00
C826   C     0.46210   0.15971   0.54737   0.00000  Uiso   1.00
C827   C     0.42475   0.15245   0.97748   0.00000  Uiso   1.00
C828   C     0.57408   0.18382   0.52283   0.00000  Uiso   1.00
C829   C     0.42457   0.15287   0.52434   0.00000  Uiso   1.00
C830   C     0.57442   0.18394   0.97601   0.00000  Uiso   1.00
H831   H     0.56485   0.17951   0.88708   0.00000  Uiso   1.00
H832   H     0.43510   0.15208   0.61343   0.00000  Uiso   1.00
H833   H     0.43376   0.15282   0.88874   0.00000  Uiso   1.00
H834   H     0.56553   0.18226   0.61136   0.00000  Uiso   1.00
H835   H     0.39594   0.14618   0.95981   0.00000  Uiso   1.00
H836   H     0.60283   0.18935   0.54056   0.00000  Uiso   1.00
C837   C     0.35437   0.13180   0.72685   0.00000  Uiso   1.00
C838   C     0.64568   0.20226   0.77166   0.00000  Uiso   1.00
C839   C     0.64498   0.13358   0.72429   0.00000  Uiso   1.00
C840   C     0.35503   0.20042   0.77428   0.00000  Uiso   1.00
C841   C     0.62417   0.16807   0.74781   0.00000  Uiso   1.00
C842   C     0.37583   0.16554   0.75133   0.00000  Uiso   1.00
C843   C     0.52061   0.02448   0.78237   0.00000  Uiso   1.00
C844   C     0.47943   0.30886   0.71759   0.00000  Uiso   1.00
C845   C     0.47954   0.02348   0.71752   0.00000  Uiso   1.00
C846   C     0.52058   0.30985   0.78240   0.00000  Uiso   1.00
H847   H     0.53715   0.04302   0.80823   0.00000  Uiso   1.00
H848   H     0.46292   0.29031   0.69172   0.00000  Uiso   1.00
H849   H     0.46326   0.04124   0.69149   0.00000  Uiso   1.00
H850   H     0.53700   0.29210   0.80832   0.00000  Uiso   1.00
N851   N     0.50000   0.28573   0.75000   0.00000  Uiso   1.00
N852   N     0.50000   0.04760   0.75000   0.00000  Uiso   1.00
O853   O     0.38803   0.14449   0.54769   0.00000  Uiso   1.00
C854   C     0.36682   0.18571   0.55388   0.00000  Uiso   1.00
H855   H     0.34675   0.19167   0.52441   0.00000  Uiso   1.00
H856   H     0.38806   0.21561   0.55836   0.00000  Uiso   1.00
C857   C     0.33969   0.18247   0.59586   0.00000  Uiso   1.00
H858   H     0.35941   0.17953   0.62606   0.00000  Uiso   1.00
H859   H     0.65406   0.21345   0.59940   0.00000  Uiso   1.00
H860   H     0.65204   0.15241   0.59368   0.00000  Uiso   1.00
O861   O     0.61177   0.18829   0.95308   0.00000  Uiso   1.00
C862   C     0.62308   0.23461   0.95135   0.00000  Uiso   1.00
H863   H     0.62616   0.24947   0.98567   0.00000  Uiso   1.00
H864   H     0.59969   0.25397   0.93221   0.00000  Uiso   1.00
C865   C     0.66485   0.23950   0.92753   0.00000  Uiso   1.00
H866   H     0.66333   0.22389   0.89358   0.00000  Uiso   1.00
H867   H     0.33991   0.27593   0.92415   0.00000  Uiso   1.00
H868   H     0.35597   0.22248   0.94703   0.00000  Uiso   1.00
N869   N     0.37585   0.09657   0.70323   0.00000  Uiso   1.00
O870   O     0.38344   0.05876   0.72361   0.00000  Uiso   1.00
O871   O     0.38080   0.09893   0.65993   0.00000  Uiso   1.00
N872   N     0.62431   0.23774   0.79504   0.00000  Uiso   1.00
O873   O     0.62269   0.27799   0.77766   0.00000  Uiso   1.00
O874   O     0.60397   0.22906   0.83194   0.00000  Uiso   1.00
N875   N     0.62304   0.10143   0.69644   0.00000  Uiso   1.00
O876   O     0.59911   0.11545   0.66456   0.00000  Uiso   1.00
O877   O     0.62758   0.05813   0.70224   0.00000  Uiso   1.00
N878   N     0.37688   0.23219   0.80262   0.00000  Uiso   1.00
O879   O     0.39974   0.21775   0.83524   0.00000  Uiso   1.00
O880   O     0.37471   0.27550   0.79536   0.00000  Uiso   1.00
O881   O     0.77226   0.20487   0.75000   0.00000  Uiso   1.00
O882   O     0.89441   0.12846   0.75001   0.00000  Uiso   1.00
O883   O     0.89441   0.20487   0.75001   0.00000  Uiso   1.00
O884   O     0.77226   0.12846   0.75000   0.00000  Uiso   1.00
C885   C     0.75335   0.16630   0.75045   0.00000  Uiso   1.00
C886   C     0.91331   0.16706   0.74922   0.00000  Uiso   1.00
O887   O     0.83333   0.20489   0.68393   0.00000  Uiso   1.00
O888   O     0.83334   0.12844   0.81608   0.00000  Uiso   1.00
O889   O     0.83334   0.20489   0.81608   0.00000  Uiso   1.00
O890   O     0.83333   0.12844   0.68393   0.00000  Uiso   1.00
C891   C     0.83370   0.16658   0.66353   0.00000  Uiso   1.00
C892   C     0.83282   0.16675   0.83652   0.00000  Uiso   1.00
Zn893  Zn    0.83333   0.21771   0.75000   0.00000  Uiso   1.00
Zn894  Zn    0.83333   0.11563   0.75000   0.00000  Uiso   1.00
C895   C     0.86988   0.17463   0.90633   0.00000  Uiso   1.00
C896   C     0.79642   0.15855   0.59396   0.00000  Uiso   1.00
C897   C     0.83267   0.16692   0.88418   0.00000  Uiso   1.00
C898   C     0.83363   0.16653   0.61597   0.00000  Uiso   1.00
C899   C     0.79552   0.15922   0.90716   0.00000  Uiso   1.00
C900   C     0.87042   0.17575   0.59299   0.00000  Uiso   1.00
C901   C     0.79520   0.15992   0.95372   0.00000  Uiso   1.00
C902   C     0.87043   0.17609   0.54649   0.00000  Uiso   1.00
C903   C     0.83280   0.16812   0.97673   0.00000  Uiso   1.00
C904   C     0.83285   0.16812   0.52349   0.00000  Uiso   1.00
C905   C     0.87046   0.17560   0.95289   0.00000  Uiso   1.00
C906   C     0.79543   0.15971   0.54737   0.00000  Uiso   1.00
C907   C     0.75808   0.15245   0.97748   0.00000  Uiso   1.00
C908   C     0.90741   0.18382   0.52283   0.00000  Uiso   1.00
C909   C     0.75791   0.15287   0.52434   0.00000  Uiso   1.00
C910   C     0.90775   0.18394   0.97601   0.00000  Uiso   1.00
H911   H     0.89819   0.17951   0.88708   0.00000  Uiso   1.00
H912   H     0.76843   0.15208   0.61343   0.00000  Uiso   1.00
H913   H     0.76710   0.15282   0.88874   0.00000  Uiso   1.00
H914   H     0.89886   0.18226   0.61136   0.00000  Uiso   1.00
H915   H     0.72927   0.14618   0.95981   0.00000  Uiso   1.00
H916   H     0.93617   0.18935   0.54056   0.00000  Uiso   1.00
C917   C     0.68771   0.13180   0.72685   0.00000  Uiso   1.00
C918   C     0.97901   0.20226   0.77166   0.00000  Uiso   1.00
C919   C     0.97832   0.13358   0.72429   0.00000  Uiso   1.00
C920   C     0.68836   0.20042   0.77428   0.00000  Uiso   1.00
C921   C     0.95750   0.16807   0.74781   0.00000  Uiso   1.00
C922   C     0.70916   0.16554   0.75133   0.00000  Uiso   1.00
C923   C     0.85394   0.02448   0.78237   0.00000  Uiso   1.00
C924   C     0.81277   0.30886   0.71759   0.00000  Uiso   1.00
C925   C     0.81287   0.02348   0.71752   0.00000  Uiso   1.00
C926   C     0.85391   0.30985   0.78240   0.00000  Uiso   1.00
H927   H     0.87048   0.04302   0.80823   0.00000  Uiso   1.00
H928   H     0.79625   0.29031   0.69172   0.00000  Uiso   1.00
H929   H     0.79659   0.04124   0.69149   0.00000  Uiso   1.00
H930   H     0.87033   0.29210   0.80832   0.00000  Uiso   1.00
N931   N     0.83333   0.28573   0.75000   0.00000  Uiso   1.00
N932   N     0.83333   0.04760   0.75000   0.00000  Uiso   1.00
O933   O     0.72137   0.14449   0.54769   0.00000  Uiso   1.00
C934   C     0.70015   0.18571   0.55388   0.00000  Uiso   1.00
H935   H     0.68008   0.19167   0.52441   0.00000  Uiso   1.00
H936   H     0.72139   0.21561   0.55836   0.00000  Uiso   1.00
C937   C     0.67302   0.18247   0.59586   0.00000  Uiso   1.00
H938   H     0.69275   0.17953   0.62606   0.00000  Uiso   1.00
H939   H     0.98739   0.21345   0.59940   0.00000  Uiso   1.00
H940   H     0.98537   0.15241   0.59368   0.00000  Uiso   1.00
O941   O     0.94510   0.18829   0.95308   0.00000  Uiso   1.00
C942   C     0.95641   0.23461   0.95135   0.00000  Uiso   1.00
H943   H     0.95950   0.24947   0.98567   0.00000  Uiso   1.00
H944   H     0.93302   0.25397   0.93221   0.00000  Uiso   1.00
C945   C     0.99818   0.23950   0.92753   0.00000  Uiso   1.00
H946   H     0.99667   0.22389   0.89358   0.00000  Uiso   1.00
H947   H     0.67324   0.27593   0.92415   0.00000  Uiso   1.00
H948   H     0.68930   0.22248   0.94703   0.00000  Uiso   1.00
N949   N     0.70919   0.09657   0.70323   0.00000  Uiso   1.00
O950   O     0.71677   0.05876   0.72361   0.00000  Uiso   1.00
O951   O     0.71414   0.09893   0.65993   0.00000  Uiso   1.00
N952   N     0.95764   0.23774   0.79504   0.00000  Uiso   1.00
O953   O     0.95603   0.27799   0.77766   0.00000  Uiso   1.00
O954   O     0.93730   0.22906   0.83194   0.00000  Uiso   1.00
N955   N     0.95637   0.10143   0.69644   0.00000  Uiso   1.00
O956   O     0.93244   0.11545   0.66456   0.00000  Uiso   1.00
O957   O     0.96091   0.05813   0.70224   0.00000  Uiso   1.00
N958   N     0.71022   0.23219   0.80262   0.00000  Uiso   1.00
O959   O     0.73307   0.21775   0.83524   0.00000  Uiso   1.00
O960   O     0.70805   0.27550   0.79536   0.00000  Uiso   1.00
O961   O     0.10559   0.53821   0.75000   0.00000  Uiso   1.00
O962   O     0.22774   0.46179   0.75001   0.00000  Uiso   1.00
O963   O     0.22774   0.53821   0.75001   0.00000  Uiso   1.00
O964   O     0.10559   0.46179   0.75000   0.00000  Uiso   1.00
C965   C     0.08668   0.49964   0.75045   0.00000  Uiso   1.00
C966   C     0.24664   0.50039   0.74922   0.00000  Uiso   1.00
O967   O     0.16666   0.53823   0.68393   0.00000  Uiso   1.00
O968   O     0.16667   0.46177   0.81608   0.00000  Uiso   1.00
O969   O     0.16667   0.53823   0.81608   0.00000  Uiso   1.00
O970   O     0.16666   0.46177   0.68393   0.00000  Uiso   1.00
C971   C     0.16703   0.49991   0.66353   0.00000  Uiso   1.00
C972   C     0.16615   0.50008   0.83652   0.00000  Uiso   1.00
Zn973  Zn    0.16667   0.55104   0.75000   0.00000  Uiso   1.00
Zn974  Zn    0.16667   0.44896   0.75000   0.00000  Uiso   1.00
C975   C     0.20322   0.50796   0.90633   0.00000  Uiso   1.00
C976   C     0.12975   0.49188   0.59396   0.00000  Uiso   1.00
C977   C     0.16600   0.50025   0.88418   0.00000  Uiso   1.00
C978   C     0.16696   0.49987   0.61597   0.00000  Uiso   1.00
C979   C     0.12885   0.49255   0.90716   0.00000  Uiso   1.00
C980   C     0.20376   0.50908   0.59299   0.00000  Uiso   1.00
C981   C     0.12854   0.49325   0.95372   0.00000  Uiso   1.00
C982   C     0.20376   0.50942   0.54649   0.00000  Uiso   1.00
C983   C     0.16614   0.50146   0.97673   0.00000  Uiso   1.00
C984   C     0.16618   0.50145   0.52349   0.00000  Uiso   1.00
C985   C     0.20380   0.50894   0.95289   0.00000  Uiso   1.00
C986   C     0.12877   0.49305   0.54737   0.00000  Uiso   1.00
C987   C     0.09142   0.48578   0.97748   0.00000  Uiso   1.00
C988   C     0.24074   0.51716   0.52283   0.00000  Uiso   1.00
C989   C     0.09124   0.48621   0.52434   0.00000  Uiso   1.00
C990   C     0.24109   0.51728   0.97601   0.00000  Uiso   1.00
H991   H     0.23152   0.51285   0.88708   0.00000  Uiso   1.00
H992   H     0.10177   0.48541   0.61343   0.00000  Uiso   1.00
H993   H     0.10043   0.48616   0.88874   0.00000  Uiso   1.00
H994   H     0.23219   0.51559   0.61136   0.00000  Uiso   1.00
H995   H     0.06260   0.47952   0.95981   0.00000  Uiso   1.00
H996   H     0.26950   0.52268   0.54056   0.00000  Uiso   1.00
C997   C     0.02104   0.46513   0.72685   0.00000  Uiso   1.00
C998   C     0.31234   0.53560   0.77166   0.00000  Uiso   1.00
C999   C     0.31165   0.46691   0.72429   0.00000  Uiso   1.00
C1000  C     0.02170   0.53375   0.77428   0.00000  Uiso   1.00
C1001  C     0.29083   0.50140   0.74781   0.00000  Uiso   1.00
C1002  C     0.04249   0.49887   0.75133   0.00000  Uiso   1.00
C1003  C     0.18728   0.35781   0.78237   0.00000  Uiso   1.00
C1004  C     0.14610   0.64219   0.71759   0.00000  Uiso   1.00
C1005  C     0.14621   0.35681   0.71752   0.00000  Uiso   1.00
C1006  C     0.18724   0.64318   0.78240   0.00000  Uiso   1.00
H1007  H     0.20381   0.37636   0.80823   0.00000  Uiso   1.00
H1008  H     0.12959   0.62364   0.69172   0.00000  Uiso   1.00
H1009  H     0.12993   0.37457   0.69149   0.00000  Uiso   1.00
H1010  H     0.20367   0.62543   0.80832   0.00000  Uiso   1.00
N1011  N     0.16667   0.61907   0.75000   0.00000  Uiso   1.00
N1012  N     0.16667   0.38093   0.75000   0.00000  Uiso   1.00
O1013  O     0.05470   0.47782   0.54769   0.00000  Uiso   1.00
C1014  C     0.03349   0.51905   0.55388   0.00000  Uiso   1.00
H1015  H     0.01341   0.52500   0.52441   0.00000  Uiso   1.00
H1016  H     0.05473   0.54894   0.55836   0.00000  Uiso   1.00
C1017  C     0.00636   0.51580   0.59586   0.00000  Uiso   1.00
H1018  H     0.02608   0.51286   0.62606   0.00000  Uiso   1.00
H1019  H     0.32073   0.54678   0.59940   0.00000  Uiso   1.00
H1020  H     0.31870   0.48574   0.59368   0.00000  Uiso   1.00
O1021  O     0.27843   0.52162   0.95308   0.00000  Uiso   1.00
C1022  C     0.28974   0.56794   0.95135   0.00000  Uiso   1.00
H1023  H     0.29283   0.58280   0.98567   0.00000  Uiso   1.00
H1024  H     0.26635   0.58730   0.93221   0.00000  Uiso   1.00
C1025  C     0.33151   0.57284   0.92753   0.00000  Uiso   1.00
H1026  H     0.33000   0.55722   0.89358   0.00000  Uiso   1.00
H1027  H     0.00658   0.60926   0.92415   0.00000  Uiso   1.00
H1028  H     0.02263   0.55581   0.94703   0.00000  Uiso   1.00
N1029  N     0.04252   0.42991   0.70323   0.00000  Uiso   1.00
O1030  O     0.05011   0.39209   0.72361   0.00000  Uiso   1.00
O1031  O     0.04747   0.43226   0.65993   0.00000  Uiso   1.00
N1032  N     0.29097   0.57107   0.79504   0.00000  Uiso   1.00
O1033  O     0.28936   0.61133   0.77766   0.00000  Uiso   1.00
O1034  O     0.27063   0.56240   0.83194   0.00000  Uiso   1.00
N1035  N     0.28971   0.43476   0.69644   0.00000  Uiso   1.00
O1036  O     0.26578   0.44878   0.66456   0.00000  Uiso   1.00
O1037  O     0.29424   0.39146   0.70224   0.00000  Uiso   1.00
N1038  N     0.04355   0.56553   0.80262   0.00000  Uiso   1.00
O1039  O     0.06640   0.55109   0.83524   0.00000  Uiso   1.00
O1040  O     0.04138   0.60884   0.79536   0.00000  Uiso   1.00
O1041  O     0.43892   0.53821   0.75000   0.00000  Uiso   1.00
O1042  O     0.56108   0.46179   0.75001   0.00000  Uiso   1.00
O1043  O     0.56108   0.53821   0.75001   0.00000  Uiso   1.00
O1044  O     0.43892   0.46179   0.75000   0.00000  Uiso   1.00
C1045  C     0.42002   0.49964   0.75045   0.00000  Uiso   1.00
C1046  C     0.57998   0.50039   0.74922   0.00000  Uiso   1.00
O1047  O     0.49999   0.53823   0.68393   0.00000  Uiso   1.00
O1048  O     0.50001   0.46177   0.81608   0.00000  Uiso   1.00
O1049  O     0.50001   0.53823   0.81608   0.00000  Uiso   1.00
O1050  O     0.49999   0.46177   0.68393   0.00000  Uiso   1.00
C1051  C     0.50037   0.49991   0.66353   0.00000  Uiso   1.00
C1052  C     0.49949   0.50008   0.83652   0.00000  Uiso   1.00
Zn1053 Zn    0.50000   0.55104   0.75000   0.00000  Uiso   1.00
Zn1054 Zn    0.50000   0.44896   0.75000   0.00000  Uiso   1.00
C1055  C     0.53655   0.50796   0.90633   0.00000  Uiso   1.00
C1056  C     0.46308   0.49188   0.59396   0.00000  Uiso   1.00
C1057  C     0.49934   0.50025   0.88418   0.00000  Uiso   1.00
C1058  C     0.50030   0.49987   0.61597   0.00000  Uiso   1.00
C1059  C     0.46218   0.49255   0.90716   0.00000  Uiso   1.00
C1060  C     0.53709   0.50908   0.59299   0.00000  Uiso   1.00
C1061  C     0.46187   0.49325   0.95372   0.00000  Uiso   1.00
C1062  C     0.53710   0.50942   0.54649   0.00000  Uiso   1.00
C1063  C     0.49947   0.50146   0.97673   0.00000  Uiso   1.00
C1064  C     0.49951   0.50145   0.52349   0.00000  Uiso   1.00
C1065  C     0.53713   0.50894   0.95289   0.00000  Uiso   1.00
C1066  C     0.46210   0.49305   0.54737   0.00000  Uiso   1.00
C1067  C     0.42475   0.48578   0.97748   0.00000  Uiso   1.00
C1068  C     0.57408   0.51716   0.52283   0.00000  Uiso   1.00
C1069  C     0.42457   0.48621   0.52434   0.00000  Uiso   1.00
C1070  C     0.57442   0.51728   0.97601   0.00000  Uiso   1.00
H1071  H     0.56485   0.51285   0.88708   0.00000  Uiso   1.00
H1072  H     0.43510   0.48541   0.61343   0.00000  Uiso   1.00
H1073  H     0.43376   0.48616   0.88874   0.00000  Uiso   1.00
H1074  H     0.56553   0.51559   0.61136   0.00000  Uiso   1.00
H1075  H     0.39594   0.47952   0.95981   0.00000  Uiso   1.00
H1076  H     0.60283   0.52268   0.54056   0.00000  Uiso   1.00
C1077  C     0.35437   0.46513   0.72685   0.00000  Uiso   1.00
C1078  C     0.64568   0.53560   0.77166   0.00000  Uiso   1.00
C1079  C     0.64498   0.46691   0.72429   0.00000  Uiso   1.00
C1080  C     0.35503   0.53375   0.77428   0.00000  Uiso   1.00
C1081  C     0.62417   0.50140   0.74781   0.00000  Uiso   1.00
C1082  C     0.37583   0.49887   0.75133   0.00000  Uiso   1.00
C1083  C     0.52061   0.35781   0.78237   0.00000  Uiso   1.00
C1084  C     0.47943   0.64219   0.71759   0.00000  Uiso   1.00
C1085  C     0.47954   0.35681   0.71752   0.00000  Uiso   1.00
C1086  C     0.52058   0.64318   0.78240   0.00000  Uiso   1.00
H1087  H     0.53715   0.37636   0.80823   0.00000  Uiso   1.00
H1088  H     0.46292   0.62364   0.69172   0.00000  Uiso   1.00
H1089  H     0.46326   0.37457   0.69149   0.00000  Uiso   1.00
H1090  H     0.53700   0.62543   0.80832   0.00000  Uiso   1.00
N1091  N     0.50000   0.61907   0.75000   0.00000  Uiso   1.00
N1092  N     0.50000   0.38093   0.75000   0.00000  Uiso   1.00
O1093  O     0.38803   0.47782   0.54769   0.00000  Uiso   1.00
C1094  C     0.36682   0.51905   0.55388   0.00000  Uiso   1.00
H1095  H     0.34675   0.52500   0.52441   0.00000  Uiso   1.00
H1096  H     0.38806   0.54894   0.55836   0.00000  Uiso   1.00
C1097  C     0.33969   0.51580   0.59586   0.00000  Uiso   1.00
H1098  H     0.35941   0.51286   0.62606   0.00000  Uiso   1.00
H1099  H     0.65406   0.54678   0.59940   0.00000  Uiso   1.00
H1100  H     0.65204   0.48574   0.59368   0.00000  Uiso   1.00
O1101  O     0.61177   0.52162   0.95308   0.00000  Uiso   1.00
C1102  C     0.62308   0.56794   0.95135   0.00000  Uiso   1.00
H1103  H     0.62616   0.58280   0.98567   0.00000  Uiso   1.00
H1104  H     0.59969   0.58730   0.93221   0.00000  Uiso   1.00
C1105  C     0.66485   0.57284   0.92753   0.00000  Uiso   1.00
H1106  H     0.66333   0.55722   0.89358   0.00000  Uiso   1.00
H1107  H     0.33991   0.60926   0.92415   0.00000  Uiso   1.00
H1108  H     0.35597   0.55581   0.94703   0.00000  Uiso   1.00
N1109  N     0.37585   0.42991   0.70323   0.00000  Uiso   1.00
O1110  O     0.38344   0.39209   0.72361   0.00000  Uiso   1.00
O1111  O     0.38080   0.43226   0.65993   0.00000  Uiso   1.00
N1112  N     0.62431   0.57107   0.79504   0.00000  Uiso   1.00
O1113  O     0.62269   0.61133   0.77766   0.00000  Uiso   1.00
O1114  O     0.60397   0.56240   0.83194   0.00000  Uiso   1.00
N1115  N     0.62304   0.43476   0.69644   0.00000  Uiso   1.00
O1116  O     0.59911   0.44878   0.66456   0.00000  Uiso   1.00
O1117  O     0.62758   0.39146   0.70224   0.00000  Uiso   1.00
N1118  N     0.37688   0.56553   0.80262   0.00000  Uiso   1.00
O1119  O     0.39974   0.55109   0.83524   0.00000  Uiso   1.00
O1120  O     0.37471   0.60884   0.79536   0.00000  Uiso   1.00
O1121  O     0.77226   0.53821   0.75000   0.00000  Uiso   1.00
O1122  O     0.89441   0.46179   0.75001   0.00000  Uiso   1.00
O1123  O     0.89441   0.53821   0.75001   0.00000  Uiso   1.00
O1124  O     0.77226   0.46179   0.75000   0.00000  Uiso   1.00
C1125  C     0.75335   0.49964   0.75045   0.00000  Uiso   1.00
C1126  C     0.91331   0.50039   0.74922   0.00000  Uiso   1.00
O1127  O     0.83333   0.53823   0.68393   0.00000  Uiso   1.00
O1128  O     0.83334   0.46177   0.81608   0.00000  Uiso   1.00
O1129  O     0.83334   0.53823   0.81608   0.00000  Uiso   1.00
O1130  O     0.83333   0.46177   0.68393   0.00000  Uiso   1.00
C1131  C     0.83370   0.49991   0.66353   0.00000  Uiso   1.00
C1132  C     0.83282   0.50008   0.83652   0.00000  Uiso   1.00
Zn1133 Zn    0.83333   0.55104   0.75000   0.00000  Uiso   1.00
Zn1134 Zn    0.83333   0.44896   0.75000   0.00000  Uiso   1.00
C1135  C     0.86988   0.50796   0.90633   0.00000  Uiso   1.00
C1136  C     0.79642   0.49188   0.59396   0.00000  Uiso   1.00
C1137  C     0.83267   0.50025   0.88418   0.00000  Uiso   1.00
C1138  C     0.83363   0.49987   0.61597   0.00000  Uiso   1.00
C1139  C     0.79552   0.49255   0.90716   0.00000  Uiso   1.00
C1140  C     0.87042   0.50908   0.59299   0.00000  Uiso   1.00
C1141  C     0.79520   0.49325   0.95372   0.00000  Uiso   1.00
C1142  C     0.87043   0.50942   0.54649   0.00000  Uiso   1.00
C1143  C     0.83280   0.50146   0.97673   0.00000  Uiso   1.00
C1144  C     0.83285   0.50145   0.52349   0.00000  Uiso   1.00
C1145  C     0.87046   0.50894   0.95289   0.00000  Uiso   1.00
C1146  C     0.79543   0.49305   0.54737   0.00000  Uiso   1.00
C1147  C     0.75808   0.48578   0.97748   0.00000  Uiso   1.00
C1148  C     0.90741   0.51716   0.52283   0.00000  Uiso   1.00
C1149  C     0.75791   0.48621   0.52434   0.00000  Uiso   1.00
C1150  C     0.90775   0.51728   0.97601   0.00000  Uiso   1.00
H1151  H     0.89819   0.51285   0.88708   0.00000  Uiso   1.00
H1152  H     0.76843   0.48541   0.61343   0.00000  Uiso   1.00
H1153  H     0.76710   0.48616   0.88874   0.00000  Uiso   1.00
H1154  H     0.89886   0.51559   0.61136   0.00000  Uiso   1.00
H1155  H     0.72927   0.47952   0.95981   0.00000  Uiso   1.00
H1156  H     0.93617   0.52268   0.54056   0.00000  Uiso   1.00
C1157  C     0.68771   0.46513   0.72685   0.00000  Uiso   1.00
C1158  C     0.97901   0.53560   0.77166   0.00000  Uiso   1.00
C1159  C     0.97832   0.46691   0.72429   0.00000  Uiso   1.00
C1160  C     0.68836   0.53375   0.77428   0.00000  Uiso   1.00
C1161  C     0.95750   0.50140   0.74781   0.00000  Uiso   1.00
C1162  C     0.70916   0.49887   0.75133   0.00000  Uiso   1.00
C1163  C     0.85394   0.35781   0.78237   0.00000  Uiso   1.00
C1164  C     0.81277   0.64219   0.71759   0.00000  Uiso   1.00
C1165  C     0.81287   0.35681   0.71752   0.00000  Uiso   1.00
C1166  C     0.85391   0.64318   0.78240   0.00000  Uiso   1.00
H1167  H     0.87048   0.37636   0.80823   0.00000  Uiso   1.00
H1168  H     0.79625   0.62364   0.69172   0.00000  Uiso   1.00
H1169  H     0.79659   0.37457   0.69149   0.00000  Uiso   1.00
H1170  H     0.87033   0.62543   0.80832   0.00000  Uiso   1.00
N1171  N     0.83333   0.61907   0.75000   0.00000  Uiso   1.00
N1172  N     0.83333   0.38093   0.75000   0.00000  Uiso   1.00
O1173  O     0.72137   0.47782   0.54769   0.00000  Uiso   1.00
C1174  C     0.70015   0.51905   0.55388   0.00000  Uiso   1.00
H1175  H     0.68008   0.52500   0.52441   0.00000  Uiso   1.00
H1176  H     0.72139   0.54894   0.55836   0.00000  Uiso   1.00
C1177  C     0.67302   0.51580   0.59586   0.00000  Uiso   1.00
H1178  H     0.69275   0.51286   0.62606   0.00000  Uiso   1.00
H1179  H     0.98739   0.54678   0.59940   0.00000  Uiso   1.00
H1180  H     0.98537   0.48574   0.59368   0.00000  Uiso   1.00
O1181  O     0.94510   0.52162   0.95308   0.00000  Uiso   1.00
C1182  C     0.95641   0.56794   0.95135   0.00000  Uiso   1.00
H1183  H     0.95950   0.58280   0.98567   0.00000  Uiso   1.00
H1184  H     0.93302   0.58730   0.93221   0.00000  Uiso   1.00
C1185  C     0.99818   0.57284   0.92753   0.00000  Uiso   1.00
H1186  H     0.99667   0.55722   0.89358   0.00000  Uiso   1.00
H1187  H     0.67324   0.60926   0.92415   0.00000  Uiso   1.00
H1188  H     0.68930   0.55581   0.94703   0.00000  Uiso   1.00
N1189  N     0.70919   0.42991   0.70323   0.00000  Uiso   1.00
O1190  O     0.71677   0.39209   0.72361   0.00000  Uiso   1.00
O1191  O     0.71414   0.43226   0.65993   0.00000  Uiso   1.00
N1192  N     0.95764   0.57107   0.79504   0.00000  Uiso   1.00
O1193  O     0.95603   0.61133   0.77766   0.00000  Uiso   1.00
O1194  O     0.93730   0.56240   0.83194   0.00000  Uiso   1.00
N1195  N     0.95637   0.43476   0.69644   0.00000  Uiso   1.00
O1196  O     0.93244   0.44878   0.66456   0.00000  Uiso   1.00
O1197  O     0.96091   0.39146   0.70224   0.00000  Uiso   1.00
N1198  N     0.71022   0.56553   0.80262   0.00000  Uiso   1.00
O1199  O     0.73307   0.55109   0.83524   0.00000  Uiso   1.00
O1200  O     0.70805   0.60884   0.79536   0.00000  Uiso   1.00
O1201  O     0.10559   0.87154   0.75000   0.00000  Uiso   1.00
O1202  O     0.22774   0.79513   0.75001   0.00000  Uiso   1.00
O1203  O     0.22774   0.87154   0.75001   0.00000  Uiso   1.00
O1204  O     0.10559   0.79513   0.75000   0.00000  Uiso   1.00
C1205  C     0.08668   0.83297   0.75045   0.00000  Uiso   1.00
C1206  C     0.24664   0.83372   0.74922   0.00000  Uiso   1.00
O1207  O     0.16666   0.87156   0.68393   0.00000  Uiso   1.00
O1208  O     0.16667   0.79511   0.81608   0.00000  Uiso   1.00
O1209  O     0.16667   0.87156   0.81608   0.00000  Uiso   1.00
O1210  O     0.16666   0.79511   0.68393   0.00000  Uiso   1.00
C1211  C     0.16703   0.83324   0.66353   0.00000  Uiso   1.00
C1212  C     0.16615   0.83342   0.83652   0.00000  Uiso   1.00
Zn1213 Zn    0.16667   0.88437   0.75000   0.00000  Uiso   1.00
Zn1214 Zn    0.16667   0.78229   0.75000   0.00000  Uiso   1.00
C1215  C     0.20322   0.84130   0.90633   0.00000  Uiso   1.00
C1216  C     0.12975   0.82521   0.59396   0.00000  Uiso   1.00
C1217  C     0.16600   0.83358   0.88418   0.00000  Uiso   1.00
C1218  C     0.16696   0.83320   0.61597   0.00000  Uiso   1.00
C1219  C     0.12885   0.82589   0.90716   0.00000  Uiso   1.00
C1220  C     0.20376   0.84241   0.59299   0.00000  Uiso   1.00
C1221  C     0.12854   0.82658   0.95372   0.00000  Uiso   1.00
C1222  C     0.20376   0.84275   0.54649   0.00000  Uiso   1.00
C1223  C     0.16614   0.83479   0.97673   0.00000  Uiso   1.00
C1224  C     0.16618   0.83478   0.52349   0.00000  Uiso   1.00
C1225  C     0.20380   0.84227   0.95289   0.00000  Uiso   1.00
C1226  C     0.12877   0.82638   0.54737   0.00000  Uiso   1.00
C1227  C     0.09142   0.81912   0.97748   0.00000  Uiso   1.00
C1228  C     0.24074   0.85049   0.52283   0.00000  Uiso   1.00
C1229  C     0.09124   0.81954   0.52434   0.00000  Uiso   1.00
C1230  C     0.24109   0.85061   0.97601   0.00000  Uiso   1.00
H1231  H     0.23152   0.84618   0.88708   0.00000  Uiso   1.00
H1232  H     0.10177   0.81875   0.61343   0.00000  Uiso   1.00
H1233  H     0.10043   0.81949   0.88874   0.00000  Uiso   1.00
H1234  H     0.23219   0.84893   0.61136   0.00000  Uiso   1.00
H1235  H     0.06260   0.81285   0.95981   0.00000  Uiso   1.00
H1236  H     0.26950   0.85602   0.54056   0.00000  Uiso   1.00
C1237  C     0.02104   0.79846   0.72685   0.00000  Uiso   1.00
C1238  C     0.31234   0.86893   0.77166   0.00000  Uiso   1.00
C1239  C     0.31165   0.80025   0.72429   0.00000  Uiso   1.00
C1240  C     0.02170   0.86708   0.77428   0.00000  Uiso   1.00
C1241  C     0.29083   0.83473   0.74781   0.00000  Uiso   1.00
C1242  C     0.04249   0.83220   0.75133   0.00000  Uiso   1.00
C1243  C     0.18728   0.69114   0.78237   0.00000  Uiso   1.00
C1244  C     0.14610   0.97552   0.71759   0.00000  Uiso   1.00
C1245  C     0.14621   0.69015   0.71752   0.00000  Uiso   1.00
C1246  C     0.18724   0.97652   0.78240   0.00000  Uiso   1.00
H1247  H     0.20381   0.70969   0.80823   0.00000  Uiso   1.00
H1248  H     0.12959   0.95698   0.69172   0.00000  Uiso   1.00
H1249  H     0.12993   0.70790   0.69149   0.00000  Uiso   1.00
H1250  H     0.20367   0.95876   0.80832   0.00000  Uiso   1.00
N1251  N     0.16667   0.95240   0.75000   0.00000  Uiso   1.00
N1252  N     0.16667   0.71427   0.75000   0.00000  Uiso   1.00
O1253  O     0.05470   0.81115   0.54769   0.00000  Uiso   1.00
C1254  C     0.03349   0.85238   0.55388   0.00000  Uiso   1.00
H1255  H     0.01341   0.85834   0.52441   0.00000  Uiso   1.00
H1256  H     0.05473   0.88228   0.55836   0.00000  Uiso   1.00
C1257  C     0.00636   0.84914   0.59586   0.00000  Uiso   1.00
H1258  H     0.02608   0.84620   0.62606   0.00000  Uiso   1.00
H1259  H     0.32073   0.88011   0.59940   0.00000  Uiso   1.00
H1260  H     0.31870   0.81908   0.59368   0.00000  Uiso   1.00
O1261  O     0.27843   0.85496   0.95308   0.00000  Uiso   1.00
C1262  C     0.28974   0.90127   0.95135   0.00000  Uiso   1.00
H1263  H     0.29283   0.91614   0.98567   0.00000  Uiso   1.00
H1264  H     0.26635   0.92063   0.93221   0.00000  Uiso   1.00
C1265  C     0.33151   0.90617   0.92753   0.00000  Uiso   1.00
H1266  H     0.33000   0.89055   0.89358   0.00000  Uiso   1.00
H1267  H     0.00658   0.94259   0.92415   0.00000  Uiso   1.00
H1268  H     0.02263   0.88915   0.94703   0.00000  Uiso   1.00
N1269  N     0.04252   0.76324   0.70323   0.00000  Uiso   1.00
O1270  O     0.05011   0.72543   0.72361   0.00000  Uiso   1.00
O1271  O     0.04747   0.76559   0.65993   0.00000  Uiso   1.00
N1272  N     0.29097   0.90440   0.79504   0.00000  Uiso   1.00
O1273  O     0.28936   0.94466   0.77766   0.00000  Uiso   1.00
O1274  O     0.27063   0.89573   0.83194   0.00000  Uiso   1.00
N1275  N     0.28971   0.76809   0.69644   0.00000  Uiso   1.00
O1276  O     0.26578   0.78211   0.66456   0.00000  Uiso   1.00
O1277  O     0.29424   0.72480   0.70224   0.00000  Uiso   1.00
N1278  N     0.04355   0.89886   0.80262   0.00000  Uiso   1.00
O1279  O     0.06640   0.88442   0.83524   0.00000  Uiso   1.00
O1280  O     0.04138   0.94217   0.79536   0.00000  Uiso   1.00
O1281  O     0.43892   0.87154   0.75000   0.00000  Uiso   1.00
O1282  O     0.56108   0.79513   0.75001   0.00000  Uiso   1.00
O1283  O     0.56108   0.87154   0.75001   0.00000  Uiso   1.00
O1284  O     0.43892   0.79513   0.75000   0.00000  Uiso   1.00
C1285  C     0.42002   0.83297   0.75045   0.00000  Uiso   1.00
C1286  C     0.57998   0.83372   0.74922   0.00000  Uiso   1.00
O1287  O     0.49999   0.87156   0.68393   0.00000  Uiso   1.00
O1288  O     0.50001   0.79511   0.81608   0.00000  Uiso   1.00
O1289  O     0.50001   0.87156   0.81608   0.00000  Uiso   1.00
O1290  O     0.49999   0.79511   0.68393   0.00000  Uiso   1.00
C1291  C     0.50037   0.83324   0.66353   0.00000  Uiso   1.00
C1292  C     0.49949   0.83342   0.83652   0.00000  Uiso   1.00
Zn1293 Zn    0.50000   0.88437   0.75000   0.00000  Uiso   1.00
Zn1294 Zn    0.50000   0.78229   0.75000   0.00000  Uiso   1.00
C1295  C     0.53655   0.84130   0.90633   0.00000  Uiso   1.00
C1296  C     0.46308   0.82521   0.59396   0.00000  Uiso   1.00
C1297  C     0.49934   0.83358   0.88418   0.00000  Uiso   1.00
C1298  C     0.50030   0.83320   0.61597   0.00000  Uiso   1.00
C1299  C     0.46218   0.82589   0.90716   0.00000  Uiso   1.00
C1300  C     0.53709   0.84241   0.59299   0.00000  Uiso   1.00
C1301  C     0.46187   0.82658   0.95372   0.00000  Uiso   1.00
C1302  C     0.53710   0.84275   0.54649   0.00000  Uiso   1.00
C1303  C     0.49947   0.83479   0.97673   0.00000  Uiso   1.00
C1304  C     0.49951   0.83478   0.52349   0.00000  Uiso   1.00
C1305  C     0.53713   0.84227   0.95289   0.00000  Uiso   1.00
C1306  C     0.46210   0.82638   0.54737   0.00000  Uiso   1.00
C1307  C     0.42475   0.81912   0.97748   0.00000  Uiso   1.00
C1308  C     0.57408   0.85049   0.52283   0.00000  Uiso   1.00
C1309  C     0.42457   0.81954   0.52434   0.00000  Uiso   1.00
C1310  C     0.57442   0.85061   0.97601   0.00000  Uiso   1.00
H1311  H     0.56485   0.84618   0.88708   0.00000  Uiso   1.00
H1312  H     0.43510   0.81875   0.61343   0.00000  Uiso   1.00
H1313  H     0.43376   0.81949   0.88874   0.00000  Uiso   1.00
H1314  H     0.56553   0.84893   0.61136   0.00000  Uiso   1.00
H1315  H     0.39594   0.81285   0.95981   0.00000  Uiso   1.00
H1316  H     0.60283   0.85602   0.54056   0.00000  Uiso   1.00
C1317  C     0.35437   0.79846   0.72685   0.00000  Uiso   1.00
C1318  C     0.64568   0.86893   0.77166   0.00000  Uiso   1.00
C1319  C     0.64498   0.80025   0.72429   0.00000  Uiso   1.00
C1320  C     0.35503   0.86708   0.77428   0.00000  Uiso   1.00
C1321  C     0.62417   0.83473   0.74781   0.00000  Uiso   1.00
C1322  C     0.37583   0.83220   0.75133   0.00000  Uiso   1.00
C1323  C     0.52061   0.69114   0.78237   0.00000  Uiso   1.00
C1324  C     0.47943   0.97552   0.71759   0.00000  Uiso   1.00
C1325  C     0.47954   0.69015   0.71752   0.00000  Uiso   1.00
C1326  C     0.52058   0.97652   0.78240   0.00000  Uiso   1.00
H1327  H     0.53715   0.70969   0.80823   0.00000  Uiso   1.00
H1328  H     0.46292   0.95698   0.69172   0.00000  Uiso   1.00
H1329  H     0.46326   0.70790   0.69149   0.00000  Uiso   1.00
H1330  H     0.53700   0.95876   0.80832   0.00000  Uiso   1.00
N1331  N     0.50000   0.95240   0.75000   0.00000  Uiso   1.00
N1332  N     0.50000   0.71427   0.75000   0.00000  Uiso   1.00
O1333  O     0.38803   0.81115   0.54769   0.00000  Uiso   1.00
C1334  C     0.36682   0.85238   0.55388   0.00000  Uiso   1.00
H1335  H     0.34675   0.85834   0.52441   0.00000  Uiso   1.00
H1336  H     0.38806   0.88228   0.55836   0.00000  Uiso   1.00
C1337  C     0.33969   0.84914   0.59586   0.00000  Uiso   1.00
H1338  H     0.35941   0.84620   0.62606   0.00000  Uiso   1.00
H1339  H     0.65406   0.88011   0.59940   0.00000  Uiso   1.00
H1340  H     0.65204   0.81908   0.59368   0.00000  Uiso   1.00
O1341  O     0.61177   0.85496   0.95308   0.00000  Uiso   1.00
C1342  C     0.62308   0.90127   0.95135   0.00000  Uiso   1.00
H1343  H     0.62616   0.91614   0.98567   0.00000  Uiso   1.00
H1344  H     0.59969   0.92063   0.93221   0.00000  Uiso   1.00
C1345  C     0.66485   0.90617   0.92753   0.00000  Uiso   1.00
H1346  H     0.66333   0.89055   0.89358   0.00000  Uiso   1.00
H1347  H     0.33991   0.94259   0.92415   0.00000  Uiso   1.00
H1348  H     0.35597   0.88915   0.94703   0.00000  Uiso   1.00
N1349  N     0.37585   0.76324   0.70323   0.00000  Uiso   1.00
O1350  O     0.38344   0.72543   0.72361   0.00000  Uiso   1.00
O1351  O     0.38080   0.76559   0.65993   0.00000  Uiso   1.00
N1352  N     0.62431   0.90440   0.79504   0.00000  Uiso   1.00
O1353  O     0.62269   0.94466   0.77766   0.00000  Uiso   1.00
O1354  O     0.60397   0.89573   0.83194   0.00000  Uiso   1.00
N1355  N     0.62304   0.76809   0.69644   0.00000  Uiso   1.00
O1356  O     0.59911   0.78211   0.66456   0.00000  Uiso   1.00
O1357  O     0.62758   0.72480   0.70224   0.00000  Uiso   1.00
N1358  N     0.37688   0.89886   0.80262   0.00000  Uiso   1.00
O1359  O     0.39974   0.88442   0.83524   0.00000  Uiso   1.00
O1360  O     0.37471   0.94217   0.79536   0.00000  Uiso   1.00
O1361  O     0.77226   0.87154   0.75000   0.00000  Uiso   1.00
O1362  O     0.89441   0.79513   0.75001   0.00000  Uiso   1.00
O1363  O     0.89441   0.87154   0.75001   0.00000  Uiso   1.00
O1364  O     0.77226   0.79513   0.75000   0.00000  Uiso   1.00
C1365  C     0.75335   0.83297   0.75045   0.00000  Uiso   1.00
C1366  C     0.91331   0.83372   0.74922   0.00000  Uiso   1.00
O1367  O     0.83333   0.87156   0.68393   0.00000  Uiso   1.00
O1368  O     0.83334   0.79511   0.81608   0.00000  Uiso   1.00
O1369  O     0.83334   0.87156   0.81608   0.00000  Uiso   1.00
O1370  O     0.83333   0.79511   0.68393   0.00000  Uiso   1.00
C1371  C     0.83370   0.83324   0.66353   0.00000  Uiso   1.00
C1372  C     0.83282   0.83342   0.83652   0.00000  Uiso   1.00
Zn1373 Zn    0.83333   0.88437   0.75000   0.00000  Uiso   1.00
Zn1374 Zn    0.83333   0.78229   0.75000   0.00000  Uiso   1.00
C1375  C     0.86988   0.84130   0.90633   0.00000  Uiso   1.00
C1376  C     0.79642   0.82521   0.59396   0.00000  Uiso   1.00
C1377  C     0.83267   0.83358   0.88418   0.00000  Uiso   1.00
C1378  C     0.83363   0.83320   0.61597   0.00000  Uiso   1.00
C1379  C     0.79552   0.82589   0.90716   0.00000  Uiso   1.00
C1380  C     0.87042   0.84241   0.59299   0.00000  Uiso   1.00
C1381  C     0.79520   0.82658   0.95372   0.00000  Uiso   1.00
C1382  C     0.87043   0.84275   0.54649   0.00000  Uiso   1.00
C1383  C     0.83280   0.83479   0.97673   0.00000  Uiso   1.00
C1384  C     0.83285   0.83478   0.52349   0.00000  Uiso   1.00
C1385  C     0.87046   0.84227   0.95289   0.00000  Uiso   1.00
C1386  C     0.79543   0.82638   0.54737   0.00000  Uiso   1.00
C1387  C     0.75808   0.81912   0.97748   0.00000  Uiso   1.00
C1388  C     0.90741   0.85049   0.52283   0.00000  Uiso   1.00
C1389  C     0.75791   0.81954   0.52434   0.00000  Uiso   1.00
C1390  C     0.90775   0.85061   0.97601   0.00000  Uiso   1.00
H1391  H     0.89819   0.84618   0.88708   0.00000  Uiso   1.00
H1392  H     0.76843   0.81875   0.61343   0.00000  Uiso   1.00
H1393  H     0.76710   0.81949   0.88874   0.00000  Uiso   1.00
H1394  H     0.89886   0.84893   0.61136   0.00000  Uiso   1.00
H1395  H     0.72927   0.81285   0.95981   0.00000  Uiso   1.00
H1396  H     0.93617   0.85602   0.54056   0.00000  Uiso   1.00
C1397  C     0.68771   0.79846   0.72685   0.00000  Uiso   1.00
C1398  C     0.97901   0.86893   0.77166   0.00000  Uiso   1.00
C1399  C     0.97832   0.80025   0.72429   0.00000  Uiso   1.00
C1400  C     0.68836   0.86708   0.77428   0.00000  Uiso   1.00
C1401  C     0.95750   0.83473   0.74781   0.00000  Uiso   1.00
C1402  C     0.70916   0.83220   0.75133   0.00000  Uiso   1.00
C1403  C     0.85394   0.69114   0.78237   0.00000  Uiso   1.00
C1404  C     0.81277   0.97552   0.71759   0.00000  Uiso   1.00
C1405  C     0.81287   0.69015   0.71752   0.00000  Uiso   1.00
C1406  C     0.85391   0.97652   0.78240   0.00000  Uiso   1.00
H1407  H     0.87048   0.70969   0.80823   0.00000  Uiso   1.00
H1408  H     0.79625   0.95698   0.69172   0.00000  Uiso   1.00
H1409  H     0.79659   0.70790   0.69149   0.00000  Uiso   1.00
H1410  H     0.87033   0.95876   0.80832   0.00000  Uiso   1.00
N1411  N     0.83333   0.95240   0.75000   0.00000  Uiso   1.00
N1412  N     0.83333   0.71427   0.75000   0.00000  Uiso   1.00
O1413  O     0.72137   0.81115   0.54769   0.00000  Uiso   1.00
C1414  C     0.70015   0.85238   0.55388   0.00000  Uiso   1.00
H1415  H     0.68008   0.85834   0.52441   0.00000  Uiso   1.00
H1416  H     0.72139   0.88228   0.55836   0.00000  Uiso   1.00
C1417  C     0.67302   0.84914   0.59586   0.00000  Uiso   1.00
H1418  H     0.69275   0.84620   0.62606   0.00000  Uiso   1.00
H1419  H     0.98739   0.88011   0.59940   0.00000  Uiso   1.00
H1420  H     0.98537   0.81908   0.59368   0.00000  Uiso   1.00
O1421  O     0.94510   0.85496   0.95308   0.00000  Uiso   1.00
C1422  C     0.95641   0.90127   0.95135   0.00000  Uiso   1.00
H1423  H     0.95950   0.91614   0.98567   0.00000  Uiso   1.00
H1424  H     0.93302   0.92063   0.93221   0.00000  Uiso   1.00
C1425  C     0.99818   0.90617   0.92753   0.00000  Uiso   1.00
H1426  H     0.99667   0.89055   0.89358   0.00000  Uiso   1.00
H1427  H     0.67324   0.94259   0.92415   0.00000  Uiso   1.00
H1428  H     0.68930   0.88915   0.94703   0.00000  Uiso   1.00
N1429  N     0.70919   0.76324   0.70323   0.00000  Uiso   1.00
O1430  O     0.71677   0.72543   0.72361   0.00000  Uiso   1.00
O1431  O     0.71414   0.76559   0.65993   0.00000  Uiso   1.00
N1432  N     0.95764   0.90440   0.79504   0.00000  Uiso   1.00
O1433  O     0.95603   0.94466   0.77766   0.00000  Uiso   1.00
O1434  O     0.93730   0.89573   0.83194   0.00000  Uiso   1.00
N1435  N     0.95637   0.76809   0.69644   0.00000  Uiso   1.00
O1436  O     0.93244   0.78211   0.66456   0.00000  Uiso   1.00
O1437  O     0.96091   0.72480   0.70224   0.00000  Uiso   1.00
N1438  N     0.71022   0.89886   0.80262   0.00000  Uiso   1.00
O1439  O     0.73307   0.88442   0.83524   0.00000  Uiso   1.00
O1440  O     0.70805   0.94217   0.79536   0.00000  Uiso   1.00
loop_
_geom_bond_atom_site_label_1
_geom_bond_atom_site_label_2
_geom_bond_distance
_geom_bond_site_symmetry_2
_ccdc_geom_bond_type
O1     C5      1.284   .     A
O1     Zn13    1.999   .     S
O2     C6      1.285   .     A
O2     Zn14    1.999   .     S
O3     C6      1.279   .     A
O3     Zn13    2.009   .     S
O4     C5      1.279   .     A
O4     Zn14    2.009   .     S
C5     C42     1.424   .     S
C6     C41     1.424   .     S
O7     C11     1.281   .     A
O7     Zn13    2.001   .     S
O8     C12     1.281   .     A
O8     Zn14    2.001   .     S
O9     Zn13    2.006   .     S
O9     C12     1.283   .     A
O10    Zn14    2.006   .     S
O10    C11     1.282   .     A
C11    C18     1.416   .     S
C12    C17     1.419   .     S
Zn13   N51     2.008   .     S
Zn14   N52     2.008   .     S
C15    C25     1.387   .     A
C15    C17     1.389   .     A
C15    H31     1.082   .     S
C16    C26     1.388   .     A
C16    H32     1.083   .     S
C16    C18     1.388   .     A
C17    C19     1.391   .     A
C18    C20     1.389   .     A
C19    C21     1.386   .     A
C19    H33     1.085   .     S
C20    H34     1.085   .     S
C20    C22     1.385   .     A
C21    C27     1.401   .     A
C21    C23     1.414   .     A
C22    C28     1.396   .     A
C22    C24     1.412   .     A
C23    C25     1.416   .     A
C23    C744    1.392   .     S
C24    C26     1.415   .     A
C24    C743    1.392   1_554 S
C25    C30     1.408   .     A
C26    C29     1.407   .     A
C27    H35     1.084   .     S
C27    C749    1.395   .     S
C28    H36     1.080   .     S
C28    C750    1.394   1_554 S
C29    O53     1.383   .     S
C29    C747    1.395   1_554 S
C30    O61     1.384   .     S
C30    C748    1.394   .     S
C37    N69     1.434   .     S
C37    C42     1.408   .     A
C37    C199    1.381   1_455 S
C38    N72     1.434   .     S
C38    C41     1.409   .     A
C38    C120    1.380   .     S
C39    C41     1.406   .     A
C39    N75     1.439   .     S
C39    C117    1.381   .     S
C40    C42     1.406   .     A
C40    N78     1.439   .     S
C40    C198    1.380   1_455 S
C43    N52     1.366   .     A
C43    H47     1.082   .     S
C43    C526    1.416   1_545 S
C44    N51     1.366   .     A
C44    H48     1.082   .     S
C44    C285    1.416   .     S
C45    N52     1.366   .     A
C45    H49     1.082   .     S
C45    C524    1.416   1_545 S
C46    N51     1.366   .     A
C46    H50     1.081   .     S
C46    C283    1.416   .     S
O53    C54     1.414   .     S
C54    H56     1.118   .     S
C54    H55     1.111   .     S
C54    C57     1.522   .     S
C57    H58     1.110   .     S
C57    H219    1.110   1_455 S
C57    H220    1.111   1_455 S
H59    C137    1.110   .     S
H60    C137    1.111   .     S
O61    C62     1.411   .     S
C62    H64     1.114   .     S
C62    H63     1.114   .     S
C62    C65     1.522   .     S
C65    H66     1.109   .     S
C65    H147    1.110   .     S
C65    H148    1.110   .     S
H67    C225    1.110   1_455 S
H68    C225    1.110   1_455 S
N69    O70     1.301   .     A
N69    O71     1.300   .     A
N72    O74     1.300   .     A
N72    O73     1.301   .     A
N75    O76     1.301   .     A
N75    O77     1.301   .     A
N78    O80     1.301   .     A
N78    O79     1.301   .     A
O81    C85     1.284   .     A
O81    Zn93    1.999   .     S
O82    C86     1.285   .     A
O82    Zn94    1.999   .     S
O83    C86     1.279   .     A
O83    Zn93    2.009   .     S
O84    C85     1.279   .     A
O84    Zn94    2.009   .     S
C85    C122    1.424   .     S
C86    C121    1.424   .     S
O87    C91     1.281   .     A
O87    Zn93    2.001   .     S
O88    C92     1.281   .     A
O88    Zn94    2.001   .     S
O89    Zn93    2.006   .     S
O89    C92     1.283   .     A
O90    Zn94    2.006   .     S
O90    C91     1.282   .     A
C91    C98     1.416   .     S
C92    C97     1.419   .     S
Zn93   N131    2.008   .     S
Zn94   N132    2.008   .     S
C95    C105    1.387   .     A
C95    C97     1.389   .     A
C95    H111    1.082   .     S
C96    C106    1.388   .     A
C96    H112    1.083   .     S
C96    C98     1.388   .     A
C97    C99     1.391   .     A
C98    C100    1.389   .     A
C99    C101    1.386   .     A
C99    H113    1.085   .     S
C100   H114    1.085   .     S
C100   C102    1.385   .     A
C101   C107    1.401   .     A
C101   C103    1.414   .     A
C102   C108    1.396   .     A
C102   C104    1.412   .     A
C103   C105    1.416   .     A
C103   C824    1.392   .     S
C104   C106    1.415   .     A
C104   C823    1.392   1_554 S
C105   C110    1.408   .     A
C106   C109    1.407   .     A
C107   H115    1.084   .     S
C107   C829    1.395   .     S
C108   H116    1.080   .     S
C108   C830    1.394   1_554 S
C109   O133    1.383   .     S
C109   C827    1.395   1_554 S
C110   O141    1.384   .     S
C110   C828    1.394   .     S
C117   N149    1.434   .     S
C117   C122    1.408   .     A
C118   N152    1.434   .     S
C118   C121    1.409   .     A
C118   C200    1.380   .     S
C119   C121    1.406   .     A
C119   N155    1.439   .     S
C119   C197    1.381   .     S
C120   C122    1.406   .     A
C120   N158    1.439   .     S
C123   N132    1.366   .     A
C123   H127    1.082   .     S
C123   C606    1.416   1_545 S
C124   N131    1.366   .     A
C124   H128    1.082   .     S
C124   C365    1.416   .     S
C125   N132    1.366   .     A
C125   H129    1.082   .     S
C125   C604    1.416   1_545 S
C126   N131    1.366   .     A
C126   H130    1.081   .     S
C126   C363    1.416   .     S
O133   C134    1.414   .     S
C134   H136    1.118   .     S
C134   H135    1.111   .     S
C134   C137    1.522   .     S
C137   H138    1.110   .     S
H139   C217    1.110   .     S
H140   C217    1.111   .     S
O141   C142    1.411   .     S
C142   H144    1.114   .     S
C142   H143    1.114   .     S
C142   C145    1.522   .     S
C145   H146    1.109   .     S
C145   H227    1.110   .     S
C145   H228    1.110   .     S
N149   O150    1.301   .     A
N149   O151    1.300   .     A
N152   O154    1.300   .     A
N152   O153    1.301   .     A
N155   O156    1.301   .     A
N155   O157    1.301   .     A
N158   O160    1.301   .     A
N158   O159    1.301   .     A
O161   C165    1.284   .     A
O161   Zn173   1.999   .     S
O162   C166    1.285   .     A
O162   Zn174   1.999   .     S
O163   C166    1.279   .     A
O163   Zn173   2.009   .     S
O164   C165    1.279   .     A
O164   Zn174   2.009   .     S
C165   C202    1.424   .     S
C166   C201    1.424   .     S
O167   C171    1.281   .     A
O167   Zn173   2.001   .     S
O168   C172    1.281   .     A
O168   Zn174   2.001   .     S
O169   Zn173   2.006   .     S
O169   C172    1.283   .     A
O170   Zn174   2.006   .     S
O170   C171    1.282   .     A
C171   C178    1.416   .     S
C172   C177    1.419   .     S
Zn173  N211    2.008   .     S
Zn174  N212    2.008   .     S
C175   C185    1.387   .     A
C175   C177    1.389   .     A
C175   H191    1.082   .     S
C176   C186    1.388   .     A
C176   H192    1.083   .     S
C176   C178    1.388   .     A
C177   C179    1.391   .     A
C178   C180    1.389   .     A
C179   C181    1.386   .     A
C179   H193    1.085   .     S
C180   H194    1.085   .     S
C180   C182    1.385   .     A
C181   C187    1.401   .     A
C181   C183    1.414   .     A
C182   C188    1.396   .     A
C182   C184    1.412   .     A
C183   C185    1.416   .     A
C183   C904    1.392   .     S
C184   C186    1.415   .     A
C184   C903    1.392   1_554 S
C185   C190    1.408   .     A
C186   C189    1.407   .     A
C187   H195    1.084   .     S
C187   C909    1.395   .     S
C188   H196    1.080   .     S
C188   C910    1.394   1_554 S
C189   O213    1.383   .     S
C189   C907    1.395   1_554 S
C190   O221    1.384   .     S
C190   C908    1.394   .     S
C197   N229    1.434   .     S
C197   C202    1.408   .     A
C198   N232    1.434   .     S
C198   C201    1.409   .     A
C198   C40     1.380   1_655 S
C199   C201    1.406   .     A
C199   N235    1.439   .     S
C199   C37     1.381   1_655 S
C200   C202    1.406   .     A
C200   N238    1.439   .     S
C203   N212    1.366   .     A
C203   H207    1.082   .     S
C203   C686    1.416   1_545 S
C204   N211    1.366   .     A
C204   H208    1.082   .     S
C204   C445    1.416   .     S
C205   N212    1.366   .     A
C205   H209    1.082   .     S
C205   C684    1.416   1_545 S
C206   N211    1.366   .     A
C206   H210    1.081   .     S
C206   C443    1.416   .     S
O213   C214    1.414   .     S
C214   H216    1.118   .     S
C214   H215    1.111   .     S
C214   C217    1.522   .     S
C217   H218    1.110   .     S
H219   C57     1.110   1_655 S
H220   C57     1.111   1_655 S
O221   C222    1.411   .     S
C222   H224    1.114   .     S
C222   H223    1.114   .     S
C222   C225    1.522   .     S
C225   H226    1.109   .     S
C225   H67     1.110   1_655 S
C225   H68     1.110   1_655 S
N229   O230    1.301   .     A
N229   O231    1.300   .     A
N232   O234    1.300   .     A
N232   O233    1.301   .     A
N235   O236    1.301   .     A
N235   O237    1.301   .     A
N238   O240    1.301   .     A
N238   O239    1.301   .     A
O241   C245    1.284   .     A
O241   Zn253   1.999   .     S
O242   C246    1.285   .     A
O242   Zn254   1.999   .     S
O243   C246    1.279   .     A
O243   Zn253   2.009   .     S
O244   C245    1.279   .     A
O244   Zn254   2.009   .     S
C245   C282    1.424   .     S
C246   C281    1.424   .     S
O247   C251    1.281   .     A
O247   Zn253   2.001   .     S
O248   C252    1.281   .     A
O248   Zn254   2.001   .     S
O249   Zn253   2.006   .     S
O249   C252    1.283   .     A
O250   Zn254   2.006   .     S
O250   C251    1.282   .     A
C251   C258    1.416   .     S
C252   C257    1.419   .     S
Zn253  N291    2.008   .     S
Zn254  N292    2.008   .     S
C255   C265    1.387   .     A
C255   C257    1.389   .     A
C255   H271    1.082   .     S
C256   C266    1.388   .     A
C256   H272    1.083   .     S
C256   C258    1.388   .     A
C257   C259    1.391   .     A
C258   C260    1.389   .     A
C259   C261    1.386   .     A
C259   H273    1.085   .     S
C260   H274    1.085   .     S
C260   C262    1.385   .     A
C261   C267    1.401   .     A
C261   C263    1.414   .     A
C262   C268    1.396   .     A
C262   C264    1.412   .     A
C263   C265    1.416   .     A
C263   C984    1.392   .     S
C264   C266    1.415   .     A
C264   C983    1.392   1_554 S
C265   C270    1.408   .     A
C266   C269    1.407   .     A
C267   H275    1.084   .     S
C267   C989    1.395   .     S
C268   H276    1.080   .     S
C268   C990    1.394   1_554 S
C269   O293    1.383   .     S
C269   C987    1.395   1_554 S
C270   O301    1.384   .     S
C270   C988    1.394   .     S
C277   N309    1.434   .     S
C277   C282    1.408   .     A
C277   C439    1.381   1_455 S
C278   N312    1.434   .     S
C278   C281    1.409   .     A
C278   C360    1.380   .     S
C279   C281    1.406   .     A
C279   N315    1.439   .     S
C279   C357    1.381   .     S
C280   C282    1.406   .     A
C280   N318    1.439   .     S
C280   C438    1.380   1_455 S
C283   N292    1.366   .     A
C283   H287    1.082   .     S
C284   N291    1.366   .     A
C284   H288    1.082   .     S
C284   C525    1.416   .     S
C285   N292    1.366   .     A
C285   H289    1.082   .     S
C286   N291    1.366   .     A
C286   H290    1.081   .     S
C286   C523    1.416   .     S
O293   C294    1.414   .     S
C294   H296    1.118   .     S
C294   H295    1.111   .     S
C294   C297    1.522   .     S
C297   H298    1.110   .     S
C297   H459    1.110   1_455 S
C297   H460    1.111   1_455 S
H299   C377    1.110   .     S
H300   C377    1.111   .     S
O301   C302    1.411   .     S
C302   H304    1.114   .     S
C302   H303    1.114   .     S
C302   C305    1.522   .     S
C305   H306    1.109   .     S
C305   H387    1.110   .     S
C305   H388    1.110   .     S
H307   C465    1.110   1_455 S
H308   C465    1.110   1_455 S
N309   O310    1.301   .     A
N309   O311    1.300   .     A
N312   O314    1.300   .     A
N312   O313    1.301   .     A
N315   O316    1.301   .     A
N315   O317    1.301   .     A
N318   O320    1.301   .     A
N318   O319    1.301   .     A
O321   C325    1.284   .     A
O321   Zn333   1.999   .     S
O322   C326    1.285   .     A
O322   Zn334   1.999   .     S
O323   C326    1.279   .     A
O323   Zn333   2.009   .     S
O324   C325    1.279   .     A
O324   Zn334   2.009   .     S
C325   C362    1.424   .     S
C326   C361    1.424   .     S
O327   C331    1.281   .     A
O327   Zn333   2.001   .     S
O328   C332    1.281   .     A
O328   Zn334   2.001   .     S
O329   Zn333   2.006   .     S
O329   C332    1.283   .     A
O330   Zn334   2.006   .     S
O330   C331    1.282   .     A
C331   C338    1.416   .     S
C332   C337    1.419   .     S
Zn333  N371    2.008   .     S
Zn334  N372    2.008   .     S
C335   C345    1.387   .     A
C335   C337    1.389   .     A
C335   H351    1.082   .     S
C336   C346    1.388   .     A
C336   H352    1.083   .     S
C336   C338    1.388   .     A
C337   C339    1.391   .     A
C338   C340    1.389   .     A
C339   C341    1.386   .     A
C339   H353    1.085   .     S
C340   H354    1.085   .     S
C340   C342    1.385   .     A
C341   C347    1.401   .     A
C341   C343    1.414   .     A
C342   C348    1.396   .     A
C342   C344    1.412   .     A
C343   C345    1.416   .     A
C343   C1064   1.392   .     S
C344   C346    1.415   .     A
C344   C1063   1.392   1_554 S
C345   C350    1.408   .     A
C346   C349    1.407   .     A
C347   H355    1.084   .     S
C347   C1069   1.395   .     S
C348   H356    1.080   .     S
C348   C1070   1.394   1_554 S
C349   O373    1.383   .     S
C349   C1067   1.395   1_554 S
C350   O381    1.384   .     S
C350   C1068   1.394   .     S
C357   N389    1.434   .     S
C357   C362    1.408   .     A
C358   N392    1.434   .     S
C358   C361    1.409   .     A
C358   C440    1.380   .     S
C359   C361    1.406   .     A
C359   N395    1.439   .     S
C359   C437    1.381   .     S
C360   C362    1.406   .     A
C360   N398    1.439   .     S
C363   N372    1.366   .     A
C363   H367    1.082   .     S
C364   N371    1.366   .     A
C364   H368    1.082   .     S
C364   C605    1.416   .     S
C365   N372    1.366   .     A
C365   H369    1.082   .     S
C366   N371    1.366   .     A
C366   H370    1.081   .     S
C366   C603    1.416   .     S
O373   C374    1.414   .     S
C374   H376    1.118   .     S
C374   H375    1.111   .     S
C374   C377    1.522   .     S
C377   H378    1.110   .     S
H379   C457    1.110   .     S
H380   C457    1.111   .     S
O381   C382    1.411   .     S
C382   H384    1.114   .     S
C382   H383    1.114   .     S
C382   C385    1.522   .     S
C385   H386    1.109   .     S
C385   H467    1.110   .     S
C385   H468    1.110   .     S
N389   O390    1.301   .     A
N389   O391    1.300   .     A
N392   O394    1.300   .     A
N392   O393    1.301   .     A
N395   O396    1.301   .     A
N395   O397    1.301   .     A
N398   O400    1.301   .     A
N398   O399    1.301   .     A
O401   C405    1.284   .     A
O401   Zn413   1.999   .     S
O402   C406    1.285   .     A
O402   Zn414   1.999   .     S
O403   C406    1.279   .     A
O403   Zn413   2.009   .     S
O404   C405    1.279   .     A
O404   Zn414   2.009   .     S
C405   C442    1.424   .     S
C406   C441    1.424   .     S
O407   C411    1.281   .     A
O407   Zn413   2.001   .     S
O408   C412    1.281   .     A
O408   Zn414   2.001   .     S
O409   Zn413   2.006   .     S
O409   C412    1.283   .     A
O410   Zn414   2.006   .     S
O410   C411    1.282   .     A
C411   C418    1.416   .     S
C412   C417    1.419   .     S
Zn413  N451    2.008   .     S
Zn414  N452    2.008   .     S
C415   C425    1.387   .     A
C415   C417    1.389   .     A
C415   H431    1.082   .     S
C416   C426    1.388   .     A
C416   H432    1.083   .     S
C416   C418    1.388   .     A
C417   C419    1.391   .     A
C418   C420    1.389   .     A
C419   C421    1.386   .     A
C419   H433    1.085   .     S
C420   H434    1.085   .     S
C420   C422    1.385   .     A
C421   C427    1.401   .     A
C421   C423    1.414   .     A
C422   C428    1.396   .     A
C422   C424    1.412   .     A
C423   C425    1.416   .     A
C423   C1144   1.392   .     S
C424   C426    1.415   .     A
C424   C1143   1.392   1_554 S
C425   C430    1.408   .     A
C426   C429    1.407   .     A
C427   H435    1.084   .     S
C427   C1149   1.395   .     S
C428   H436    1.080   .     S
C428   C1150   1.394   1_554 S
C429   O453    1.383   .     S
C429   C1147   1.395   1_554 S
C430   O461    1.384   .     S
C430   C1148   1.394   .     S
C437   N469    1.434   .     S
C437   C442    1.408   .     A
C438   N472    1.434   .     S
C438   C441    1.409   .     A
C438   C280    1.380   1_655 S
C439   C441    1.406   .     A
C439   N475    1.439   .     S
C439   C277    1.381   1_655 S
C440   C442    1.406   .     A
C440   N478    1.439   .     S
C443   N452    1.366   .     A
C443   H447    1.082   .     S
C444   N451    1.366   .     A
C444   H448    1.082   .     S
C444   C685    1.416   .     S
C445   N452    1.366   .     A
C445   H449    1.082   .     S
C446   N451    1.366   .     A
C446   H450    1.081   .     S
C446   C683    1.416   .     S
O453   C454    1.414   .     S
C454   H456    1.118   .     S
C454   H455    1.111   .     S
C454   C457    1.522   .     S
C457   H458    1.110   .     S
H459   C297    1.110   1_655 S
H460   C297    1.111   1_655 S
O461   C462    1.411   .     S
C462   H464    1.114   .     S
C462   H463    1.114   .     S
C462   C465    1.522   .     S
C465   H466    1.109   .     S
C465   H307    1.110   1_655 S
C465   H308    1.110   1_655 S
N469   O470    1.301   .     A
N469   O471    1.300   .     A
N472   O474    1.300   .     A
N472   O473    1.301   .     A
N475   O476    1.301   .     A
N475   O477    1.301   .     A
N478   O480    1.301   .     A
N478   O479    1.301   .     A
O481   C485    1.284   .     A
O481   Zn493   1.999   .     S
O482   C486    1.285   .     A
O482   Zn494   1.999   .     S
O483   C486    1.279   .     A
O483   Zn493   2.009   .     S
O484   C485    1.279   .     A
O484   Zn494   2.009   .     S
C485   C522    1.424   .     S
C486   C521    1.424   .     S
O487   C491    1.281   .     A
O487   Zn493   2.001   .     S
O488   C492    1.281   .     A
O488   Zn494   2.001   .     S
O489   Zn493   2.006   .     S
O489   C492    1.283   .     A
O490   Zn494   2.006   .     S
O490   C491    1.282   .     A
C491   C498    1.416   .     S
C492   C497    1.419   .     S
Zn493  N531    2.008   .     S
Zn494  N532    2.008   .     S
C495   C505    1.387   .     A
C495   C497    1.389   .     A
C495   H511    1.082   .     S
C496   C506    1.388   .     A
C496   H512    1.083   .     S
C496   C498    1.388   .     A
C497   C499    1.391   .     A
C498   C500    1.389   .     A
C499   C501    1.386   .     A
C499   H513    1.085   .     S
C500   H514    1.085   .     S
C500   C502    1.385   .     A
C501   C507    1.401   .     A
C501   C503    1.414   .     A
C502   C508    1.396   .     A
C502   C504    1.412   .     A
C503   C505    1.416   .     A
C503   C1224   1.392   .     S
C504   C506    1.415   .     A
C504   C1223   1.392   1_554 S
C505   C510    1.408   .     A
C506   C509    1.407   .     A
C507   H515    1.084   .     S
C507   C1229   1.395   .     S
C508   H516    1.080   .     S
C508   C1230   1.394   1_554 S
C509   O533    1.383   .     S
C509   C1227   1.395   1_554 S
C510   O541    1.384   .     S
C510   C1228   1.394   .     S
C517   N549    1.434   .     S
C517   C522    1.408   .     A
C517   C679    1.381   1_455 S
C518   N552    1.434   .     S
C518   C521    1.409   .     A
C518   C600    1.380   .     S
C519   C521    1.406   .     A
C519   N555    1.439   .     S
C519   C597    1.381   .     S
C520   C522    1.406   .     A
C520   N558    1.439   .     S
C520   C678    1.380   1_455 S
C523   N532    1.366   .     A
C523   H527    1.082   .     S
C524   N531    1.366   .     A
C524   H528    1.082   .     S
C524   C45     1.416   1_565 S
C525   N532    1.366   .     A
C525   H529    1.082   .     S
C526   N531    1.366   .     A
C526   H530    1.081   .     S
C526   C43     1.416   1_565 S
O533   C534    1.414   .     S
C534   H536    1.118   .     S
C534   H535    1.111   .     S
C534   C537    1.522   .     S
C537   H538    1.110   .     S
C537   H699    1.110   1_455 S
C537   H700    1.111   1_455 S
H539   C617    1.110   .     S
H540   C617    1.111   .     S
O541   C542    1.411   .     S
C542   H544    1.114   .     S
C542   H543    1.114   .     S
C542   C545    1.522   .     S
C545   H546    1.109   .     S
C545   H627    1.110   .     S
C545   H628    1.110   .     S
H547   C705    1.110   1_455 S
H548   C705    1.110   1_455 S
N549   O550    1.301   .     A
N549   O551    1.300   .     A
N552   O554    1.300   .     A
N552   O553    1.301   .     A
N555   O556    1.301   .     A
N555   O557    1.301   .     A
N558   O560    1.301   .     A
N558   O559    1.301   .     A
O561   C565    1.284   .     A
O561   Zn573   1.999   .     S
O562   C566    1.285   .     A
O562   Zn574   1.999   .     S
O563   C566    1.279   .     A
O563   Zn573   2.009   .     S
O564   C565    1.279   .     A
O564   Zn574   2.009   .     S
C565   C602    1.424   .     S
C566   C601    1.424   .     S
O567   C571    1.281   .     A
O567   Zn573   2.001   .     S
O568   C572    1.281   .     A
O568   Zn574   2.001   .     S
O569   Zn573   2.006   .     S
O569   C572    1.283   .     A
O570   Zn574   2.006   .     S
O570   C571    1.282   .     A
C571   C578    1.416   .     S
C572   C577    1.419   .     S
Zn573  N611    2.008   .     S
Zn574  N612    2.008   .     S
C575   C585    1.387   .     A
C575   C577    1.389   .     A
C575   H591    1.082   .     S
C576   C586    1.388   .     A
C576   H592    1.083   .     S
C576   C578    1.388   .     A
C577   C579    1.391   .     A
C578   C580    1.389   .     A
C579   C581    1.386   .     A
C579   H593    1.085   .     S
C580   H594    1.085   .     S
C580   C582    1.385   .     A
C581   C587    1.401   .     A
C581   C583    1.414   .     A
C582   C588    1.396   .     A
C582   C584    1.412   .     A
C583   C585    1.416   .     A
C583   C1304   1.392   .     S
C584   C586    1.415   .     A
C584   C1303   1.392   1_554 S
C585   C590    1.408   .     A
C586   C589    1.407   .     A
C587   H595    1.084   .     S
C587   C1309   1.395   .     S
C588   H596    1.080   .     S
C588   C1310   1.394   1_554 S
C589   O613    1.383   .     S
C589   C1307   1.395   1_554 S
C590   O621    1.384   .     S
C590   C1308   1.394   .     S
C597   N629    1.434   .     S
C597   C602    1.408   .     A
C598   N632    1.434   .     S
C598   C601    1.409   .     A
C598   C680    1.380   .     S
C599   C601    1.406   .     A
C599   N635    1.439   .     S
C599   C677    1.381   .     S
C600   C602    1.406   .     A
C600   N638    1.439   .     S
C603   N612    1.366   .     A
C603   H607    1.082   .     S
C604   N611    1.366   .     A
C604   H608    1.082   .     S
C604   C125    1.416   1_565 S
C605   N612    1.366   .     A
C605   H609    1.082   .     S
C606   N611    1.366   .     A
C606   H610    1.081   .     S
C606   C123    1.416   1_565 S
O613   C614    1.414   .     S
C614   H616    1.118   .     S
C614   H615    1.111   .     S
C614   C617    1.522   .     S
C617   H618    1.110   .     S
H619   C697    1.110   .     S
H620   C697    1.111   .     S
O621   C622    1.411   .     S
C622   H624    1.114   .     S
C622   H623    1.114   .     S
C622   C625    1.522   .     S
C625   H626    1.109   .     S
C625   H707    1.110   .     S
C625   H708    1.110   .     S
N629   O630    1.301   .     A
N629   O631    1.300   .     A
N632   O634    1.300   .     A
N632   O633    1.301   .     A
N635   O636    1.301   .     A
N635   O637    1.301   .     A
N638   O640    1.301   .     A
N638   O639    1.301   .     A
O641   C645    1.284   .     A
O641   Zn653   1.999   .     S
O642   C646    1.285   .     A
O642   Zn654   1.999   .     S
O643   C646    1.279   .     A
O643   Zn653   2.009   .     S
O644   C645    1.279   .     A
O644   Zn654   2.009   .     S
C645   C682    1.424   .     S
C646   C681    1.424   .     S
O647   C651    1.281   .     A
O647   Zn653   2.001   .     S
O648   C652    1.281   .     A
O648   Zn654   2.001   .     S
O649   Zn653   2.006   .     S
O649   C652    1.283   .     A
O650   Zn654   2.006   .     S
O650   C651    1.282   .     A
C651   C658    1.416   .     S
C652   C657    1.419   .     S
Zn653  N691    2.008   .     S
Zn654  N692    2.008   .     S
C655   C665    1.387   .     A
C655   C657    1.389   .     A
C655   H671    1.082   .     S
C656   C666    1.388   .     A
C656   H672    1.083   .     S
C656   C658    1.388   .     A
C657   C659    1.391   .     A
C658   C660    1.389   .     A
C659   C661    1.386   .     A
C659   H673    1.085   .     S
C660   H674    1.085   .     S
C660   C662    1.385   .     A
C661   C667    1.401   .     A
C661   C663    1.414   .     A
C662   C668    1.396   .     A
C662   C664    1.412   .     A
C663   C665    1.416   .     A
C663   C1384   1.392   .     S
C664   C666    1.415   .     A
C664   C1383   1.392   1_554 S
C665   C670    1.408   .     A
C666   C669    1.407   .     A
C667   H675    1.084   .     S
C667   C1389   1.395   .     S
C668   H676    1.080   .     S
C668   C1390   1.394   1_554 S
C669   O693    1.383   .     S
C669   C1387   1.395   1_554 S
C670   O701    1.384   .     S
C670   C1388   1.394   .     S
C677   N709    1.434   .     S
C677   C682    1.408   .     A
C678   N712    1.434   .     S
C678   C681    1.409   .     A
C678   C520    1.380   1_655 S
C679   C681    1.406   .     A
C679   N715    1.439   .     S
C679   C517    1.381   1_655 S
C680   C682    1.406   .     A
C680   N718    1.439   .     S
C683   N692    1.366   .     A
C683   H687    1.082   .     S
C684   N691    1.366   .     A
C684   H688    1.082   .     S
C684   C205    1.416   1_565 S
C685   N692    1.366   .     A
C685   H689    1.082   .     S
C686   N691    1.366   .     A
C686   H690    1.081   .     S
C686   C203    1.416   1_565 S
O693   C694    1.414   .     S
C694   H696    1.118   .     S
C694   H695    1.111   .     S
C694   C697    1.522   .     S
C697   H698    1.110   .     S
H699   C537    1.110   1_655 S
H700   C537    1.111   1_655 S
O701   C702    1.411   .     S
C702   H704    1.114   .     S
C702   H703    1.114   .     S
C702   C705    1.522   .     S
C705   H706    1.109   .     S
C705   H547    1.110   1_655 S
C705   H548    1.110   1_655 S
N709   O710    1.301   .     A
N709   O711    1.300   .     A
N712   O714    1.300   .     A
N712   O713    1.301   .     A
N715   O716    1.301   .     A
N715   O717    1.301   .     A
N718   O720    1.301   .     A
N718   O719    1.301   .     A
O721   C725    1.284   .     A
O721   Zn733   1.999   .     S
O722   C726    1.285   .     A
O722   Zn734   1.999   .     S
O723   C726    1.279   .     A
O723   Zn733   2.009   .     S
O724   C725    1.279   .     A
O724   Zn734   2.009   .     S
C725   C762    1.424   .     S
C726   C761    1.424   .     S
O727   C731    1.281   .     A
O727   Zn733   2.001   .     S
O728   C732    1.281   .     A
O728   Zn734   2.001   .     S
O729   Zn733   2.006   .     S
O729   C732    1.283   .     A
O730   Zn734   2.006   .     S
O730   C731    1.282   .     A
C731   C738    1.416   .     S
C732   C737    1.419   .     S
Zn733  N771    2.008   .     S
Zn734  N772    2.008   .     S
C735   C745    1.387   .     A
C735   C737    1.389   .     A
C735   H751    1.082   .     S
C736   C746    1.388   .     A
C736   H752    1.083   .     S
C736   C738    1.388   .     A
C737   C739    1.391   .     A
C738   C740    1.389   .     A
C739   C741    1.386   .     A
C739   H753    1.085   .     S
C740   H754    1.085   .     S
C740   C742    1.385   .     A
C741   C747    1.401   .     A
C741   C743    1.414   .     A
C742   C748    1.396   .     A
C742   C744    1.412   .     A
C743   C745    1.416   .     A
C743   C24     1.392   1_556 S
C744   C746    1.415   .     A
C745   C750    1.408   .     A
C746   C749    1.407   .     A
C747   H755    1.084   .     S
C747   C29     1.395   1_556 S
C748   H756    1.080   .     S
C749   O773    1.383   .     S
C750   O781    1.384   .     S
C750   C28     1.394   1_556 S
C757   N789    1.434   .     S
C757   C762    1.408   .     A
C757   C919    1.381   1_455 S
C758   N792    1.434   .     S
C758   C761    1.409   .     A
C758   C840    1.380   .     S
C759   C761    1.406   .     A
C759   N795    1.439   .     S
C759   C837    1.381   .     S
C760   C762    1.406   .     A
C760   N798    1.439   .     S
C760   C918    1.380   1_455 S
C763   N772    1.366   .     A
C763   H767    1.082   .     S
C763   C1246   1.416   1_545 S
C764   N771    1.366   .     A
C764   H768    1.082   .     S
C764   C1005   1.416   .     S
C765   N772    1.366   .     A
C765   H769    1.082   .     S
C765   C1244   1.416   1_545 S
C766   N771    1.366   .     A
C766   H770    1.081   .     S
C766   C1003   1.416   .     S
O773   C774    1.414   .     S
C774   H776    1.118   .     S
C774   H775    1.111   .     S
C774   C777    1.522   .     S
C777   H778    1.110   .     S
C777   H939    1.110   1_455 S
C777   H940    1.111   1_455 S
H779   C857    1.110   .     S
H780   C857    1.111   .     S
O781   C782    1.411   .     S
C782   H784    1.114   .     S
C782   H783    1.114   .     S
C782   C785    1.522   .     S
C785   H786    1.109   .     S
C785   H867    1.110   .     S
C785   H868    1.110   .     S
H787   C945    1.110   1_455 S
H788   C945    1.110   1_455 S
N789   O790    1.301   .     A
N789   O791    1.300   .     A
N792   O794    1.300   .     A
N792   O793    1.301   .     A
N795   O796    1.301   .     A
N795   O797    1.301   .     A
N798   O800    1.301   .     A
N798   O799    1.301   .     A
O801   C805    1.284   .     A
O801   Zn813   1.999   .     S
O802   C806    1.285   .     A
O802   Zn814   1.999   .     S
O803   C806    1.279   .     A
O803   Zn813   2.009   .     S
O804   C805    1.279   .     A
O804   Zn814   2.009   .     S
C805   C842    1.424   .     S
C806   C841    1.424   .     S
O807   C811    1.281   .     A
O807   Zn813   2.001   .     S
O808   C812    1.281   .     A
O808   Zn814   2.001   .     S
O809   Zn813   2.006   .     S
O809   C812    1.283   .     A
O810   Zn814   2.006   .     S
O810   C811    1.282   .     A
C811   C818    1.416   .     S
C812   C817    1.419   .     S
Zn813  N851    2.008   .     S
Zn814  N852    2.008   .     S
C815   C825    1.387   .     A
C815   C817    1.389   .     A
C815   H831    1.082   .     S
C816   C826    1.388   .     A
C816   H832    1.083   .     S
C816   C818    1.388   .     A
C817   C819    1.391   .     A
C818   C820    1.389   .     A
C819   C821    1.386   .     A
C819   H833    1.085   .     S
C820   H834    1.085   .     S
C820   C822    1.385   .     A
C821   C827    1.401   .     A
C821   C823    1.414   .     A
C822   C828    1.396   .     A
C822   C824    1.412   .     A
C823   C825    1.416   .     A
C823   C104    1.392   1_556 S
C824   C826    1.415   .     A
C825   C830    1.408   .     A
C826   C829    1.407   .     A
C827   H835    1.084   .     S
C827   C109    1.395   1_556 S
C828   H836    1.080   .     S
C829   O853    1.383   .     S
C830   O861    1.384   .     S
C830   C108    1.394   1_556 S
C837   N869    1.434   .     S
C837   C842    1.408   .     A
C838   N872    1.434   .     S
C838   C841    1.409   .     A
C838   C920    1.380   .     S
C839   C841    1.406   .     A
C839   N875    1.439   .     S
C839   C917    1.381   .     S
C840   C842    1.406   .     A
C840   N878    1.439   .     S
C843   N852    1.366   .     A
C843   H847    1.082   .     S
C843   C1326   1.416   1_545 S
C844   N851    1.366   .     A
C844   H848    1.082   .     S
C844   C1085   1.416   .     S
C845   N852    1.366   .     A
C845   H849    1.082   .     S
C845   C1324   1.416   1_545 S
C846   N851    1.366   .     A
C846   H850    1.081   .     S
C846   C1083   1.416   .     S
O853   C854    1.414   .     S
C854   H856    1.118   .     S
C854   H855    1.111   .     S
C854   C857    1.522   .     S
C857   H858    1.110   .     S
H859   C937    1.110   .     S
H860   C937    1.111   .     S
O861   C862    1.411   .     S
C862   H864    1.114   .     S
C862   H863    1.114   .     S
C862   C865    1.522   .     S
C865   H866    1.109   .     S
C865   H947    1.110   .     S
C865   H948    1.110   .     S
N869   O870    1.301   .     A
N869   O871    1.300   .     A
N872   O874    1.300   .     A
N872   O873    1.301   .     A
N875   O876    1.301   .     A
N875   O877    1.301   .     A
N878   O880    1.301   .     A
N878   O879    1.301   .     A
O881   C885    1.284   .     A
O881   Zn893   1.999   .     S
O882   C886    1.285   .     A
O882   Zn894   1.999   .     S
O883   C886    1.279   .     A
O883   Zn893   2.009   .     S
O884   C885    1.279   .     A
O884   Zn894   2.009   .     S
C885   C922    1.424   .     S
C886   C921    1.424   .     S
O887   C891    1.281   .     A
O887   Zn893   2.001   .     S
O888   C892    1.281   .     A
O888   Zn894   2.001   .     S
O889   Zn893   2.006   .     S
O889   C892    1.283   .     A
O890   Zn894   2.006   .     S
O890   C891    1.282   .     A
C891   C898    1.416   .     S
C892   C897    1.419   .     S
Zn893  N931    2.008   .     S
Zn894  N932    2.008   .     S
C895   C905    1.387   .     A
C895   C897    1.389   .     A
C895   H911    1.082   .     S
C896   C906    1.388   .     A
C896   H912    1.083   .     S
C896   C898    1.388   .     A
C897   C899    1.391   .     A
C898   C900    1.389   .     A
C899   C901    1.386   .     A
C899   H913    1.085   .     S
C900   H914    1.085   .     S
C900   C902    1.385   .     A
C901   C907    1.401   .     A
C901   C903    1.414   .     A
C902   C908    1.396   .     A
C902   C904    1.412   .     A
C903   C905    1.416   .     A
C903   C184    1.392   1_556 S
C904   C906    1.415   .     A
C905   C910    1.408   .     A
C906   C909    1.407   .     A
C907   H915    1.084   .     S
C907   C189    1.395   1_556 S
C908   H916    1.080   .     S
C909   O933    1.383   .     S
C910   O941    1.384   .     S
C910   C188    1.394   1_556 S
C917   N949    1.434   .     S
C917   C922    1.408   .     A
C918   N952    1.434   .     S
C918   C921    1.409   .     A
C918   C760    1.380   1_655 S
C919   C921    1.406   .     A
C919   N955    1.439   .     S
C919   C757    1.381   1_655 S
C920   C922    1.406   .     A
C920   N958    1.439   .     S
C923   N932    1.366   .     A
C923   H927    1.082   .     S
C923   C1406   1.416   1_545 S
C924   N931    1.366   .     A
C924   H928    1.082   .     S
C924   C1165   1.416   .     S
C925   N932    1.366   .     A
C925   H929    1.082   .     S
C925   C1404   1.416   1_545 S
C926   N931    1.366   .     A
C926   H930    1.081   .     S
C926   C1163   1.416   .     S
O933   C934    1.414   .     S
C934   H936    1.118   .     S
C934   H935    1.111   .     S
C934   C937    1.522   .     S
C937   H938    1.110   .     S
H939   C777    1.110   1_655 S
H940   C777    1.111   1_655 S
O941   C942    1.411   .     S
C942   H944    1.114   .     S
C942   H943    1.114   .     S
C942   C945    1.522   .     S
C945   H946    1.109   .     S
C945   H787    1.110   1_655 S
C945   H788    1.110   1_655 S
N949   O950    1.301   .     A
N949   O951    1.300   .     A
N952   O954    1.300   .     A
N952   O953    1.301   .     A
N955   O956    1.301   .     A
N955   O957    1.301   .     A
N958   O960    1.301   .     A
N958   O959    1.301   .     A
O961   C965    1.284   .     A
O961   Zn973   1.999   .     S
O962   C966    1.285   .     A
O962   Zn974   1.999   .     S
O963   C966    1.279   .     A
O963   Zn973   2.009   .     S
O964   C965    1.279   .     A
O964   Zn974   2.009   .     S
C965   C1002   1.424   .     S
C966   C1001   1.424   .     S
O967   C971    1.281   .     A
O967   Zn973   2.001   .     S
O968   C972    1.281   .     A
O968   Zn974   2.001   .     S
O969   Zn973   2.006   .     S
O969   C972    1.283   .     A
O970   Zn974   2.006   .     S
O970   C971    1.282   .     A
C971   C978    1.416   .     S
C972   C977    1.419   .     S
Zn973  N1011   2.008   .     S
Zn974  N1012   2.008   .     S
C975   C985    1.387   .     A
C975   C977    1.389   .     A
C975   H991    1.082   .     S
C976   C986    1.388   .     A
C976   H992    1.083   .     S
C976   C978    1.388   .     A
C977   C979    1.391   .     A
C978   C980    1.389   .     A
C979   C981    1.386   .     A
C979   H993    1.085   .     S
C980   H994    1.085   .     S
C980   C982    1.385   .     A
C981   C987    1.401   .     A
C981   C983    1.414   .     A
C982   C988    1.396   .     A
C982   C984    1.412   .     A
C983   C985    1.416   .     A
C983   C264    1.392   1_556 S
C984   C986    1.415   .     A
C985   C990    1.408   .     A
C986   C989    1.407   .     A
C987   H995    1.084   .     S
C987   C269    1.395   1_556 S
C988   H996    1.080   .     S
C989   O1013   1.383   .     S
C990   O1021   1.384   .     S
C990   C268    1.394   1_556 S
C997   N1029   1.434   .     S
C997   C1002   1.408   .     A
C997   C1159   1.381   1_455 S
C998   N1032   1.434   .     S
C998   C1001   1.409   .     A
C998   C1080   1.380   .     S
C999   C1001   1.406   .     A
C999   N1035   1.439   .     S
C999   C1077   1.381   .     S
C1000  C1002   1.406   .     A
C1000  N1038   1.439   .     S
C1000  C1158   1.380   1_455 S
C1003  N1012   1.366   .     A
C1003  H1007   1.082   .     S
C1004  N1011   1.366   .     A
C1004  H1008   1.082   .     S
C1004  C1245   1.416   .     S
C1005  N1012   1.366   .     A
C1005  H1009   1.082   .     S
C1006  N1011   1.366   .     A
C1006  H1010   1.081   .     S
C1006  C1243   1.416   .     S
O1013  C1014   1.414   .     S
C1014  H1016   1.118   .     S
C1014  H1015   1.111   .     S
C1014  C1017   1.522   .     S
C1017  H1018   1.110   .     S
C1017  H1179   1.110   1_455 S
C1017  H1180   1.111   1_455 S
H1019  C1097   1.110   .     S
H1020  C1097   1.111   .     S
O1021  C1022   1.411   .     S
C1022  H1024   1.114   .     S
C1022  H1023   1.114   .     S
C1022  C1025   1.522   .     S
C1025  H1026   1.109   .     S
C1025  H1107   1.110   .     S
C1025  H1108   1.110   .     S
H1027  C1185   1.110   1_455 S
H1028  C1185   1.110   1_455 S
N1029  O1030   1.301   .     A
N1029  O1031   1.300   .     A
N1032  O1034   1.300   .     A
N1032  O1033   1.301   .     A
N1035  O1036   1.301   .     A
N1035  O1037   1.301   .     A
N1038  O1040   1.301   .     A
N1038  O1039   1.301   .     A
O1041  C1045   1.284   .     A
O1041  Zn1053  1.999   .     S
O1042  C1046   1.285   .     A
O1042  Zn1054  1.999   .     S
O1043  C1046   1.279   .     A
O1043  Zn1053  2.009   .     S
O1044  C1045   1.279   .     A
O1044  Zn1054  2.009   .     S
C1045  C1082   1.424   .     S
C1046  C1081   1.424   .     S
O1047  C1051   1.281   .     A
O1047  Zn1053  2.001   .     S
O1048  C1052   1.281   .     A
O1048  Zn1054  2.001   .     S
O1049  Zn1053  2.006   .     S
O1049  C1052   1.283   .     A
O1050  Zn1054  2.006   .     S
O1050  C1051   1.282   .     A
C1051  C1058   1.416   .     S
C1052  C1057   1.419   .     S
Zn1053 N1091   2.008   .     S
Zn1054 N1092   2.008   .     S
C1055  C1065   1.387   .     A
C1055  C1057   1.389   .     A
C1055  H1071   1.082   .     S
C1056  C1066   1.388   .     A
C1056  H1072   1.083   .     S
C1056  C1058   1.388   .     A
C1057  C1059   1.391   .     A
C1058  C1060   1.389   .     A
C1059  C1061   1.386   .     A
C1059  H1073   1.085   .     S
C1060  H1074   1.085   .     S
C1060  C1062   1.385   .     A
C1061  C1067   1.401   .     A
C1061  C1063   1.414   .     A
C1062  C1068   1.396   .     A
C1062  C1064   1.412   .     A
C1063  C1065   1.416   .     A
C1063  C344    1.392   1_556 S
C1064  C1066   1.415   .     A
C1065  C1070   1.408   .     A
C1066  C1069   1.407   .     A
C1067  H1075   1.084   .     S
C1067  C349    1.395   1_556 S
C1068  H1076   1.080   .     S
C1069  O1093   1.383   .     S
C1070  O1101   1.384   .     S
C1070  C348    1.394   1_556 S
C1077  N1109   1.434   .     S
C1077  C1082   1.408   .     A
C1078  N1112   1.434   .     S
C1078  C1081   1.409   .     A
C1078  C1160   1.380   .     S
C1079  C1081   1.406   .     A
C1079  N1115   1.439   .     S
C1079  C1157   1.381   .     S
C1080  C1082   1.406   .     A
C1080  N1118   1.439   .     S
C1083  N1092   1.366   .     A
C1083  H1087   1.082   .     S
C1084  N1091   1.366   .     A
C1084  H1088   1.082   .     S
C1084  C1325   1.416   .     S
C1085  N1092   1.366   .     A
C1085  H1089   1.082   .     S
C1086  N1091   1.366   .     A
C1086  H1090   1.081   .     S
C1086  C1323   1.416   .     S
O1093  C1094   1.414   .     S
C1094  H1096   1.118   .     S
C1094  H1095   1.111   .     S
C1094  C1097   1.522   .     S
C1097  H1098   1.110   .     S
H1099  C1177   1.110   .     S
H1100  C1177   1.111   .     S
O1101  C1102   1.411   .     S
C1102  H1104   1.114   .     S
C1102  H1103   1.114   .     S
C1102  C1105   1.522   .     S
C1105  H1106   1.109   .     S
C1105  H1187   1.110   .     S
C1105  H1188   1.110   .     S
N1109  O1110   1.301   .     A
N1109  O1111   1.300   .     A
N1112  O1114   1.300   .     A
N1112  O1113   1.301   .     A
N1115  O1116   1.301   .     A
N1115  O1117   1.301   .     A
N1118  O1120   1.301   .     A
N1118  O1119   1.301   .     A
O1121  C1125   1.284   .     A
O1121  Zn1133  1.999   .     S
O1122  C1126   1.285   .     A
O1122  Zn1134  1.999   .     S
O1123  C1126   1.279   .     A
O1123  Zn1133  2.009   .     S
O1124  C1125   1.279   .     A
O1124  Zn1134  2.009   .     S
C1125  C1162   1.424   .     S
C1126  C1161   1.424   .     S
O1127  C1131   1.281   .     A
O1127  Zn1133  2.001   .     S
O1128  C1132   1.281   .     A
O1128  Zn1134  2.001   .     S
O1129  Zn1133  2.006   .     S
O1129  C1132   1.283   .     A
O1130  Zn1134  2.006   .     S
O1130  C1131   1.282   .     A
C1131  C1138   1.416   .     S
C1132  C1137   1.419   .     S
Zn1133 N1171   2.008   .     S
Zn1134 N1172   2.008   .     S
C1135  C1145   1.387   .     A
C1135  C1137   1.389   .     A
C1135  H1151   1.082   .     S
C1136  C1146   1.388   .     A
C1136  H1152   1.083   .     S
C1136  C1138   1.388   .     A
C1137  C1139   1.391   .     A
C1138  C1140   1.389   .     A
C1139  C1141   1.386   .     A
C1139  H1153   1.085   .     S
C1140  H1154   1.085   .     S
C1140  C1142   1.385   .     A
C1141  C1147   1.401   .     A
C1141  C1143   1.414   .     A
C1142  C1148   1.396   .     A
C1142  C1144   1.412   .     A
C1143  C1145   1.416   .     A
C1143  C424    1.392   1_556 S
C1144  C1146   1.415   .     A
C1145  C1150   1.408   .     A
C1146  C1149   1.407   .     A
C1147  H1155   1.084   .     S
C1147  C429    1.395   1_556 S
C1148  H1156   1.080   .     S
C1149  O1173   1.383   .     S
C1150  O1181   1.384   .     S
C1150  C428    1.394   1_556 S
C1157  N1189   1.434   .     S
C1157  C1162   1.408   .     A
C1158  N1192   1.434   .     S
C1158  C1161   1.409   .     A
C1158  C1000   1.380   1_655 S
C1159  C1161   1.406   .     A
C1159  N1195   1.439   .     S
C1159  C997    1.381   1_655 S
C1160  C1162   1.406   .     A
C1160  N1198   1.439   .     S
C1163  N1172   1.366   .     A
C1163  H1167   1.082   .     S
C1164  N1171   1.366   .     A
C1164  H1168   1.082   .     S
C1164  C1405   1.416   .     S
C1165  N1172   1.366   .     A
C1165  H1169   1.082   .     S
C1166  N1171   1.366   .     A
C1166  H1170   1.081   .     S
C1166  C1403   1.416   .     S
O1173  C1174   1.414   .     S
C1174  H1176   1.118   .     S
C1174  H1175   1.111   .     S
C1174  C1177   1.522   .     S
C1177  H1178   1.110   .     S
H1179  C1017   1.110   1_655 S
H1180  C1017   1.111   1_655 S
O1181  C1182   1.411   .     S
C1182  H1184   1.114   .     S
C1182  H1183   1.114   .     S
C1182  C1185   1.522   .     S
C1185  H1186   1.109   .     S
C1185  H1027   1.110   1_655 S
C1185  H1028   1.110   1_655 S
N1189  O1190   1.301   .     A
N1189  O1191   1.300   .     A
N1192  O1194   1.300   .     A
N1192  O1193   1.301   .     A
N1195  O1196   1.301   .     A
N1195  O1197   1.301   .     A
N1198  O1200   1.301   .     A
N1198  O1199   1.301   .     A
O1201  C1205   1.284   .     A
O1201  Zn1213  1.999   .     S
O1202  C1206   1.285   .     A
O1202  Zn1214  1.999   .     S
O1203  C1206   1.279   .     A
O1203  Zn1213  2.009   .     S
O1204  C1205   1.279   .     A
O1204  Zn1214  2.009   .     S
C1205  C1242   1.424   .     S
C1206  C1241   1.424   .     S
O1207  C1211   1.281   .     A
O1207  Zn1213  2.001   .     S
O1208  C1212   1.281   .     A
O1208  Zn1214  2.001   .     S
O1209  Zn1213  2.006   .     S
O1209  C1212   1.283   .     A
O1210  Zn1214  2.006   .     S
O1210  C1211   1.282   .     A
C1211  C1218   1.416   .     S
C1212  C1217   1.419   .     S
Zn1213 N1251   2.008   .     S
Zn1214 N1252   2.008   .     S
C1215  C1225   1.387   .     A
C1215  C1217   1.389   .     A
C1215  H1231   1.082   .     S
C1216  C1226   1.388   .     A
C1216  H1232   1.083   .     S
C1216  C1218   1.388   .     A
C1217  C1219   1.391   .     A
C1218  C1220   1.389   .     A
C1219  C1221   1.386   .     A
C1219  H1233   1.085   .     S
C1220  H1234   1.085   .     S
C1220  C1222   1.385   .     A
C1221  C1227   1.401   .     A
C1221  C1223   1.414   .     A
C1222  C1228   1.396   .     A
C1222  C1224   1.412   .     A
C1223  C1225   1.416   .     A
C1223  C504    1.392   1_556 S
C1224  C1226   1.415   .     A
C1225  C1230   1.408   .     A
C1226  C1229   1.407   .     A
C1227  H1235   1.084   .     S
C1227  C509    1.395   1_556 S
C1228  H1236   1.080   .     S
C1229  O1253   1.383   .     S
C1230  O1261   1.384   .     S
C1230  C508    1.394   1_556 S
C1237  N1269   1.434   .     S
C1237  C1242   1.408   .     A
C1237  C1399   1.381   1_455 S
C1238  N1272   1.434   .     S
C1238  C1241   1.409   .     A
C1238  C1320   1.380   .     S
C1239  C1241   1.406   .     A
C1239  N1275   1.439   .     S
C1239  C1317   1.381   .     S
C1240  C1242   1.406   .     A
C1240  N1278   1.439   .     S
C1240  C1398   1.380   1_455 S
C1243  N1252   1.366   .     A
C1243  H1247   1.082   .     S
C1244  N1251   1.366   .     A
C1244  H1248   1.082   .     S
C1244  C765    1.416   1_565 S
C1245  N1252   1.366   .     A
C1245  H1249   1.082   .     S
C1246  N1251   1.366   .     A
C1246  H1250   1.081   .     S
C1246  C763    1.416   1_565 S
O1253  C1254   1.414   .     S
C1254  H1256   1.118   .     S
C1254  H1255   1.111   .     S
C1254  C1257   1.522   .     S
C1257  H1258   1.110   .     S
C1257  H1419   1.110   1_455 S
C1257  H1420   1.111   1_455 S
H1259  C1337   1.110   .     S
H1260  C1337   1.111   .     S
O1261  C1262   1.411   .     S
C1262  H1264   1.114   .     S
C1262  H1263   1.114   .     S
C1262  C1265   1.522   .     S
C1265  H1266   1.109   .     S
C1265  H1347   1.110   .     S
C1265  H1348   1.110   .     S
H1267  C1425   1.110   1_455 S
H1268  C1425   1.110   1_455 S
N1269  O1270   1.301   .     A
N1269  O1271   1.300   .     A
N1272  O1274   1.300   .     A
N1272  O1273   1.301   .     A
N1275  O1276   1.301   .     A
N1275  O1277   1.301   .     A
N1278  O1280   1.301   .     A
N1278  O1279   1.301   .     A
O1281  C1285   1.284   .     A
O1281  Zn1293  1.999   .     S
O1282  C1286   1.285   .     A
O1282  Zn1294  1.999   .     S
O1283  C1286   1.279   .     A
O1283  Zn1293  2.009   .     S
O1284  C1285   1.279   .     A
O1284  Zn1294  2.009   .     S
C1285  C1322   1.424   .     S
C1286  C1321   1.424   .     S
O1287  C1291   1.281   .     A
O1287  Zn1293  2.001   .     S
O1288  C1292   1.281   .     A
O1288  Zn1294  2.001   .     S
O1289  Zn1293  2.006   .     S
O1289  C1292   1.283   .     A
O1290  Zn1294  2.006   .     S
O1290  C1291   1.282   .     A
C1291  C1298   1.416   .     S
C1292  C1297   1.419   .     S
Zn1293 N1331   2.008   .     S
Zn1294 N1332   2.008   .     S
C1295  C1305   1.387   .     A
C1295  C1297   1.389   .     A
C1295  H1311   1.082   .     S
C1296  C1306   1.388   .     A
C1296  H1312   1.083   .     S
C1296  C1298   1.388   .     A
C1297  C1299   1.391   .     A
C1298  C1300   1.389   .     A
C1299  C1301   1.386   .     A
C1299  H1313   1.085   .     S
C1300  H1314   1.085   .     S
C1300  C1302   1.385   .     A
C1301  C1307   1.401   .     A
C1301  C1303   1.414   .     A
C1302  C1308   1.396   .     A
C1302  C1304   1.412   .     A
C1303  C1305   1.416   .     A
C1303  C584    1.392   1_556 S
C1304  C1306   1.415   .     A
C1305  C1310   1.408   .     A
C1306  C1309   1.407   .     A
C1307  H1315   1.084   .     S
C1307  C589    1.395   1_556 S
C1308  H1316   1.080   .     S
C1309  O1333   1.383   .     S
C1310  O1341   1.384   .     S
C1310  C588    1.394   1_556 S
C1317  N1349   1.434   .     S
C1317  C1322   1.408   .     A
C1318  N1352   1.434   .     S
C1318  C1321   1.409   .     A
C1318  C1400   1.380   .     S
C1319  C1321   1.406   .     A
C1319  N1355   1.439   .     S
C1319  C1397   1.381   .     S
C1320  C1322   1.406   .     A
C1320  N1358   1.439   .     S
C1323  N1332   1.366   .     A
C1323  H1327   1.082   .     S
C1324  N1331   1.366   .     A
C1324  H1328   1.082   .     S
C1324  C845    1.416   1_565 S
C1325  N1332   1.366   .     A
C1325  H1329   1.082   .     S
C1326  N1331   1.366   .     A
C1326  H1330   1.081   .     S
C1326  C843    1.416   1_565 S
O1333  C1334   1.414   .     S
C1334  H1336   1.118   .     S
C1334  H1335   1.111   .     S
C1334  C1337   1.522   .     S
C1337  H1338   1.110   .     S
H1339  C1417   1.110   .     S
H1340  C1417   1.111   .     S
O1341  C1342   1.411   .     S
C1342  H1344   1.114   .     S
C1342  H1343   1.114   .     S
C1342  C1345   1.522   .     S
C1345  H1346   1.109   .     S
C1345  H1427   1.110   .     S
C1345  H1428   1.110   .     S
N1349  O1350   1.301   .     A
N1349  O1351   1.300   .     A
N1352  O1354   1.300   .     A
N1352  O1353   1.301   .     A
N1355  O1356   1.301   .     A
N1355  O1357   1.301   .     A
N1358  O1360   1.301   .     A
N1358  O1359   1.301   .     A
O1361  C1365   1.284   .     A
O1361  Zn1373  1.999   .     S
O1362  C1366   1.285   .     A
O1362  Zn1374  1.999   .     S
O1363  C1366   1.279   .     A
O1363  Zn1373  2.009   .     S
O1364  C1365   1.279   .     A
O1364  Zn1374  2.009   .     S
C1365  C1402   1.424   .     S
C1366  C1401   1.424   .     S
O1367  C1371   1.281   .     A
O1367  Zn1373  2.001   .     S
O1368  C1372   1.281   .     A
O1368  Zn1374  2.001   .     S
O1369  Zn1373  2.006   .     S
O1369  C1372   1.283   .     A
O1370  Zn1374  2.006   .     S
O1370  C1371   1.282   .     A
C1371  C1378   1.416   .     S
C1372  C1377   1.419   .     S
Zn1373 N1411   2.008   .     S
Zn1374 N1412   2.008   .     S
C1375  C1385   1.387   .     A
C1375  C1377   1.389   .     A
C1375  H1391   1.082   .     S
C1376  C1386   1.388   .     A
C1376  H1392   1.083   .     S
C1376  C1378   1.388   .     A
C1377  C1379   1.391   .     A
C1378  C1380   1.389   .     A
C1379  C1381   1.386   .     A
C1379  H1393   1.085   .     S
C1380  H1394   1.085   .     S
C1380  C1382   1.385   .     A
C1381  C1387   1.401   .     A
C1381  C1383   1.414   .     A
C1382  C1388   1.396   .     A
C1382  C1384   1.412   .     A
C1383  C1385   1.416   .     A
C1383  C664    1.392   1_556 S
C1384  C1386   1.415   .     A
C1385  C1390   1.408   .     A
C1386  C1389   1.407   .     A
C1387  H1395   1.084   .     S
C1387  C669    1.395   1_556 S
C1388  H1396   1.080   .     S
C1389  O1413   1.383   .     S
C1390  O1421   1.384   .     S
C1390  C668    1.394   1_556 S
C1397  N1429   1.434   .     S
C1397  C1402   1.408   .     A
C1398  N1432   1.434   .     S
C1398  C1401   1.409   .     A
C1398  C1240   1.380   1_655 S
C1399  C1401   1.406   .     A
C1399  N1435   1.439   .     S
C1399  C1237   1.381   1_655 S
C1400  C1402   1.406   .     A
C1400  N1438   1.439   .     S
C1403  N1412   1.366   .     A
C1403  H1407   1.082   .     S
C1404  N1411   1.366   .     A
C1404  H1408   1.082   .     S
C1404  C925    1.416   1_565 S
C1405  N1412   1.366   .     A
C1405  H1409   1.082   .     S
C1406  N1411   1.366   .     A
C1406  H1410   1.081   .     S
C1406  C923    1.416   1_565 S
O1413  C1414   1.414   .     S
C1414  H1416   1.118   .     S
C1414  H1415   1.111   .     S
C1414  C1417   1.522   .     S
C1417  H1418   1.110   .     S
H1419  C1257   1.110   1_655 S
H1420  C1257   1.111   1_655 S
O1421  C1422   1.411   .     S
C1422  H1424   1.114   .     S
C1422  H1423   1.114   .     S
C1422  C1425   1.522   .     S
C1425  H1426   1.109   .     S
C1425  H1267   1.110   1_655 S
C1425  H1268   1.110   1_655 S
N1429  O1430   1.301   .     A
N1429  O1431   1.300   .     A
N1432  O1434   1.300   .     A
N1432  O1433   1.301   .     A
N1435  O1436   1.301   .     A
N1435  O1437   1.301   .     A
N1438  O1440   1.301   .     A
N1438  O1439   1.301   .     A
