data_str_m3_o10_o17_pcu_sym.162
_audit_creation_date              2020-01-03
_audit_creation_method            'Materials Studio'
_symmetry_space_group_name_H-M    'P1'
_symmetry_Int_Tables_number       1
_symmetry_cell_setting            triclinic
loop_
_symmetry_equiv_pos_as_xyz
  x,y,z
_cell_length_a                    23.2843
_cell_length_b                    25.7060
_cell_length_c                    29.8779
_cell_angle_alpha                 91.1901
_cell_angle_beta                  85.6007
_cell_angle_gamma                 93.8167
loop_
_atom_site_label
_atom_site_type_symbol
_atom_site_fract_x
_atom_site_fract_y
_atom_site_fract_z
_atom_site_U_iso_or_equiv
_atom_site_adp_type
_atom_site_occupancy
C1     C     0.18197   0.26493   0.24883   0.00000  Uiso   1.00
C2     C     0.15136   0.06840   0.25117   0.00000  Uiso   1.00
C3     C     0.26436   0.21018   0.47241   0.00000  Uiso   1.00
C4     C     0.06898   0.12315   0.02759   0.00000  Uiso   1.00
C5     C     0.19002   0.31945   0.24814   0.00000  Uiso   1.00
C6     C     0.14331   0.01388   0.25186   0.00000  Uiso   1.00
C7     C     0.16720   0.16631   0.33654   0.00000  Uiso   1.00
C8     C     0.16613   0.16702   0.16346   0.00000  Uiso   1.00
C9     C     0.11683   0.14696   0.09553   0.00000  Uiso   1.00
C10    C     0.21650   0.18637   0.40447   0.00000  Uiso   1.00
C11    C     0.16526   0.16811   0.11573   0.00000  Uiso   1.00
C12    C     0.16808   0.16522   0.38427   0.00000  Uiso   1.00
C13    C     0.21362   0.18937   0.09055   0.00000  Uiso   1.00
C14    C     0.11971   0.14396   0.40945   0.00000  Uiso   1.00
C15    C     0.21433   0.18923   0.04431   0.00000  Uiso   1.00
C16    C     0.11900   0.14411   0.45569   0.00000  Uiso   1.00
C17    C     0.16603   0.16709   0.02333   0.00000  Uiso   1.00
C18    C     0.16730   0.16624   0.47667   0.00000  Uiso   1.00
C19    C     0.11666   0.14565   0.04905   0.00000  Uiso   1.00
C20    C     0.21668   0.18768   0.45095   0.00000  Uiso   1.00
C21    C     0.26282   0.21059   0.01898   0.00000  Uiso   1.00
C22    C     0.07052   0.12274   0.48103   0.00000  Uiso   1.00
H23    H     0.08031   0.13067   0.11641   0.00000  Uiso   1.00
H24    H     0.25302   0.20267   0.38359   0.00000  Uiso   1.00
H25    H     0.25065   0.20609   0.10705   0.00000  Uiso   1.00
H26    H     0.08268   0.12724   0.39295   0.00000  Uiso   1.00
H27    H     0.29966   0.22765   0.03542   0.00000  Uiso   1.00
H28    H     0.03367   0.10569   0.46458   0.00000  Uiso   1.00
H29    H     0.23410   0.00323   0.24458   0.00000  Uiso   1.00
H30    H     0.09923   0.33010   0.25542   0.00000  Uiso   1.00
H31    H     0.00468   0.12763   0.21598   0.00000  Uiso   1.00
H32    H     0.32865   0.20570   0.28402   0.00000  Uiso   1.00
N33    N     0.31678   0.15265   0.23783   0.00000  Uiso   1.00
N34    N     0.01656   0.18068   0.26217   0.00000  Uiso   1.00
O35    O     0.12975   0.24619   0.25299   0.00000  Uiso   1.00
O36    O     0.20358   0.08714   0.24702   0.00000  Uiso   1.00
O37    O     0.22613   0.23721   0.24519   0.00000  Uiso   1.00
O38    O     0.10720   0.09613   0.25482   0.00000  Uiso   1.00
O39    O     0.11847   0.17117   0.31998   0.00000  Uiso   1.00
O40    O     0.21486   0.16216   0.18003   0.00000  Uiso   1.00
O41    O     0.21485   0.16219   0.31218   0.00000  Uiso   1.00
O42    O     0.11848   0.17115   0.18783   0.00000  Uiso   1.00
Zn43   Zn    0.10231   0.17266   0.25521   0.00000  Uiso   1.00
Zn44   Zn    0.23102   0.16067   0.24479   0.00000  Uiso   1.00
I45    I     0.00653   0.24546   0.43781   0.00000  Uiso   1.00
I46    I     0.32680   0.08788   0.06219   0.00000  Uiso   1.00
C47    C     0.51531   0.26493   0.24883   0.00000  Uiso   1.00
C48    C     0.48469   0.06840   0.25117   0.00000  Uiso   1.00
C49    C     0.59769   0.21018   0.47241   0.00000  Uiso   1.00
C50    C     0.40231   0.12315   0.02759   0.00000  Uiso   1.00
C51    C     0.52336   0.31945   0.24814   0.00000  Uiso   1.00
C52    C     0.47664   0.01388   0.25186   0.00000  Uiso   1.00
C53    C     0.50053   0.16631   0.33654   0.00000  Uiso   1.00
C54    C     0.49947   0.16702   0.16346   0.00000  Uiso   1.00
C55    C     0.45016   0.14696   0.09553   0.00000  Uiso   1.00
C56    C     0.54984   0.18637   0.40447   0.00000  Uiso   1.00
C57    C     0.49859   0.16811   0.11573   0.00000  Uiso   1.00
C58    C     0.50141   0.16522   0.38427   0.00000  Uiso   1.00
C59    C     0.54695   0.18937   0.09055   0.00000  Uiso   1.00
C60    C     0.45305   0.14396   0.40945   0.00000  Uiso   1.00
C61    C     0.54766   0.18923   0.04431   0.00000  Uiso   1.00
C62    C     0.45234   0.14411   0.45569   0.00000  Uiso   1.00
C63    C     0.49936   0.16709   0.02333   0.00000  Uiso   1.00
C64    C     0.50064   0.16624   0.47667   0.00000  Uiso   1.00
C65    C     0.44999   0.14565   0.04905   0.00000  Uiso   1.00
C66    C     0.55001   0.18768   0.45095   0.00000  Uiso   1.00
C67    C     0.59615   0.21059   0.01898   0.00000  Uiso   1.00
C68    C     0.40385   0.12274   0.48103   0.00000  Uiso   1.00
H69    H     0.41364   0.13067   0.11641   0.00000  Uiso   1.00
H70    H     0.58636   0.20267   0.38359   0.00000  Uiso   1.00
H71    H     0.58398   0.20609   0.10705   0.00000  Uiso   1.00
H72    H     0.41602   0.12724   0.39295   0.00000  Uiso   1.00
H73    H     0.63300   0.22765   0.03542   0.00000  Uiso   1.00
H74    H     0.36700   0.10569   0.46458   0.00000  Uiso   1.00
H75    H     0.56744   0.00323   0.24458   0.00000  Uiso   1.00
H76    H     0.43256   0.33010   0.25542   0.00000  Uiso   1.00
H77    H     0.33801   0.12763   0.21598   0.00000  Uiso   1.00
H78    H     0.66199   0.20570   0.28402   0.00000  Uiso   1.00
N79    N     0.65011   0.15265   0.23783   0.00000  Uiso   1.00
N80    N     0.34989   0.18068   0.26217   0.00000  Uiso   1.00
O81    O     0.46308   0.24619   0.25299   0.00000  Uiso   1.00
O82    O     0.53692   0.08714   0.24702   0.00000  Uiso   1.00
O83    O     0.55946   0.23721   0.24519   0.00000  Uiso   1.00
O84    O     0.44054   0.09613   0.25482   0.00000  Uiso   1.00
O85    O     0.45181   0.17117   0.31998   0.00000  Uiso   1.00
O86    O     0.54819   0.16216   0.18003   0.00000  Uiso   1.00
O87    O     0.54819   0.16219   0.31218   0.00000  Uiso   1.00
O88    O     0.45181   0.17115   0.18783   0.00000  Uiso   1.00
Zn89   Zn    0.43565   0.17266   0.25521   0.00000  Uiso   1.00
Zn90   Zn    0.56435   0.16067   0.24479   0.00000  Uiso   1.00
I91    I     0.33986   0.24546   0.43781   0.00000  Uiso   1.00
I92    I     0.66014   0.08788   0.06219   0.00000  Uiso   1.00
C93    C     0.84864   0.26493   0.24883   0.00000  Uiso   1.00
C94    C     0.81803   0.06840   0.25117   0.00000  Uiso   1.00
C95    C     0.93102   0.21018   0.47241   0.00000  Uiso   1.00
C96    C     0.73564   0.12315   0.02759   0.00000  Uiso   1.00
C97    C     0.85669   0.31945   0.24814   0.00000  Uiso   1.00
C98    C     0.80998   0.01388   0.25186   0.00000  Uiso   1.00
C99    C     0.83387   0.16631   0.33654   0.00000  Uiso   1.00
C100   C     0.83280   0.16702   0.16346   0.00000  Uiso   1.00
C101   C     0.78349   0.14696   0.09553   0.00000  Uiso   1.00
C102   C     0.88317   0.18637   0.40447   0.00000  Uiso   1.00
C103   C     0.83192   0.16811   0.11573   0.00000  Uiso   1.00
C104   C     0.83474   0.16522   0.38427   0.00000  Uiso   1.00
C105   C     0.88029   0.18937   0.09055   0.00000  Uiso   1.00
C106   C     0.78638   0.14396   0.40945   0.00000  Uiso   1.00
C107   C     0.88100   0.18923   0.04431   0.00000  Uiso   1.00
C108   C     0.78567   0.14411   0.45569   0.00000  Uiso   1.00
C109   C     0.83270   0.16709   0.02333   0.00000  Uiso   1.00
C110   C     0.83397   0.16624   0.47667   0.00000  Uiso   1.00
C111   C     0.78332   0.14565   0.04905   0.00000  Uiso   1.00
C112   C     0.88334   0.18768   0.45095   0.00000  Uiso   1.00
C113   C     0.92948   0.21059   0.01898   0.00000  Uiso   1.00
C114   C     0.73718   0.12274   0.48103   0.00000  Uiso   1.00
H115   H     0.74698   0.13067   0.11641   0.00000  Uiso   1.00
H116   H     0.91969   0.20267   0.38359   0.00000  Uiso   1.00
H117   H     0.91732   0.20609   0.10705   0.00000  Uiso   1.00
H118   H     0.74935   0.12724   0.39295   0.00000  Uiso   1.00
H119   H     0.96633   0.22765   0.03542   0.00000  Uiso   1.00
H120   H     0.70034   0.10569   0.46458   0.00000  Uiso   1.00
H121   H     0.90077   0.00323   0.24458   0.00000  Uiso   1.00
H122   H     0.76590   0.33010   0.25542   0.00000  Uiso   1.00
H123   H     0.67135   0.12763   0.21598   0.00000  Uiso   1.00
H124   H     0.99532   0.20570   0.28402   0.00000  Uiso   1.00
N125   N     0.98344   0.15265   0.23783   0.00000  Uiso   1.00
N126   N     0.68322   0.18068   0.26217   0.00000  Uiso   1.00
O127   O     0.79642   0.24619   0.25299   0.00000  Uiso   1.00
O128   O     0.87025   0.08714   0.24702   0.00000  Uiso   1.00
O129   O     0.89280   0.23721   0.24519   0.00000  Uiso   1.00
O130   O     0.77387   0.09613   0.25482   0.00000  Uiso   1.00
O131   O     0.78514   0.17117   0.31998   0.00000  Uiso   1.00
O132   O     0.88153   0.16216   0.18003   0.00000  Uiso   1.00
O133   O     0.88152   0.16219   0.31218   0.00000  Uiso   1.00
O134   O     0.78515   0.17115   0.18783   0.00000  Uiso   1.00
Zn135  Zn    0.76898   0.17266   0.25521   0.00000  Uiso   1.00
Zn136  Zn    0.89769   0.16067   0.24479   0.00000  Uiso   1.00
I137   I     0.67320   0.24546   0.43781   0.00000  Uiso   1.00
I138   I     0.99347   0.08788   0.06219   0.00000  Uiso   1.00
C139   C     0.18197   0.59827   0.24883   0.00000  Uiso   1.00
C140   C     0.15136   0.40173   0.25117   0.00000  Uiso   1.00
C141   C     0.26436   0.54352   0.47241   0.00000  Uiso   1.00
C142   C     0.06898   0.45648   0.02759   0.00000  Uiso   1.00
C143   C     0.19002   0.65279   0.24814   0.00000  Uiso   1.00
C144   C     0.14331   0.34721   0.25186   0.00000  Uiso   1.00
C145   C     0.16720   0.49964   0.33654   0.00000  Uiso   1.00
C146   C     0.16613   0.50036   0.16346   0.00000  Uiso   1.00
C147   C     0.11683   0.48030   0.09553   0.00000  Uiso   1.00
C148   C     0.21650   0.51970   0.40447   0.00000  Uiso   1.00
C149   C     0.16526   0.50144   0.11573   0.00000  Uiso   1.00
C150   C     0.16808   0.49856   0.38427   0.00000  Uiso   1.00
C151   C     0.21362   0.52271   0.09055   0.00000  Uiso   1.00
C152   C     0.11971   0.47729   0.40945   0.00000  Uiso   1.00
C153   C     0.21433   0.52256   0.04431   0.00000  Uiso   1.00
C154   C     0.11900   0.47744   0.45569   0.00000  Uiso   1.00
C155   C     0.16603   0.50042   0.02333   0.00000  Uiso   1.00
C156   C     0.16730   0.49958   0.47667   0.00000  Uiso   1.00
C157   C     0.11666   0.47899   0.04905   0.00000  Uiso   1.00
C158   C     0.21668   0.52101   0.45095   0.00000  Uiso   1.00
C159   C     0.26282   0.54392   0.01898   0.00000  Uiso   1.00
C160   C     0.07052   0.45607   0.48103   0.00000  Uiso   1.00
H161   H     0.08031   0.46400   0.11641   0.00000  Uiso   1.00
H162   H     0.25302   0.53600   0.38359   0.00000  Uiso   1.00
H163   H     0.25065   0.53943   0.10705   0.00000  Uiso   1.00
H164   H     0.08268   0.46057   0.39295   0.00000  Uiso   1.00
H165   H     0.29966   0.56098   0.03542   0.00000  Uiso   1.00
H166   H     0.03367   0.43902   0.46458   0.00000  Uiso   1.00
H167   H     0.23410   0.33656   0.24458   0.00000  Uiso   1.00
H168   H     0.09923   0.66344   0.25542   0.00000  Uiso   1.00
H169   H     0.00468   0.46097   0.21598   0.00000  Uiso   1.00
H170   H     0.32865   0.53903   0.28402   0.00000  Uiso   1.00
N171   N     0.31678   0.48598   0.23783   0.00000  Uiso   1.00
N172   N     0.01656   0.51402   0.26217   0.00000  Uiso   1.00
O173   O     0.12975   0.57952   0.25299   0.00000  Uiso   1.00
O174   O     0.20358   0.42048   0.24702   0.00000  Uiso   1.00
O175   O     0.22613   0.57054   0.24519   0.00000  Uiso   1.00
O176   O     0.10720   0.42946   0.25482   0.00000  Uiso   1.00
O177   O     0.11847   0.50450   0.31998   0.00000  Uiso   1.00
O178   O     0.21486   0.49550   0.18003   0.00000  Uiso   1.00
O179   O     0.21485   0.49552   0.31218   0.00000  Uiso   1.00
O180   O     0.11848   0.50448   0.18783   0.00000  Uiso   1.00
Zn181  Zn    0.10231   0.50600   0.25521   0.00000  Uiso   1.00
Zn182  Zn    0.23102   0.49400   0.24479   0.00000  Uiso   1.00
I183   I     0.00653   0.57879   0.43781   0.00000  Uiso   1.00
I184   I     0.32680   0.42121   0.06219   0.00000  Uiso   1.00
C185   C     0.51531   0.59827   0.24883   0.00000  Uiso   1.00
C186   C     0.48469   0.40173   0.25117   0.00000  Uiso   1.00
C187   C     0.59769   0.54352   0.47241   0.00000  Uiso   1.00
C188   C     0.40231   0.45648   0.02759   0.00000  Uiso   1.00
C189   C     0.52336   0.65279   0.24814   0.00000  Uiso   1.00
C190   C     0.47664   0.34721   0.25186   0.00000  Uiso   1.00
C191   C     0.50053   0.49964   0.33654   0.00000  Uiso   1.00
C192   C     0.49947   0.50036   0.16346   0.00000  Uiso   1.00
C193   C     0.45016   0.48030   0.09553   0.00000  Uiso   1.00
C194   C     0.54984   0.51970   0.40447   0.00000  Uiso   1.00
C195   C     0.49859   0.50144   0.11573   0.00000  Uiso   1.00
C196   C     0.50141   0.49856   0.38427   0.00000  Uiso   1.00
C197   C     0.54695   0.52271   0.09055   0.00000  Uiso   1.00
C198   C     0.45305   0.47729   0.40945   0.00000  Uiso   1.00
C199   C     0.54766   0.52256   0.04431   0.00000  Uiso   1.00
C200   C     0.45234   0.47744   0.45569   0.00000  Uiso   1.00
C201   C     0.49936   0.50042   0.02333   0.00000  Uiso   1.00
C202   C     0.50064   0.49958   0.47667   0.00000  Uiso   1.00
C203   C     0.44999   0.47899   0.04905   0.00000  Uiso   1.00
C204   C     0.55001   0.52101   0.45095   0.00000  Uiso   1.00
C205   C     0.59615   0.54392   0.01898   0.00000  Uiso   1.00
C206   C     0.40385   0.45607   0.48103   0.00000  Uiso   1.00
H207   H     0.41364   0.46400   0.11641   0.00000  Uiso   1.00
H208   H     0.58636   0.53600   0.38359   0.00000  Uiso   1.00
H209   H     0.58398   0.53943   0.10705   0.00000  Uiso   1.00
H210   H     0.41602   0.46057   0.39295   0.00000  Uiso   1.00
H211   H     0.63300   0.56098   0.03542   0.00000  Uiso   1.00
H212   H     0.36700   0.43902   0.46458   0.00000  Uiso   1.00
H213   H     0.56744   0.33656   0.24458   0.00000  Uiso   1.00
H214   H     0.43256   0.66344   0.25542   0.00000  Uiso   1.00
H215   H     0.33801   0.46097   0.21598   0.00000  Uiso   1.00
H216   H     0.66199   0.53903   0.28402   0.00000  Uiso   1.00
N217   N     0.65011   0.48598   0.23783   0.00000  Uiso   1.00
N218   N     0.34989   0.51402   0.26217   0.00000  Uiso   1.00
O219   O     0.46308   0.57952   0.25299   0.00000  Uiso   1.00
O220   O     0.53692   0.42048   0.24702   0.00000  Uiso   1.00
O221   O     0.55946   0.57054   0.24519   0.00000  Uiso   1.00
O222   O     0.44054   0.42946   0.25482   0.00000  Uiso   1.00
O223   O     0.45181   0.50450   0.31998   0.00000  Uiso   1.00
O224   O     0.54819   0.49550   0.18003   0.00000  Uiso   1.00
O225   O     0.54819   0.49552   0.31218   0.00000  Uiso   1.00
O226   O     0.45181   0.50448   0.18783   0.00000  Uiso   1.00
Zn227  Zn    0.43565   0.50600   0.25521   0.00000  Uiso   1.00
Zn228  Zn    0.56435   0.49400   0.24479   0.00000  Uiso   1.00
I229   I     0.33986   0.57879   0.43781   0.00000  Uiso   1.00
I230   I     0.66014   0.42121   0.06219   0.00000  Uiso   1.00
C231   C     0.84864   0.59827   0.24883   0.00000  Uiso   1.00
C232   C     0.81803   0.40173   0.25117   0.00000  Uiso   1.00
C233   C     0.93102   0.54352   0.47241   0.00000  Uiso   1.00
C234   C     0.73564   0.45648   0.02759   0.00000  Uiso   1.00
C235   C     0.85669   0.65279   0.24814   0.00000  Uiso   1.00
C236   C     0.80998   0.34721   0.25186   0.00000  Uiso   1.00
C237   C     0.83387   0.49964   0.33654   0.00000  Uiso   1.00
C238   C     0.83280   0.50036   0.16346   0.00000  Uiso   1.00
C239   C     0.78349   0.48030   0.09553   0.00000  Uiso   1.00
C240   C     0.88317   0.51970   0.40447   0.00000  Uiso   1.00
C241   C     0.83192   0.50144   0.11573   0.00000  Uiso   1.00
C242   C     0.83474   0.49856   0.38427   0.00000  Uiso   1.00
C243   C     0.88029   0.52271   0.09055   0.00000  Uiso   1.00
C244   C     0.78638   0.47729   0.40945   0.00000  Uiso   1.00
C245   C     0.88100   0.52256   0.04431   0.00000  Uiso   1.00
C246   C     0.78567   0.47744   0.45569   0.00000  Uiso   1.00
C247   C     0.83270   0.50042   0.02333   0.00000  Uiso   1.00
C248   C     0.83397   0.49958   0.47667   0.00000  Uiso   1.00
C249   C     0.78332   0.47899   0.04905   0.00000  Uiso   1.00
C250   C     0.88334   0.52101   0.45095   0.00000  Uiso   1.00
C251   C     0.92948   0.54392   0.01898   0.00000  Uiso   1.00
C252   C     0.73718   0.45607   0.48103   0.00000  Uiso   1.00
H253   H     0.74698   0.46400   0.11641   0.00000  Uiso   1.00
H254   H     0.91969   0.53600   0.38359   0.00000  Uiso   1.00
H255   H     0.91732   0.53943   0.10705   0.00000  Uiso   1.00
H256   H     0.74935   0.46057   0.39295   0.00000  Uiso   1.00
H257   H     0.96633   0.56098   0.03542   0.00000  Uiso   1.00
H258   H     0.70034   0.43902   0.46458   0.00000  Uiso   1.00
H259   H     0.90077   0.33656   0.24458   0.00000  Uiso   1.00
H260   H     0.76590   0.66344   0.25542   0.00000  Uiso   1.00
H261   H     0.67135   0.46097   0.21598   0.00000  Uiso   1.00
H262   H     0.99532   0.53903   0.28402   0.00000  Uiso   1.00
N263   N     0.98344   0.48598   0.23783   0.00000  Uiso   1.00
N264   N     0.68322   0.51402   0.26217   0.00000  Uiso   1.00
O265   O     0.79642   0.57952   0.25299   0.00000  Uiso   1.00
O266   O     0.87025   0.42048   0.24702   0.00000  Uiso   1.00
O267   O     0.89280   0.57054   0.24519   0.00000  Uiso   1.00
O268   O     0.77387   0.42946   0.25482   0.00000  Uiso   1.00
O269   O     0.78514   0.50450   0.31998   0.00000  Uiso   1.00
O270   O     0.88153   0.49550   0.18003   0.00000  Uiso   1.00
O271   O     0.88152   0.49552   0.31218   0.00000  Uiso   1.00
O272   O     0.78515   0.50448   0.18783   0.00000  Uiso   1.00
Zn273  Zn    0.76898   0.50600   0.25521   0.00000  Uiso   1.00
Zn274  Zn    0.89769   0.49400   0.24479   0.00000  Uiso   1.00
I275   I     0.67320   0.57879   0.43781   0.00000  Uiso   1.00
I276   I     0.99347   0.42121   0.06219   0.00000  Uiso   1.00
C277   C     0.18197   0.93160   0.24883   0.00000  Uiso   1.00
C278   C     0.15136   0.73507   0.25117   0.00000  Uiso   1.00
C279   C     0.26436   0.87685   0.47241   0.00000  Uiso   1.00
C280   C     0.06898   0.78982   0.02759   0.00000  Uiso   1.00
C281   C     0.19002   0.98612   0.24814   0.00000  Uiso   1.00
C282   C     0.14331   0.68055   0.25186   0.00000  Uiso   1.00
C283   C     0.16720   0.83298   0.33654   0.00000  Uiso   1.00
C284   C     0.16613   0.83369   0.16346   0.00000  Uiso   1.00
C285   C     0.11683   0.81363   0.09553   0.00000  Uiso   1.00
C286   C     0.21650   0.85304   0.40447   0.00000  Uiso   1.00
C287   C     0.16526   0.83478   0.11573   0.00000  Uiso   1.00
C288   C     0.16808   0.83189   0.38427   0.00000  Uiso   1.00
C289   C     0.21362   0.85604   0.09055   0.00000  Uiso   1.00
C290   C     0.11971   0.81062   0.40945   0.00000  Uiso   1.00
C291   C     0.21433   0.85589   0.04431   0.00000  Uiso   1.00
C292   C     0.11900   0.81077   0.45569   0.00000  Uiso   1.00
C293   C     0.16603   0.83376   0.02333   0.00000  Uiso   1.00
C294   C     0.16730   0.83291   0.47667   0.00000  Uiso   1.00
C295   C     0.11666   0.81232   0.04905   0.00000  Uiso   1.00
C296   C     0.21668   0.85435   0.45095   0.00000  Uiso   1.00
C297   C     0.26282   0.87726   0.01898   0.00000  Uiso   1.00
C298   C     0.07052   0.78941   0.48103   0.00000  Uiso   1.00
H299   H     0.08031   0.79733   0.11641   0.00000  Uiso   1.00
H300   H     0.25302   0.86933   0.38359   0.00000  Uiso   1.00
H301   H     0.25065   0.87276   0.10705   0.00000  Uiso   1.00
H302   H     0.08268   0.79391   0.39295   0.00000  Uiso   1.00
H303   H     0.29966   0.89431   0.03542   0.00000  Uiso   1.00
H304   H     0.03367   0.77235   0.46458   0.00000  Uiso   1.00
H305   H     0.23410   0.66990   0.24458   0.00000  Uiso   1.00
H306   H     0.09923   0.99677   0.25542   0.00000  Uiso   1.00
H307   H     0.00468   0.79430   0.21598   0.00000  Uiso   1.00
H308   H     0.32865   0.87237   0.28402   0.00000  Uiso   1.00
N309   N     0.31678   0.81932   0.23783   0.00000  Uiso   1.00
N310   N     0.01656   0.84735   0.26217   0.00000  Uiso   1.00
O311   O     0.12975   0.91286   0.25299   0.00000  Uiso   1.00
O312   O     0.20358   0.75381   0.24702   0.00000  Uiso   1.00
O313   O     0.22613   0.90387   0.24519   0.00000  Uiso   1.00
O314   O     0.10720   0.76279   0.25482   0.00000  Uiso   1.00
O315   O     0.11847   0.83784   0.31998   0.00000  Uiso   1.00
O316   O     0.21486   0.82883   0.18003   0.00000  Uiso   1.00
O317   O     0.21485   0.82885   0.31218   0.00000  Uiso   1.00
O318   O     0.11848   0.83781   0.18783   0.00000  Uiso   1.00
Zn319  Zn    0.10231   0.83933   0.25521   0.00000  Uiso   1.00
Zn320  Zn    0.23102   0.82734   0.24479   0.00000  Uiso   1.00
I321   I     0.00653   0.91212   0.43781   0.00000  Uiso   1.00
I322   I     0.32680   0.75454   0.06219   0.00000  Uiso   1.00
C323   C     0.51531   0.93160   0.24883   0.00000  Uiso   1.00
C324   C     0.48469   0.73507   0.25117   0.00000  Uiso   1.00
C325   C     0.59769   0.87685   0.47241   0.00000  Uiso   1.00
C326   C     0.40231   0.78982   0.02759   0.00000  Uiso   1.00
C327   C     0.52336   0.98612   0.24814   0.00000  Uiso   1.00
C328   C     0.47664   0.68055   0.25186   0.00000  Uiso   1.00
C329   C     0.50053   0.83298   0.33654   0.00000  Uiso   1.00
C330   C     0.49947   0.83369   0.16346   0.00000  Uiso   1.00
C331   C     0.45016   0.81363   0.09553   0.00000  Uiso   1.00
C332   C     0.54984   0.85304   0.40447   0.00000  Uiso   1.00
C333   C     0.49859   0.83478   0.11573   0.00000  Uiso   1.00
C334   C     0.50141   0.83189   0.38427   0.00000  Uiso   1.00
C335   C     0.54695   0.85604   0.09055   0.00000  Uiso   1.00
C336   C     0.45305   0.81062   0.40945   0.00000  Uiso   1.00
C337   C     0.54766   0.85589   0.04431   0.00000  Uiso   1.00
C338   C     0.45234   0.81077   0.45569   0.00000  Uiso   1.00
C339   C     0.49936   0.83376   0.02333   0.00000  Uiso   1.00
C340   C     0.50064   0.83291   0.47667   0.00000  Uiso   1.00
C341   C     0.44999   0.81232   0.04905   0.00000  Uiso   1.00
C342   C     0.55001   0.85435   0.45095   0.00000  Uiso   1.00
C343   C     0.59615   0.87726   0.01898   0.00000  Uiso   1.00
C344   C     0.40385   0.78941   0.48103   0.00000  Uiso   1.00
H345   H     0.41364   0.79733   0.11641   0.00000  Uiso   1.00
H346   H     0.58636   0.86933   0.38359   0.00000  Uiso   1.00
H347   H     0.58398   0.87276   0.10705   0.00000  Uiso   1.00
H348   H     0.41602   0.79391   0.39295   0.00000  Uiso   1.00
H349   H     0.63300   0.89431   0.03542   0.00000  Uiso   1.00
H350   H     0.36700   0.77235   0.46458   0.00000  Uiso   1.00
H351   H     0.56744   0.66990   0.24458   0.00000  Uiso   1.00
H352   H     0.43256   0.99677   0.25542   0.00000  Uiso   1.00
H353   H     0.33801   0.79430   0.21598   0.00000  Uiso   1.00
H354   H     0.66199   0.87237   0.28402   0.00000  Uiso   1.00
N355   N     0.65011   0.81932   0.23783   0.00000  Uiso   1.00
N356   N     0.34989   0.84735   0.26217   0.00000  Uiso   1.00
O357   O     0.46308   0.91286   0.25299   0.00000  Uiso   1.00
O358   O     0.53692   0.75381   0.24702   0.00000  Uiso   1.00
O359   O     0.55946   0.90387   0.24519   0.00000  Uiso   1.00
O360   O     0.44054   0.76279   0.25482   0.00000  Uiso   1.00
O361   O     0.45181   0.83784   0.31998   0.00000  Uiso   1.00
O362   O     0.54819   0.82883   0.18003   0.00000  Uiso   1.00
O363   O     0.54819   0.82885   0.31218   0.00000  Uiso   1.00
O364   O     0.45181   0.83781   0.18783   0.00000  Uiso   1.00
Zn365  Zn    0.43565   0.83933   0.25521   0.00000  Uiso   1.00
Zn366  Zn    0.56435   0.82734   0.24479   0.00000  Uiso   1.00
I367   I     0.33986   0.91212   0.43781   0.00000  Uiso   1.00
I368   I     0.66014   0.75454   0.06219   0.00000  Uiso   1.00
C369   C     0.84864   0.93160   0.24883   0.00000  Uiso   1.00
C370   C     0.81803   0.73507   0.25117   0.00000  Uiso   1.00
C371   C     0.93102   0.87685   0.47241   0.00000  Uiso   1.00
C372   C     0.73564   0.78982   0.02759   0.00000  Uiso   1.00
C373   C     0.85669   0.98612   0.24814   0.00000  Uiso   1.00
C374   C     0.80998   0.68055   0.25186   0.00000  Uiso   1.00
C375   C     0.83387   0.83298   0.33654   0.00000  Uiso   1.00
C376   C     0.83280   0.83369   0.16346   0.00000  Uiso   1.00
C377   C     0.78349   0.81363   0.09553   0.00000  Uiso   1.00
C378   C     0.88317   0.85304   0.40447   0.00000  Uiso   1.00
C379   C     0.83192   0.83478   0.11573   0.00000  Uiso   1.00
C380   C     0.83474   0.83189   0.38427   0.00000  Uiso   1.00
C381   C     0.88029   0.85604   0.09055   0.00000  Uiso   1.00
C382   C     0.78638   0.81062   0.40945   0.00000  Uiso   1.00
C383   C     0.88100   0.85589   0.04431   0.00000  Uiso   1.00
C384   C     0.78567   0.81077   0.45569   0.00000  Uiso   1.00
C385   C     0.83270   0.83376   0.02333   0.00000  Uiso   1.00
C386   C     0.83397   0.83291   0.47667   0.00000  Uiso   1.00
C387   C     0.78332   0.81232   0.04905   0.00000  Uiso   1.00
C388   C     0.88334   0.85435   0.45095   0.00000  Uiso   1.00
C389   C     0.92948   0.87726   0.01898   0.00000  Uiso   1.00
C390   C     0.73718   0.78941   0.48103   0.00000  Uiso   1.00
H391   H     0.74698   0.79733   0.11641   0.00000  Uiso   1.00
H392   H     0.91969   0.86933   0.38359   0.00000  Uiso   1.00
H393   H     0.91732   0.87276   0.10705   0.00000  Uiso   1.00
H394   H     0.74935   0.79391   0.39295   0.00000  Uiso   1.00
H395   H     0.96633   0.89431   0.03542   0.00000  Uiso   1.00
H396   H     0.70034   0.77235   0.46458   0.00000  Uiso   1.00
H397   H     0.90077   0.66990   0.24458   0.00000  Uiso   1.00
H398   H     0.76590   0.99677   0.25542   0.00000  Uiso   1.00
H399   H     0.67135   0.79430   0.21598   0.00000  Uiso   1.00
H400   H     0.99532   0.87237   0.28402   0.00000  Uiso   1.00
N401   N     0.98344   0.81932   0.23783   0.00000  Uiso   1.00
N402   N     0.68322   0.84735   0.26217   0.00000  Uiso   1.00
O403   O     0.79642   0.91286   0.25299   0.00000  Uiso   1.00
O404   O     0.87025   0.75381   0.24702   0.00000  Uiso   1.00
O405   O     0.89280   0.90387   0.24519   0.00000  Uiso   1.00
O406   O     0.77387   0.76279   0.25482   0.00000  Uiso   1.00
O407   O     0.78514   0.83784   0.31998   0.00000  Uiso   1.00
O408   O     0.88153   0.82883   0.18003   0.00000  Uiso   1.00
O409   O     0.88152   0.82885   0.31218   0.00000  Uiso   1.00
O410   O     0.78515   0.83781   0.18783   0.00000  Uiso   1.00
Zn411  Zn    0.76898   0.83933   0.25521   0.00000  Uiso   1.00
Zn412  Zn    0.89769   0.82734   0.24479   0.00000  Uiso   1.00
I413   I     0.67320   0.91212   0.43781   0.00000  Uiso   1.00
I414   I     0.99347   0.75454   0.06219   0.00000  Uiso   1.00
C415   C     0.18197   0.26493   0.74883   0.00000  Uiso   1.00
C416   C     0.15136   0.06840   0.75117   0.00000  Uiso   1.00
C417   C     0.26436   0.21018   0.97241   0.00000  Uiso   1.00
C418   C     0.06898   0.12315   0.52759   0.00000  Uiso   1.00
C419   C     0.19002   0.31945   0.74814   0.00000  Uiso   1.00
C420   C     0.14331   0.01388   0.75186   0.00000  Uiso   1.00
C421   C     0.16720   0.16631   0.83654   0.00000  Uiso   1.00
C422   C     0.16613   0.16702   0.66346   0.00000  Uiso   1.00
C423   C     0.11683   0.14696   0.59553   0.00000  Uiso   1.00
C424   C     0.21650   0.18637   0.90447   0.00000  Uiso   1.00
C425   C     0.16526   0.16811   0.61573   0.00000  Uiso   1.00
C426   C     0.16808   0.16522   0.88427   0.00000  Uiso   1.00
C427   C     0.21362   0.18937   0.59055   0.00000  Uiso   1.00
C428   C     0.11971   0.14396   0.90945   0.00000  Uiso   1.00
C429   C     0.21433   0.18923   0.54431   0.00000  Uiso   1.00
C430   C     0.11900   0.14411   0.95569   0.00000  Uiso   1.00
C431   C     0.16603   0.16709   0.52333   0.00000  Uiso   1.00
C432   C     0.16730   0.16624   0.97667   0.00000  Uiso   1.00
C433   C     0.11666   0.14565   0.54905   0.00000  Uiso   1.00
C434   C     0.21668   0.18768   0.95095   0.00000  Uiso   1.00
C435   C     0.26282   0.21059   0.51898   0.00000  Uiso   1.00
C436   C     0.07052   0.12274   0.98103   0.00000  Uiso   1.00
H437   H     0.08031   0.13067   0.61641   0.00000  Uiso   1.00
H438   H     0.25302   0.20267   0.88359   0.00000  Uiso   1.00
H439   H     0.25065   0.20609   0.60705   0.00000  Uiso   1.00
H440   H     0.08268   0.12724   0.89295   0.00000  Uiso   1.00
H441   H     0.29966   0.22765   0.53542   0.00000  Uiso   1.00
H442   H     0.03367   0.10569   0.96458   0.00000  Uiso   1.00
H443   H     0.23410   0.00323   0.74458   0.00000  Uiso   1.00
H444   H     0.09923   0.33010   0.75542   0.00000  Uiso   1.00
H445   H     0.00468   0.12763   0.71598   0.00000  Uiso   1.00
H446   H     0.32865   0.20570   0.78402   0.00000  Uiso   1.00
N447   N     0.31678   0.15265   0.73783   0.00000  Uiso   1.00
N448   N     0.01656   0.18068   0.76217   0.00000  Uiso   1.00
O449   O     0.12975   0.24619   0.75299   0.00000  Uiso   1.00
O450   O     0.20358   0.08714   0.74702   0.00000  Uiso   1.00
O451   O     0.22613   0.23721   0.74519   0.00000  Uiso   1.00
O452   O     0.10720   0.09613   0.75482   0.00000  Uiso   1.00
O453   O     0.11847   0.17117   0.81998   0.00000  Uiso   1.00
O454   O     0.21486   0.16216   0.68003   0.00000  Uiso   1.00
O455   O     0.21485   0.16219   0.81218   0.00000  Uiso   1.00
O456   O     0.11848   0.17115   0.68783   0.00000  Uiso   1.00
Zn457  Zn    0.10231   0.17266   0.75521   0.00000  Uiso   1.00
Zn458  Zn    0.23102   0.16067   0.74479   0.00000  Uiso   1.00
I459   I     0.00653   0.24546   0.93781   0.00000  Uiso   1.00
I460   I     0.32680   0.08788   0.56219   0.00000  Uiso   1.00
C461   C     0.51531   0.26493   0.74883   0.00000  Uiso   1.00
C462   C     0.48469   0.06840   0.75117   0.00000  Uiso   1.00
C463   C     0.59769   0.21018   0.97241   0.00000  Uiso   1.00
C464   C     0.40231   0.12315   0.52759   0.00000  Uiso   1.00
C465   C     0.52336   0.31945   0.74814   0.00000  Uiso   1.00
C466   C     0.47664   0.01388   0.75186   0.00000  Uiso   1.00
C467   C     0.50053   0.16631   0.83654   0.00000  Uiso   1.00
C468   C     0.49947   0.16702   0.66346   0.00000  Uiso   1.00
C469   C     0.45016   0.14696   0.59553   0.00000  Uiso   1.00
C470   C     0.54984   0.18637   0.90447   0.00000  Uiso   1.00
C471   C     0.49859   0.16811   0.61573   0.00000  Uiso   1.00
C472   C     0.50141   0.16522   0.88427   0.00000  Uiso   1.00
C473   C     0.54695   0.18937   0.59055   0.00000  Uiso   1.00
C474   C     0.45305   0.14396   0.90945   0.00000  Uiso   1.00
C475   C     0.54766   0.18923   0.54431   0.00000  Uiso   1.00
C476   C     0.45234   0.14411   0.95569   0.00000  Uiso   1.00
C477   C     0.49936   0.16709   0.52333   0.00000  Uiso   1.00
C478   C     0.50064   0.16624   0.97667   0.00000  Uiso   1.00
C479   C     0.44999   0.14565   0.54905   0.00000  Uiso   1.00
C480   C     0.55001   0.18768   0.95095   0.00000  Uiso   1.00
C481   C     0.59615   0.21059   0.51898   0.00000  Uiso   1.00
C482   C     0.40385   0.12274   0.98103   0.00000  Uiso   1.00
H483   H     0.41364   0.13067   0.61641   0.00000  Uiso   1.00
H484   H     0.58636   0.20267   0.88359   0.00000  Uiso   1.00
H485   H     0.58398   0.20609   0.60705   0.00000  Uiso   1.00
H486   H     0.41602   0.12724   0.89295   0.00000  Uiso   1.00
H487   H     0.63300   0.22765   0.53542   0.00000  Uiso   1.00
H488   H     0.36700   0.10569   0.96458   0.00000  Uiso   1.00
H489   H     0.56744   0.00323   0.74458   0.00000  Uiso   1.00
H490   H     0.43256   0.33010   0.75542   0.00000  Uiso   1.00
H491   H     0.33801   0.12763   0.71598   0.00000  Uiso   1.00
H492   H     0.66199   0.20570   0.78402   0.00000  Uiso   1.00
N493   N     0.65011   0.15265   0.73783   0.00000  Uiso   1.00
N494   N     0.34989   0.18068   0.76217   0.00000  Uiso   1.00
O495   O     0.46308   0.24619   0.75299   0.00000  Uiso   1.00
O496   O     0.53692   0.08714   0.74702   0.00000  Uiso   1.00
O497   O     0.55946   0.23721   0.74519   0.00000  Uiso   1.00
O498   O     0.44054   0.09613   0.75482   0.00000  Uiso   1.00
O499   O     0.45181   0.17117   0.81998   0.00000  Uiso   1.00
O500   O     0.54819   0.16216   0.68003   0.00000  Uiso   1.00
O501   O     0.54819   0.16219   0.81218   0.00000  Uiso   1.00
O502   O     0.45181   0.17115   0.68783   0.00000  Uiso   1.00
Zn503  Zn    0.43565   0.17266   0.75521   0.00000  Uiso   1.00
Zn504  Zn    0.56435   0.16067   0.74479   0.00000  Uiso   1.00
I505   I     0.33986   0.24546   0.93781   0.00000  Uiso   1.00
I506   I     0.66014   0.08788   0.56219   0.00000  Uiso   1.00
C507   C     0.84864   0.26493   0.74883   0.00000  Uiso   1.00
C508   C     0.81803   0.06840   0.75117   0.00000  Uiso   1.00
C509   C     0.93102   0.21018   0.97241   0.00000  Uiso   1.00
C510   C     0.73564   0.12315   0.52759   0.00000  Uiso   1.00
C511   C     0.85669   0.31945   0.74814   0.00000  Uiso   1.00
C512   C     0.80998   0.01388   0.75186   0.00000  Uiso   1.00
C513   C     0.83387   0.16631   0.83654   0.00000  Uiso   1.00
C514   C     0.83280   0.16702   0.66346   0.00000  Uiso   1.00
C515   C     0.78349   0.14696   0.59553   0.00000  Uiso   1.00
C516   C     0.88317   0.18637   0.90447   0.00000  Uiso   1.00
C517   C     0.83192   0.16811   0.61573   0.00000  Uiso   1.00
C518   C     0.83474   0.16522   0.88427   0.00000  Uiso   1.00
C519   C     0.88029   0.18937   0.59055   0.00000  Uiso   1.00
C520   C     0.78638   0.14396   0.90945   0.00000  Uiso   1.00
C521   C     0.88100   0.18923   0.54431   0.00000  Uiso   1.00
C522   C     0.78567   0.14411   0.95569   0.00000  Uiso   1.00
C523   C     0.83270   0.16709   0.52333   0.00000  Uiso   1.00
C524   C     0.83397   0.16624   0.97667   0.00000  Uiso   1.00
C525   C     0.78332   0.14565   0.54905   0.00000  Uiso   1.00
C526   C     0.88334   0.18768   0.95095   0.00000  Uiso   1.00
C527   C     0.92948   0.21059   0.51898   0.00000  Uiso   1.00
C528   C     0.73718   0.12274   0.98103   0.00000  Uiso   1.00
H529   H     0.74698   0.13067   0.61641   0.00000  Uiso   1.00
H530   H     0.91969   0.20267   0.88359   0.00000  Uiso   1.00
H531   H     0.91732   0.20609   0.60705   0.00000  Uiso   1.00
H532   H     0.74935   0.12724   0.89295   0.00000  Uiso   1.00
H533   H     0.96633   0.22765   0.53542   0.00000  Uiso   1.00
H534   H     0.70034   0.10569   0.96458   0.00000  Uiso   1.00
H535   H     0.90077   0.00323   0.74458   0.00000  Uiso   1.00
H536   H     0.76590   0.33010   0.75542   0.00000  Uiso   1.00
H537   H     0.67135   0.12763   0.71598   0.00000  Uiso   1.00
H538   H     0.99532   0.20570   0.78402   0.00000  Uiso   1.00
N539   N     0.98344   0.15265   0.73783   0.00000  Uiso   1.00
N540   N     0.68322   0.18068   0.76217   0.00000  Uiso   1.00
O541   O     0.79642   0.24619   0.75299   0.00000  Uiso   1.00
O542   O     0.87025   0.08714   0.74702   0.00000  Uiso   1.00
O543   O     0.89280   0.23721   0.74519   0.00000  Uiso   1.00
O544   O     0.77387   0.09613   0.75482   0.00000  Uiso   1.00
O545   O     0.78514   0.17117   0.81998   0.00000  Uiso   1.00
O546   O     0.88153   0.16216   0.68003   0.00000  Uiso   1.00
O547   O     0.88152   0.16219   0.81218   0.00000  Uiso   1.00
O548   O     0.78515   0.17115   0.68783   0.00000  Uiso   1.00
Zn549  Zn    0.76898   0.17266   0.75521   0.00000  Uiso   1.00
Zn550  Zn    0.89769   0.16067   0.74479   0.00000  Uiso   1.00
I551   I     0.67320   0.24546   0.93781   0.00000  Uiso   1.00
I552   I     0.99347   0.08788   0.56219   0.00000  Uiso   1.00
C553   C     0.18197   0.59827   0.74883   0.00000  Uiso   1.00
C554   C     0.15136   0.40173   0.75117   0.00000  Uiso   1.00
C555   C     0.26436   0.54352   0.97241   0.00000  Uiso   1.00
C556   C     0.06898   0.45648   0.52759   0.00000  Uiso   1.00
C557   C     0.19002   0.65279   0.74814   0.00000  Uiso   1.00
C558   C     0.14331   0.34721   0.75186   0.00000  Uiso   1.00
C559   C     0.16720   0.49964   0.83654   0.00000  Uiso   1.00
C560   C     0.16613   0.50036   0.66346   0.00000  Uiso   1.00
C561   C     0.11683   0.48030   0.59553   0.00000  Uiso   1.00
C562   C     0.21650   0.51970   0.90447   0.00000  Uiso   1.00
C563   C     0.16526   0.50144   0.61573   0.00000  Uiso   1.00
C564   C     0.16808   0.49856   0.88427   0.00000  Uiso   1.00
C565   C     0.21362   0.52271   0.59055   0.00000  Uiso   1.00
C566   C     0.11971   0.47729   0.90945   0.00000  Uiso   1.00
C567   C     0.21433   0.52256   0.54431   0.00000  Uiso   1.00
C568   C     0.11900   0.47744   0.95569   0.00000  Uiso   1.00
C569   C     0.16603   0.50042   0.52333   0.00000  Uiso   1.00
C570   C     0.16730   0.49958   0.97667   0.00000  Uiso   1.00
C571   C     0.11666   0.47899   0.54905   0.00000  Uiso   1.00
C572   C     0.21668   0.52101   0.95095   0.00000  Uiso   1.00
C573   C     0.26282   0.54392   0.51898   0.00000  Uiso   1.00
C574   C     0.07052   0.45607   0.98103   0.00000  Uiso   1.00
H575   H     0.08031   0.46400   0.61641   0.00000  Uiso   1.00
H576   H     0.25302   0.53600   0.88359   0.00000  Uiso   1.00
H577   H     0.25065   0.53943   0.60705   0.00000  Uiso   1.00
H578   H     0.08268   0.46057   0.89295   0.00000  Uiso   1.00
H579   H     0.29966   0.56098   0.53542   0.00000  Uiso   1.00
H580   H     0.03367   0.43902   0.96458   0.00000  Uiso   1.00
H581   H     0.23410   0.33656   0.74458   0.00000  Uiso   1.00
H582   H     0.09923   0.66344   0.75542   0.00000  Uiso   1.00
H583   H     0.00468   0.46097   0.71598   0.00000  Uiso   1.00
H584   H     0.32865   0.53903   0.78402   0.00000  Uiso   1.00
N585   N     0.31678   0.48598   0.73783   0.00000  Uiso   1.00
N586   N     0.01656   0.51402   0.76217   0.00000  Uiso   1.00
O587   O     0.12975   0.57952   0.75299   0.00000  Uiso   1.00
O588   O     0.20358   0.42048   0.74702   0.00000  Uiso   1.00
O589   O     0.22613   0.57054   0.74519   0.00000  Uiso   1.00
O590   O     0.10720   0.42946   0.75482   0.00000  Uiso   1.00
O591   O     0.11847   0.50450   0.81998   0.00000  Uiso   1.00
O592   O     0.21486   0.49550   0.68003   0.00000  Uiso   1.00
O593   O     0.21485   0.49552   0.81218   0.00000  Uiso   1.00
O594   O     0.11848   0.50448   0.68783   0.00000  Uiso   1.00
Zn595  Zn    0.10231   0.50600   0.75521   0.00000  Uiso   1.00
Zn596  Zn    0.23102   0.49400   0.74479   0.00000  Uiso   1.00
I597   I     0.00653   0.57879   0.93781   0.00000  Uiso   1.00
I598   I     0.32680   0.42121   0.56219   0.00000  Uiso   1.00
C599   C     0.51531   0.59827   0.74883   0.00000  Uiso   1.00
C600   C     0.48469   0.40173   0.75117   0.00000  Uiso   1.00
C601   C     0.59769   0.54352   0.97241   0.00000  Uiso   1.00
C602   C     0.40231   0.45648   0.52759   0.00000  Uiso   1.00
C603   C     0.52336   0.65279   0.74814   0.00000  Uiso   1.00
C604   C     0.47664   0.34721   0.75186   0.00000  Uiso   1.00
C605   C     0.50053   0.49964   0.83654   0.00000  Uiso   1.00
C606   C     0.49947   0.50036   0.66346   0.00000  Uiso   1.00
C607   C     0.45016   0.48030   0.59553   0.00000  Uiso   1.00
C608   C     0.54984   0.51970   0.90447   0.00000  Uiso   1.00
C609   C     0.49859   0.50144   0.61573   0.00000  Uiso   1.00
C610   C     0.50141   0.49856   0.88427   0.00000  Uiso   1.00
C611   C     0.54695   0.52271   0.59055   0.00000  Uiso   1.00
C612   C     0.45305   0.47729   0.90945   0.00000  Uiso   1.00
C613   C     0.54766   0.52256   0.54431   0.00000  Uiso   1.00
C614   C     0.45234   0.47744   0.95569   0.00000  Uiso   1.00
C615   C     0.49936   0.50042   0.52333   0.00000  Uiso   1.00
C616   C     0.50064   0.49958   0.97667   0.00000  Uiso   1.00
C617   C     0.44999   0.47899   0.54905   0.00000  Uiso   1.00
C618   C     0.55001   0.52101   0.95095   0.00000  Uiso   1.00
C619   C     0.59615   0.54392   0.51898   0.00000  Uiso   1.00
C620   C     0.40385   0.45607   0.98103   0.00000  Uiso   1.00
H621   H     0.41364   0.46400   0.61641   0.00000  Uiso   1.00
H622   H     0.58636   0.53600   0.88359   0.00000  Uiso   1.00
H623   H     0.58398   0.53943   0.60705   0.00000  Uiso   1.00
H624   H     0.41602   0.46057   0.89295   0.00000  Uiso   1.00
H625   H     0.63300   0.56098   0.53542   0.00000  Uiso   1.00
H626   H     0.36700   0.43902   0.96458   0.00000  Uiso   1.00
H627   H     0.56744   0.33656   0.74458   0.00000  Uiso   1.00
H628   H     0.43256   0.66344   0.75542   0.00000  Uiso   1.00
H629   H     0.33801   0.46097   0.71598   0.00000  Uiso   1.00
H630   H     0.66199   0.53903   0.78402   0.00000  Uiso   1.00
N631   N     0.65011   0.48598   0.73783   0.00000  Uiso   1.00
N632   N     0.34989   0.51402   0.76217   0.00000  Uiso   1.00
O633   O     0.46308   0.57952   0.75299   0.00000  Uiso   1.00
O634   O     0.53692   0.42048   0.74702   0.00000  Uiso   1.00
O635   O     0.55946   0.57054   0.74519   0.00000  Uiso   1.00
O636   O     0.44054   0.42946   0.75482   0.00000  Uiso   1.00
O637   O     0.45181   0.50450   0.81998   0.00000  Uiso   1.00
O638   O     0.54819   0.49550   0.68003   0.00000  Uiso   1.00
O639   O     0.54819   0.49552   0.81218   0.00000  Uiso   1.00
O640   O     0.45181   0.50448   0.68783   0.00000  Uiso   1.00
Zn641  Zn    0.43565   0.50600   0.75521   0.00000  Uiso   1.00
Zn642  Zn    0.56435   0.49400   0.74479   0.00000  Uiso   1.00
I643   I     0.33986   0.57879   0.93781   0.00000  Uiso   1.00
I644   I     0.66014   0.42121   0.56219   0.00000  Uiso   1.00
C645   C     0.84864   0.59827   0.74883   0.00000  Uiso   1.00
C646   C     0.81803   0.40173   0.75117   0.00000  Uiso   1.00
C647   C     0.93102   0.54352   0.97241   0.00000  Uiso   1.00
C648   C     0.73564   0.45648   0.52759   0.00000  Uiso   1.00
C649   C     0.85669   0.65279   0.74814   0.00000  Uiso   1.00
C650   C     0.80998   0.34721   0.75186   0.00000  Uiso   1.00
C651   C     0.83387   0.49964   0.83654   0.00000  Uiso   1.00
C652   C     0.83280   0.50036   0.66346   0.00000  Uiso   1.00
C653   C     0.78349   0.48030   0.59553   0.00000  Uiso   1.00
C654   C     0.88317   0.51970   0.90447   0.00000  Uiso   1.00
C655   C     0.83192   0.50144   0.61573   0.00000  Uiso   1.00
C656   C     0.83474   0.49856   0.88427   0.00000  Uiso   1.00
C657   C     0.88029   0.52271   0.59055   0.00000  Uiso   1.00
C658   C     0.78638   0.47729   0.90945   0.00000  Uiso   1.00
C659   C     0.88100   0.52256   0.54431   0.00000  Uiso   1.00
C660   C     0.78567   0.47744   0.95569   0.00000  Uiso   1.00
C661   C     0.83270   0.50042   0.52333   0.00000  Uiso   1.00
C662   C     0.83397   0.49958   0.97667   0.00000  Uiso   1.00
C663   C     0.78332   0.47899   0.54905   0.00000  Uiso   1.00
C664   C     0.88334   0.52101   0.95095   0.00000  Uiso   1.00
C665   C     0.92948   0.54392   0.51898   0.00000  Uiso   1.00
C666   C     0.73718   0.45607   0.98103   0.00000  Uiso   1.00
H667   H     0.74698   0.46400   0.61641   0.00000  Uiso   1.00
H668   H     0.91969   0.53600   0.88359   0.00000  Uiso   1.00
H669   H     0.91732   0.53943   0.60705   0.00000  Uiso   1.00
H670   H     0.74935   0.46057   0.89295   0.00000  Uiso   1.00
H671   H     0.96633   0.56098   0.53542   0.00000  Uiso   1.00
H672   H     0.70034   0.43902   0.96458   0.00000  Uiso   1.00
H673   H     0.90077   0.33656   0.74458   0.00000  Uiso   1.00
H674   H     0.76590   0.66344   0.75542   0.00000  Uiso   1.00
H675   H     0.67135   0.46097   0.71598   0.00000  Uiso   1.00
H676   H     0.99532   0.53903   0.78402   0.00000  Uiso   1.00
N677   N     0.98344   0.48598   0.73783   0.00000  Uiso   1.00
N678   N     0.68322   0.51402   0.76217   0.00000  Uiso   1.00
O679   O     0.79642   0.57952   0.75299   0.00000  Uiso   1.00
O680   O     0.87025   0.42048   0.74702   0.00000  Uiso   1.00
O681   O     0.89280   0.57054   0.74519   0.00000  Uiso   1.00
O682   O     0.77387   0.42946   0.75482   0.00000  Uiso   1.00
O683   O     0.78514   0.50450   0.81998   0.00000  Uiso   1.00
O684   O     0.88153   0.49550   0.68003   0.00000  Uiso   1.00
O685   O     0.88152   0.49552   0.81218   0.00000  Uiso   1.00
O686   O     0.78515   0.50448   0.68783   0.00000  Uiso   1.00
Zn687  Zn    0.76898   0.50600   0.75521   0.00000  Uiso   1.00
Zn688  Zn    0.89769   0.49400   0.74479   0.00000  Uiso   1.00
I689   I     0.67320   0.57879   0.93781   0.00000  Uiso   1.00
I690   I     0.99347   0.42121   0.56219   0.00000  Uiso   1.00
C691   C     0.18197   0.93160   0.74883   0.00000  Uiso   1.00
C692   C     0.15136   0.73507   0.75117   0.00000  Uiso   1.00
C693   C     0.26436   0.87685   0.97241   0.00000  Uiso   1.00
C694   C     0.06898   0.78982   0.52759   0.00000  Uiso   1.00
C695   C     0.19002   0.98612   0.74814   0.00000  Uiso   1.00
C696   C     0.14331   0.68055   0.75186   0.00000  Uiso   1.00
C697   C     0.16720   0.83298   0.83654   0.00000  Uiso   1.00
C698   C     0.16613   0.83369   0.66346   0.00000  Uiso   1.00
C699   C     0.11683   0.81363   0.59553   0.00000  Uiso   1.00
C700   C     0.21650   0.85304   0.90447   0.00000  Uiso   1.00
C701   C     0.16526   0.83478   0.61573   0.00000  Uiso   1.00
C702   C     0.16808   0.83189   0.88427   0.00000  Uiso   1.00
C703   C     0.21362   0.85604   0.59055   0.00000  Uiso   1.00
C704   C     0.11971   0.81062   0.90945   0.00000  Uiso   1.00
C705   C     0.21433   0.85589   0.54431   0.00000  Uiso   1.00
C706   C     0.11900   0.81077   0.95569   0.00000  Uiso   1.00
C707   C     0.16603   0.83376   0.52333   0.00000  Uiso   1.00
C708   C     0.16730   0.83291   0.97667   0.00000  Uiso   1.00
C709   C     0.11666   0.81232   0.54905   0.00000  Uiso   1.00
C710   C     0.21668   0.85435   0.95095   0.00000  Uiso   1.00
C711   C     0.26282   0.87726   0.51898   0.00000  Uiso   1.00
C712   C     0.07052   0.78941   0.98103   0.00000  Uiso   1.00
H713   H     0.08031   0.79733   0.61641   0.00000  Uiso   1.00
H714   H     0.25302   0.86933   0.88359   0.00000  Uiso   1.00
H715   H     0.25065   0.87276   0.60705   0.00000  Uiso   1.00
H716   H     0.08268   0.79391   0.89295   0.00000  Uiso   1.00
H717   H     0.29966   0.89431   0.53542   0.00000  Uiso   1.00
H718   H     0.03367   0.77235   0.96458   0.00000  Uiso   1.00
H719   H     0.23410   0.66990   0.74458   0.00000  Uiso   1.00
H720   H     0.09923   0.99677   0.75542   0.00000  Uiso   1.00
H721   H     0.00468   0.79430   0.71598   0.00000  Uiso   1.00
H722   H     0.32865   0.87237   0.78402   0.00000  Uiso   1.00
N723   N     0.31678   0.81932   0.73783   0.00000  Uiso   1.00
N724   N     0.01656   0.84735   0.76217   0.00000  Uiso   1.00
O725   O     0.12975   0.91286   0.75299   0.00000  Uiso   1.00
O726   O     0.20358   0.75381   0.74702   0.00000  Uiso   1.00
O727   O     0.22613   0.90387   0.74519   0.00000  Uiso   1.00
O728   O     0.10720   0.76279   0.75482   0.00000  Uiso   1.00
O729   O     0.11847   0.83784   0.81998   0.00000  Uiso   1.00
O730   O     0.21486   0.82883   0.68003   0.00000  Uiso   1.00
O731   O     0.21485   0.82885   0.81218   0.00000  Uiso   1.00
O732   O     0.11848   0.83781   0.68783   0.00000  Uiso   1.00
Zn733  Zn    0.10231   0.83933   0.75521   0.00000  Uiso   1.00
Zn734  Zn    0.23102   0.82734   0.74479   0.00000  Uiso   1.00
I735   I     0.00653   0.91212   0.93781   0.00000  Uiso   1.00
I736   I     0.32680   0.75454   0.56219   0.00000  Uiso   1.00
C737   C     0.51531   0.93160   0.74883   0.00000  Uiso   1.00
C738   C     0.48469   0.73507   0.75117   0.00000  Uiso   1.00
C739   C     0.59769   0.87685   0.97241   0.00000  Uiso   1.00
C740   C     0.40231   0.78982   0.52759   0.00000  Uiso   1.00
C741   C     0.52336   0.98612   0.74814   0.00000  Uiso   1.00
C742   C     0.47664   0.68055   0.75186   0.00000  Uiso   1.00
C743   C     0.50053   0.83298   0.83654   0.00000  Uiso   1.00
C744   C     0.49947   0.83369   0.66346   0.00000  Uiso   1.00
C745   C     0.45016   0.81363   0.59553   0.00000  Uiso   1.00
C746   C     0.54984   0.85304   0.90447   0.00000  Uiso   1.00
C747   C     0.49859   0.83478   0.61573   0.00000  Uiso   1.00
C748   C     0.50141   0.83189   0.88427   0.00000  Uiso   1.00
C749   C     0.54695   0.85604   0.59055   0.00000  Uiso   1.00
C750   C     0.45305   0.81062   0.90945   0.00000  Uiso   1.00
C751   C     0.54766   0.85589   0.54431   0.00000  Uiso   1.00
C752   C     0.45234   0.81077   0.95569   0.00000  Uiso   1.00
C753   C     0.49936   0.83376   0.52333   0.00000  Uiso   1.00
C754   C     0.50064   0.83291   0.97667   0.00000  Uiso   1.00
C755   C     0.44999   0.81232   0.54905   0.00000  Uiso   1.00
C756   C     0.55001   0.85435   0.95095   0.00000  Uiso   1.00
C757   C     0.59615   0.87726   0.51898   0.00000  Uiso   1.00
C758   C     0.40385   0.78941   0.98103   0.00000  Uiso   1.00
H759   H     0.41364   0.79733   0.61641   0.00000  Uiso   1.00
H760   H     0.58636   0.86933   0.88359   0.00000  Uiso   1.00
H761   H     0.58398   0.87276   0.60705   0.00000  Uiso   1.00
H762   H     0.41602   0.79391   0.89295   0.00000  Uiso   1.00
H763   H     0.63300   0.89431   0.53542   0.00000  Uiso   1.00
H764   H     0.36700   0.77235   0.96458   0.00000  Uiso   1.00
H765   H     0.56744   0.66990   0.74458   0.00000  Uiso   1.00
H766   H     0.43256   0.99677   0.75542   0.00000  Uiso   1.00
H767   H     0.33801   0.79430   0.71598   0.00000  Uiso   1.00
H768   H     0.66199   0.87237   0.78402   0.00000  Uiso   1.00
N769   N     0.65011   0.81932   0.73783   0.00000  Uiso   1.00
N770   N     0.34989   0.84735   0.76217   0.00000  Uiso   1.00
O771   O     0.46308   0.91286   0.75299   0.00000  Uiso   1.00
O772   O     0.53692   0.75381   0.74702   0.00000  Uiso   1.00
O773   O     0.55946   0.90387   0.74519   0.00000  Uiso   1.00
O774   O     0.44054   0.76279   0.75482   0.00000  Uiso   1.00
O775   O     0.45181   0.83784   0.81998   0.00000  Uiso   1.00
O776   O     0.54819   0.82883   0.68003   0.00000  Uiso   1.00
O777   O     0.54819   0.82885   0.81218   0.00000  Uiso   1.00
O778   O     0.45181   0.83781   0.68783   0.00000  Uiso   1.00
Zn779  Zn    0.43565   0.83933   0.75521   0.00000  Uiso   1.00
Zn780  Zn    0.56435   0.82734   0.74479   0.00000  Uiso   1.00
I781   I     0.33986   0.91212   0.93781   0.00000  Uiso   1.00
I782   I     0.66014   0.75454   0.56219   0.00000  Uiso   1.00
C783   C     0.84864   0.93160   0.74883   0.00000  Uiso   1.00
C784   C     0.81803   0.73507   0.75117   0.00000  Uiso   1.00
C785   C     0.93102   0.87685   0.97241   0.00000  Uiso   1.00
C786   C     0.73564   0.78982   0.52759   0.00000  Uiso   1.00
C787   C     0.85669   0.98612   0.74814   0.00000  Uiso   1.00
C788   C     0.80998   0.68055   0.75186   0.00000  Uiso   1.00
C789   C     0.83387   0.83298   0.83654   0.00000  Uiso   1.00
C790   C     0.83280   0.83369   0.66346   0.00000  Uiso   1.00
C791   C     0.78349   0.81363   0.59553   0.00000  Uiso   1.00
C792   C     0.88317   0.85304   0.90447   0.00000  Uiso   1.00
C793   C     0.83192   0.83478   0.61573   0.00000  Uiso   1.00
C794   C     0.83474   0.83189   0.88427   0.00000  Uiso   1.00
C795   C     0.88029   0.85604   0.59055   0.00000  Uiso   1.00
C796   C     0.78638   0.81062   0.90945   0.00000  Uiso   1.00
C797   C     0.88100   0.85589   0.54431   0.00000  Uiso   1.00
C798   C     0.78567   0.81077   0.95569   0.00000  Uiso   1.00
C799   C     0.83270   0.83376   0.52333   0.00000  Uiso   1.00
C800   C     0.83397   0.83291   0.97667   0.00000  Uiso   1.00
C801   C     0.78332   0.81232   0.54905   0.00000  Uiso   1.00
C802   C     0.88334   0.85435   0.95095   0.00000  Uiso   1.00
C803   C     0.92948   0.87726   0.51898   0.00000  Uiso   1.00
C804   C     0.73718   0.78941   0.98103   0.00000  Uiso   1.00
H805   H     0.74698   0.79733   0.61641   0.00000  Uiso   1.00
H806   H     0.91969   0.86933   0.88359   0.00000  Uiso   1.00
H807   H     0.91732   0.87276   0.60705   0.00000  Uiso   1.00
H808   H     0.74935   0.79391   0.89295   0.00000  Uiso   1.00
H809   H     0.96633   0.89431   0.53542   0.00000  Uiso   1.00
H810   H     0.70034   0.77235   0.96458   0.00000  Uiso   1.00
H811   H     0.90077   0.66990   0.74458   0.00000  Uiso   1.00
H812   H     0.76590   0.99677   0.75542   0.00000  Uiso   1.00
H813   H     0.67135   0.79430   0.71598   0.00000  Uiso   1.00
H814   H     0.99532   0.87237   0.78402   0.00000  Uiso   1.00
N815   N     0.98344   0.81932   0.73783   0.00000  Uiso   1.00
N816   N     0.68322   0.84735   0.76217   0.00000  Uiso   1.00
O817   O     0.79642   0.91286   0.75299   0.00000  Uiso   1.00
O818   O     0.87025   0.75381   0.74702   0.00000  Uiso   1.00
O819   O     0.89280   0.90387   0.74519   0.00000  Uiso   1.00
O820   O     0.77387   0.76279   0.75482   0.00000  Uiso   1.00
O821   O     0.78514   0.83784   0.81998   0.00000  Uiso   1.00
O822   O     0.88153   0.82883   0.68003   0.00000  Uiso   1.00
O823   O     0.88152   0.82885   0.81218   0.00000  Uiso   1.00
O824   O     0.78515   0.83781   0.68783   0.00000  Uiso   1.00
Zn825  Zn    0.76898   0.83933   0.75521   0.00000  Uiso   1.00
Zn826  Zn    0.89769   0.82734   0.74479   0.00000  Uiso   1.00
I827   I     0.67320   0.91212   0.93781   0.00000  Uiso   1.00
I828   I     0.99347   0.75454   0.56219   0.00000  Uiso   1.00
loop_
_geom_bond_atom_site_label_1
_geom_bond_atom_site_label_2
_geom_bond_distance
_geom_bond_site_symmetry_2
_ccdc_geom_bond_type
C1     O37     1.286   .     A
C1     C5      1.402   .     S
C1     O35     1.276   .     A
C2     O38     1.286   .     A
C2     C6      1.402   .     S
C2     O36     1.276   .     A
C3     C20     1.409   .     A
C3     C435    1.389   .     S
C3     I91     2.128   .     S
C4     C19     1.409   .     A
C4     C436    1.389   1_554 S
C4     I138    2.128   1_455 S
C5     C144    1.336   .     S
C5     H167    1.088   .     S
C6     C281    1.336   1_545 S
C6     H306    1.088   1_545 S
C7     O41     1.289   .     A
C7     C12     1.429   .     S
C7     O39     1.287   .     A
C8     C11     1.429   .     S
C8     O42     1.289   .     A
C8     O40     1.287   .     A
C9     C11     1.393   .     A
C9     H23     1.082   .     S
C9     C19     1.389   .     A
C10    H24     1.082   .     S
C10    C12     1.393   .     A
C10    C20     1.389   .     A
C11    C13     1.392   .     A
C12    C14     1.392   .     A
C13    H25     1.085   .     S
C13    C15     1.380   .     A
C14    H26     1.085   .     S
C14    C16     1.380   .     A
C15    C21     1.397   .     A
C15    C17     1.411   .     A
C16    C18     1.411   .     A
C16    C22     1.397   .     A
C17    C19     1.419   .     A
C17    C432    1.392   1_554 S
C18    C20     1.419   .     A
C18    C431    1.392   .     S
C21    H27     1.084   .     S
C21    C417    1.389   1_554 S
C22    H28     1.084   .     S
C22    C418    1.389   .     S
H29    C281    1.088   1_545 S
H30    C144    1.088   .     S
H31    N125    1.029   1_455 S
H32    N80     1.029   .     S
N33    Zn44    2.015   .     S
N33    H77     1.029   .     S
N33    N80     1.278   .     S
N34    Zn43    2.015   .     S
N34    H124    1.029   1_455 S
N34    N125    1.278   1_455 S
O35    Zn43    1.955   .     S
O36    Zn44    1.955   .     S
O37    Zn44    1.978   .     S
O38    Zn43    1.978   .     S
O39    Zn43    2.001   .     S
O40    Zn44    2.001   .     S
O41    Zn44    2.020   .     S
O42    Zn43    2.020   .     S
I45    C95     2.128   1_455 S
I46    C50     2.128   .     S
C47    O83     1.286   .     A
C47    C51     1.402   .     S
C47    O81     1.276   .     A
C48    O84     1.286   .     A
C48    C52     1.402   .     S
C48    O82     1.276   .     A
C49    C66     1.409   .     A
C49    C481    1.389   .     S
C49    I137    2.128   .     S
C50    C65     1.409   .     A
C50    C482    1.389   1_554 S
C51    C190    1.336   .     S
C51    H213    1.088   .     S
C52    C327    1.336   1_545 S
C52    H352    1.088   1_545 S
C53    O87     1.289   .     A
C53    C58     1.429   .     S
C53    O85     1.287   .     A
C54    C57     1.429   .     S
C54    O88     1.289   .     A
C54    O86     1.287   .     A
C55    C57     1.393   .     A
C55    H69     1.082   .     S
C55    C65     1.389   .     A
C56    H70     1.082   .     S
C56    C58     1.393   .     A
C56    C66     1.389   .     A
C57    C59     1.392   .     A
C58    C60     1.392   .     A
C59    H71     1.085   .     S
C59    C61     1.380   .     A
C60    H72     1.085   .     S
C60    C62     1.380   .     A
C61    C67     1.397   .     A
C61    C63     1.411   .     A
C62    C64     1.411   .     A
C62    C68     1.397   .     A
C63    C65     1.419   .     A
C63    C478    1.392   1_554 S
C64    C66     1.419   .     A
C64    C477    1.392   .     S
C67    H73     1.084   .     S
C67    C463    1.389   1_554 S
C68    H74     1.084   .     S
C68    C464    1.389   .     S
H75    C327    1.088   1_545 S
H76    C190    1.088   .     S
H78    N126    1.029   .     S
N79    Zn90    2.015   .     S
N79    H123    1.029   .     S
N79    N126    1.278   .     S
N80    Zn89    2.015   .     S
O81    Zn89    1.955   .     S
O82    Zn90    1.955   .     S
O83    Zn90    1.978   .     S
O84    Zn89    1.978   .     S
O85    Zn89    2.001   .     S
O86    Zn90    2.001   .     S
O87    Zn90    2.020   .     S
O88    Zn89    2.020   .     S
I92    C96     2.128   .     S
C93    O129    1.286   .     A
C93    C97     1.402   .     S
C93    O127    1.276   .     A
C94    O130    1.286   .     A
C94    C98     1.402   .     S
C94    O128    1.276   .     A
C95    C112    1.409   .     A
C95    C527    1.389   .     S
C95    I45     2.128   1_655 S
C96    C111    1.409   .     A
C96    C528    1.389   1_554 S
C97    C236    1.336   .     S
C97    H259    1.088   .     S
C98    C373    1.336   1_545 S
C98    H398    1.088   1_545 S
C99    O133    1.289   .     A
C99    C104    1.429   .     S
C99    O131    1.287   .     A
C100   C103    1.429   .     S
C100   O134    1.289   .     A
C100   O132    1.287   .     A
C101   C103    1.393   .     A
C101   H115    1.082   .     S
C101   C111    1.389   .     A
C102   H116    1.082   .     S
C102   C104    1.393   .     A
C102   C112    1.389   .     A
C103   C105    1.392   .     A
C104   C106    1.392   .     A
C105   H117    1.085   .     S
C105   C107    1.380   .     A
C106   H118    1.085   .     S
C106   C108    1.380   .     A
C107   C113    1.397   .     A
C107   C109    1.411   .     A
C108   C110    1.411   .     A
C108   C114    1.397   .     A
C109   C111    1.419   .     A
C109   C524    1.392   1_554 S
C110   C112    1.419   .     A
C110   C523    1.392   .     S
C113   H119    1.084   .     S
C113   C509    1.389   1_554 S
C114   H120    1.084   .     S
C114   C510    1.389   .     S
H121   C373    1.088   1_545 S
H122   C236    1.088   .     S
H124   N34     1.029   1_655 S
N125   Zn136   2.015   .     S
N125   H31     1.029   1_655 S
N125   N34     1.278   1_655 S
N126   Zn135   2.015   .     S
O127   Zn135   1.955   .     S
O128   Zn136   1.955   .     S
O129   Zn136   1.978   .     S
O130   Zn135   1.978   .     S
O131   Zn135   2.001   .     S
O132   Zn136   2.001   .     S
O133   Zn136   2.020   .     S
O134   Zn135   2.020   .     S
I138   C4      2.128   1_655 S
C139   O175    1.286   .     A
C139   C143    1.402   .     S
C139   O173    1.276   .     A
C140   O176    1.286   .     A
C140   C144    1.402   .     S
C140   O174    1.276   .     A
C141   C158    1.409   .     A
C141   C573    1.389   .     S
C141   I229    2.128   .     S
C142   C157    1.409   .     A
C142   C574    1.389   1_554 S
C142   I276    2.128   1_455 S
C143   C282    1.336   .     S
C143   H305    1.088   .     S
C145   O179    1.289   .     A
C145   C150    1.429   .     S
C145   O177    1.287   .     A
C146   C149    1.429   .     S
C146   O180    1.289   .     A
C146   O178    1.287   .     A
C147   C149    1.393   .     A
C147   H161    1.082   .     S
C147   C157    1.389   .     A
C148   H162    1.082   .     S
C148   C150    1.393   .     A
C148   C158    1.389   .     A
C149   C151    1.392   .     A
C150   C152    1.392   .     A
C151   H163    1.085   .     S
C151   C153    1.380   .     A
C152   H164    1.085   .     S
C152   C154    1.380   .     A
C153   C159    1.397   .     A
C153   C155    1.411   .     A
C154   C156    1.411   .     A
C154   C160    1.397   .     A
C155   C157    1.419   .     A
C155   C570    1.392   1_554 S
C156   C158    1.419   .     A
C156   C569    1.392   .     S
C159   H165    1.084   .     S
C159   C555    1.389   1_554 S
C160   H166    1.084   .     S
C160   C556    1.389   .     S
H168   C282    1.088   .     S
H169   N263    1.029   1_455 S
H170   N218    1.029   .     S
N171   Zn182   2.015   .     S
N171   H215    1.029   .     S
N171   N218    1.278   .     S
N172   Zn181   2.015   .     S
N172   H262    1.029   1_455 S
N172   N263    1.278   1_455 S
O173   Zn181   1.955   .     S
O174   Zn182   1.955   .     S
O175   Zn182   1.978   .     S
O176   Zn181   1.978   .     S
O177   Zn181   2.001   .     S
O178   Zn182   2.001   .     S
O179   Zn182   2.020   .     S
O180   Zn181   2.020   .     S
I183   C233    2.128   1_455 S
I184   C188    2.128   .     S
C185   O221    1.286   .     A
C185   C189    1.402   .     S
C185   O219    1.276   .     A
C186   O222    1.286   .     A
C186   C190    1.402   .     S
C186   O220    1.276   .     A
C187   C204    1.409   .     A
C187   C619    1.389   .     S
C187   I275    2.128   .     S
C188   C203    1.409   .     A
C188   C620    1.389   1_554 S
C189   C328    1.336   .     S
C189   H351    1.088   .     S
C191   O225    1.289   .     A
C191   C196    1.429   .     S
C191   O223    1.287   .     A
C192   C195    1.429   .     S
C192   O226    1.289   .     A
C192   O224    1.287   .     A
C193   C195    1.393   .     A
C193   H207    1.082   .     S
C193   C203    1.389   .     A
C194   H208    1.082   .     S
C194   C196    1.393   .     A
C194   C204    1.389   .     A
C195   C197    1.392   .     A
C196   C198    1.392   .     A
C197   H209    1.085   .     S
C197   C199    1.380   .     A
C198   H210    1.085   .     S
C198   C200    1.380   .     A
C199   C205    1.397   .     A
C199   C201    1.411   .     A
C200   C202    1.411   .     A
C200   C206    1.397   .     A
C201   C203    1.419   .     A
C201   C616    1.392   1_554 S
C202   C204    1.419   .     A
C202   C615    1.392   .     S
C205   H211    1.084   .     S
C205   C601    1.389   1_554 S
C206   H212    1.084   .     S
C206   C602    1.389   .     S
H214   C328    1.088   .     S
H216   N264    1.029   .     S
N217   Zn228   2.015   .     S
N217   H261    1.029   .     S
N217   N264    1.278   .     S
N218   Zn227   2.015   .     S
O219   Zn227   1.955   .     S
O220   Zn228   1.955   .     S
O221   Zn228   1.978   .     S
O222   Zn227   1.978   .     S
O223   Zn227   2.001   .     S
O224   Zn228   2.001   .     S
O225   Zn228   2.020   .     S
O226   Zn227   2.020   .     S
I230   C234    2.128   .     S
C231   O267    1.286   .     A
C231   C235    1.402   .     S
C231   O265    1.276   .     A
C232   O268    1.286   .     A
C232   C236    1.402   .     S
C232   O266    1.276   .     A
C233   C250    1.409   .     A
C233   C665    1.389   .     S
C233   I183    2.128   1_655 S
C234   C249    1.409   .     A
C234   C666    1.389   1_554 S
C235   C374    1.336   .     S
C235   H397    1.088   .     S
C237   O271    1.289   .     A
C237   C242    1.429   .     S
C237   O269    1.287   .     A
C238   C241    1.429   .     S
C238   O272    1.289   .     A
C238   O270    1.287   .     A
C239   C241    1.393   .     A
C239   H253    1.082   .     S
C239   C249    1.389   .     A
C240   H254    1.082   .     S
C240   C242    1.393   .     A
C240   C250    1.389   .     A
C241   C243    1.392   .     A
C242   C244    1.392   .     A
C243   H255    1.085   .     S
C243   C245    1.380   .     A
C244   H256    1.085   .     S
C244   C246    1.380   .     A
C245   C251    1.397   .     A
C245   C247    1.411   .     A
C246   C248    1.411   .     A
C246   C252    1.397   .     A
C247   C249    1.419   .     A
C247   C662    1.392   1_554 S
C248   C250    1.419   .     A
C248   C661    1.392   .     S
C251   H257    1.084   .     S
C251   C647    1.389   1_554 S
C252   H258    1.084   .     S
C252   C648    1.389   .     S
H260   C374    1.088   .     S
H262   N172    1.029   1_655 S
N263   Zn274   2.015   .     S
N263   H169    1.029   1_655 S
N263   N172    1.278   1_655 S
N264   Zn273   2.015   .     S
O265   Zn273   1.955   .     S
O266   Zn274   1.955   .     S
O267   Zn274   1.978   .     S
O268   Zn273   1.978   .     S
O269   Zn273   2.001   .     S
O270   Zn274   2.001   .     S
O271   Zn274   2.020   .     S
O272   Zn273   2.020   .     S
I276   C142    2.128   1_655 S
C277   O313    1.286   .     A
C277   C281    1.402   .     S
C277   O311    1.276   .     A
C278   O314    1.286   .     A
C278   C282    1.402   .     S
C278   O312    1.276   .     A
C279   C296    1.409   .     A
C279   C711    1.389   .     S
C279   I367    2.128   .     S
C280   C295    1.409   .     A
C280   C712    1.389   1_554 S
C280   I414    2.128   1_455 S
C281   C6      1.336   1_565 S
C281   H29     1.088   1_565 S
C283   O317    1.289   .     A
C283   C288    1.429   .     S
C283   O315    1.287   .     A
C284   C287    1.429   .     S
C284   O318    1.289   .     A
C284   O316    1.287   .     A
C285   C287    1.393   .     A
C285   H299    1.082   .     S
C285   C295    1.389   .     A
C286   H300    1.082   .     S
C286   C288    1.393   .     A
C286   C296    1.389   .     A
C287   C289    1.392   .     A
C288   C290    1.392   .     A
C289   H301    1.085   .     S
C289   C291    1.380   .     A
C290   H302    1.085   .     S
C290   C292    1.380   .     A
C291   C297    1.397   .     A
C291   C293    1.411   .     A
C292   C294    1.411   .     A
C292   C298    1.397   .     A
C293   C295    1.419   .     A
C293   C708    1.392   1_554 S
C294   C296    1.419   .     A
C294   C707    1.392   .     S
C297   H303    1.084   .     S
C297   C693    1.389   1_554 S
C298   H304    1.084   .     S
C298   C694    1.389   .     S
H306   C6      1.088   1_565 S
H307   N401    1.029   1_455 S
H308   N356    1.029   .     S
N309   Zn320   2.015   .     S
N309   H353    1.029   .     S
N309   N356    1.278   .     S
N310   Zn319   2.015   .     S
N310   H400    1.029   1_455 S
N310   N401    1.278   1_455 S
O311   Zn319   1.955   .     S
O312   Zn320   1.955   .     S
O313   Zn320   1.978   .     S
O314   Zn319   1.978   .     S
O315   Zn319   2.001   .     S
O316   Zn320   2.001   .     S
O317   Zn320   2.020   .     S
O318   Zn319   2.020   .     S
I321   C371    2.128   1_455 S
I322   C326    2.128   .     S
C323   O359    1.286   .     A
C323   C327    1.402   .     S
C323   O357    1.276   .     A
C324   O360    1.286   .     A
C324   C328    1.402   .     S
C324   O358    1.276   .     A
C325   C342    1.409   .     A
C325   C757    1.389   .     S
C325   I413    2.128   .     S
C326   C341    1.409   .     A
C326   C758    1.389   1_554 S
C327   C52     1.336   1_565 S
C327   H75     1.088   1_565 S
C329   O363    1.289   .     A
C329   C334    1.429   .     S
C329   O361    1.287   .     A
C330   C333    1.429   .     S
C330   O364    1.289   .     A
C330   O362    1.287   .     A
C331   C333    1.393   .     A
C331   H345    1.082   .     S
C331   C341    1.389   .     A
C332   H346    1.082   .     S
C332   C334    1.393   .     A
C332   C342    1.389   .     A
C333   C335    1.392   .     A
C334   C336    1.392   .     A
C335   H347    1.085   .     S
C335   C337    1.380   .     A
C336   H348    1.085   .     S
C336   C338    1.380   .     A
C337   C343    1.397   .     A
C337   C339    1.411   .     A
C338   C340    1.411   .     A
C338   C344    1.397   .     A
C339   C341    1.419   .     A
C339   C754    1.392   1_554 S
C340   C342    1.419   .     A
C340   C753    1.392   .     S
C343   H349    1.084   .     S
C343   C739    1.389   1_554 S
C344   H350    1.084   .     S
C344   C740    1.389   .     S
H352   C52     1.088   1_565 S
H354   N402    1.029   .     S
N355   Zn366   2.015   .     S
N355   H399    1.029   .     S
N355   N402    1.278   .     S
N356   Zn365   2.015   .     S
O357   Zn365   1.955   .     S
O358   Zn366   1.955   .     S
O359   Zn366   1.978   .     S
O360   Zn365   1.978   .     S
O361   Zn365   2.001   .     S
O362   Zn366   2.001   .     S
O363   Zn366   2.020   .     S
O364   Zn365   2.020   .     S
I368   C372    2.128   .     S
C369   O405    1.286   .     A
C369   C373    1.402   .     S
C369   O403    1.276   .     A
C370   O406    1.286   .     A
C370   C374    1.402   .     S
C370   O404    1.276   .     A
C371   C388    1.409   .     A
C371   C803    1.389   .     S
C371   I321    2.128   1_655 S
C372   C387    1.409   .     A
C372   C804    1.389   1_554 S
C373   C98     1.336   1_565 S
C373   H121    1.088   1_565 S
C375   O409    1.289   .     A
C375   C380    1.429   .     S
C375   O407    1.287   .     A
C376   C379    1.429   .     S
C376   O410    1.289   .     A
C376   O408    1.287   .     A
C377   C379    1.393   .     A
C377   H391    1.082   .     S
C377   C387    1.389   .     A
C378   H392    1.082   .     S
C378   C380    1.393   .     A
C378   C388    1.389   .     A
C379   C381    1.392   .     A
C380   C382    1.392   .     A
C381   H393    1.085   .     S
C381   C383    1.380   .     A
C382   H394    1.085   .     S
C382   C384    1.380   .     A
C383   C389    1.397   .     A
C383   C385    1.411   .     A
C384   C386    1.411   .     A
C384   C390    1.397   .     A
C385   C387    1.419   .     A
C385   C800    1.392   1_554 S
C386   C388    1.419   .     A
C386   C799    1.392   .     S
C389   H395    1.084   .     S
C389   C785    1.389   1_554 S
C390   H396    1.084   .     S
C390   C786    1.389   .     S
H398   C98     1.088   1_565 S
H400   N310    1.029   1_655 S
N401   Zn412   2.015   .     S
N401   H307    1.029   1_655 S
N401   N310    1.278   1_655 S
N402   Zn411   2.015   .     S
O403   Zn411   1.955   .     S
O404   Zn412   1.955   .     S
O405   Zn412   1.978   .     S
O406   Zn411   1.978   .     S
O407   Zn411   2.001   .     S
O408   Zn412   2.001   .     S
O409   Zn412   2.020   .     S
O410   Zn411   2.020   .     S
I414   C280    2.128   1_655 S
C415   O451    1.286   .     A
C415   C419    1.402   .     S
C415   O449    1.276   .     A
C416   O452    1.286   .     A
C416   C420    1.402   .     S
C416   O450    1.276   .     A
C417   C434    1.409   .     A
C417   C21     1.389   1_556 S
C417   I505    2.128   .     S
C418   C433    1.409   .     A
C418   I552    2.128   1_455 S
C419   C558    1.336   .     S
C419   H581    1.088   .     S
C420   C695    1.336   1_545 S
C420   H720    1.088   1_545 S
C421   O455    1.289   .     A
C421   C426    1.429   .     S
C421   O453    1.287   .     A
C422   C425    1.429   .     S
C422   O456    1.289   .     A
C422   O454    1.287   .     A
C423   C425    1.393   .     A
C423   H437    1.082   .     S
C423   C433    1.389   .     A
C424   H438    1.082   .     S
C424   C426    1.393   .     A
C424   C434    1.389   .     A
C425   C427    1.392   .     A
C426   C428    1.392   .     A
C427   H439    1.085   .     S
C427   C429    1.380   .     A
C428   H440    1.085   .     S
C428   C430    1.380   .     A
C429   C435    1.397   .     A
C429   C431    1.411   .     A
C430   C432    1.411   .     A
C430   C436    1.397   .     A
C431   C433    1.419   .     A
C432   C434    1.419   .     A
C432   C17     1.392   1_556 S
C435   H441    1.084   .     S
C436   H442    1.084   .     S
C436   C4      1.389   1_556 S
H443   C695    1.088   1_545 S
H444   C558    1.088   .     S
H445   N539    1.029   1_455 S
H446   N494    1.029   .     S
N447   Zn458   2.015   .     S
N447   H491    1.029   .     S
N447   N494    1.278   .     S
N448   Zn457   2.015   .     S
N448   H538    1.029   1_455 S
N448   N539    1.278   1_455 S
O449   Zn457   1.955   .     S
O450   Zn458   1.955   .     S
O451   Zn458   1.978   .     S
O452   Zn457   1.978   .     S
O453   Zn457   2.001   .     S
O454   Zn458   2.001   .     S
O455   Zn458   2.020   .     S
O456   Zn457   2.020   .     S
I459   C509    2.128   1_455 S
I460   C464    2.128   .     S
C461   O497    1.286   .     A
C461   C465    1.402   .     S
C461   O495    1.276   .     A
C462   O498    1.286   .     A
C462   C466    1.402   .     S
C462   O496    1.276   .     A
C463   C480    1.409   .     A
C463   C67     1.389   1_556 S
C463   I551    2.128   .     S
C464   C479    1.409   .     A
C465   C604    1.336   .     S
C465   H627    1.088   .     S
C466   C741    1.336   1_545 S
C466   H766    1.088   1_545 S
C467   O501    1.289   .     A
C467   C472    1.429   .     S
C467   O499    1.287   .     A
C468   C471    1.429   .     S
C468   O502    1.289   .     A
C468   O500    1.287   .     A
C469   C471    1.393   .     A
C469   H483    1.082   .     S
C469   C479    1.389   .     A
C470   H484    1.082   .     S
C470   C472    1.393   .     A
C470   C480    1.389   .     A
C471   C473    1.392   .     A
C472   C474    1.392   .     A
C473   H485    1.085   .     S
C473   C475    1.380   .     A
C474   H486    1.085   .     S
C474   C476    1.380   .     A
C475   C481    1.397   .     A
C475   C477    1.411   .     A
C476   C478    1.411   .     A
C476   C482    1.397   .     A
C477   C479    1.419   .     A
C478   C480    1.419   .     A
C478   C63     1.392   1_556 S
C481   H487    1.084   .     S
C482   H488    1.084   .     S
C482   C50     1.389   1_556 S
H489   C741    1.088   1_545 S
H490   C604    1.088   .     S
H492   N540    1.029   .     S
N493   Zn504   2.015   .     S
N493   H537    1.029   .     S
N493   N540    1.278   .     S
N494   Zn503   2.015   .     S
O495   Zn503   1.955   .     S
O496   Zn504   1.955   .     S
O497   Zn504   1.978   .     S
O498   Zn503   1.978   .     S
O499   Zn503   2.001   .     S
O500   Zn504   2.001   .     S
O501   Zn504   2.020   .     S
O502   Zn503   2.020   .     S
I506   C510    2.128   .     S
C507   O543    1.286   .     A
C507   C511    1.402   .     S
C507   O541    1.276   .     A
C508   O544    1.286   .     A
C508   C512    1.402   .     S
C508   O542    1.276   .     A
C509   C526    1.409   .     A
C509   C113    1.389   1_556 S
C509   I459    2.128   1_655 S
C510   C525    1.409   .     A
C511   C650    1.336   .     S
C511   H673    1.088   .     S
C512   C787    1.336   1_545 S
C512   H812    1.088   1_545 S
C513   O547    1.289   .     A
C513   C518    1.429   .     S
C513   O545    1.287   .     A
C514   C517    1.429   .     S
C514   O548    1.289   .     A
C514   O546    1.287   .     A
C515   C517    1.393   .     A
C515   H529    1.082   .     S
C515   C525    1.389   .     A
C516   H530    1.082   .     S
C516   C518    1.393   .     A
C516   C526    1.389   .     A
C517   C519    1.392   .     A
C518   C520    1.392   .     A
C519   H531    1.085   .     S
C519   C521    1.380   .     A
C520   H532    1.085   .     S
C520   C522    1.380   .     A
C521   C527    1.397   .     A
C521   C523    1.411   .     A
C522   C524    1.411   .     A
C522   C528    1.397   .     A
C523   C525    1.419   .     A
C524   C526    1.419   .     A
C524   C109    1.392   1_556 S
C527   H533    1.084   .     S
C528   H534    1.084   .     S
C528   C96     1.389   1_556 S
H535   C787    1.088   1_545 S
H536   C650    1.088   .     S
H538   N448    1.029   1_655 S
N539   Zn550   2.015   .     S
N539   H445    1.029   1_655 S
N539   N448    1.278   1_655 S
N540   Zn549   2.015   .     S
O541   Zn549   1.955   .     S
O542   Zn550   1.955   .     S
O543   Zn550   1.978   .     S
O544   Zn549   1.978   .     S
O545   Zn549   2.001   .     S
O546   Zn550   2.001   .     S
O547   Zn550   2.020   .     S
O548   Zn549   2.020   .     S
I552   C418    2.128   1_655 S
C553   O589    1.286   .     A
C553   C557    1.402   .     S
C553   O587    1.276   .     A
C554   O590    1.286   .     A
C554   C558    1.402   .     S
C554   O588    1.276   .     A
C555   C572    1.409   .     A
C555   C159    1.389   1_556 S
C555   I643    2.128   .     S
C556   C571    1.409   .     A
C556   I690    2.128   1_455 S
C557   C696    1.336   .     S
C557   H719    1.088   .     S
C559   O593    1.289   .     A
C559   C564    1.429   .     S
C559   O591    1.287   .     A
C560   C563    1.429   .     S
C560   O594    1.289   .     A
C560   O592    1.287   .     A
C561   C563    1.393   .     A
C561   H575    1.082   .     S
C561   C571    1.389   .     A
C562   H576    1.082   .     S
C562   C564    1.393   .     A
C562   C572    1.389   .     A
C563   C565    1.392   .     A
C564   C566    1.392   .     A
C565   H577    1.085   .     S
C565   C567    1.380   .     A
C566   H578    1.085   .     S
C566   C568    1.380   .     A
C567   C573    1.397   .     A
C567   C569    1.411   .     A
C568   C570    1.411   .     A
C568   C574    1.397   .     A
C569   C571    1.419   .     A
C570   C572    1.419   .     A
C570   C155    1.392   1_556 S
C573   H579    1.084   .     S
C574   H580    1.084   .     S
C574   C142    1.389   1_556 S
H582   C696    1.088   .     S
H583   N677    1.029   1_455 S
H584   N632    1.029   .     S
N585   Zn596   2.015   .     S
N585   H629    1.029   .     S
N585   N632    1.278   .     S
N586   Zn595   2.015   .     S
N586   H676    1.029   1_455 S
N586   N677    1.278   1_455 S
O587   Zn595   1.955   .     S
O588   Zn596   1.955   .     S
O589   Zn596   1.978   .     S
O590   Zn595   1.978   .     S
O591   Zn595   2.001   .     S
O592   Zn596   2.001   .     S
O593   Zn596   2.020   .     S
O594   Zn595   2.020   .     S
I597   C647    2.128   1_455 S
I598   C602    2.128   .     S
C599   O635    1.286   .     A
C599   C603    1.402   .     S
C599   O633    1.276   .     A
C600   O636    1.286   .     A
C600   C604    1.402   .     S
C600   O634    1.276   .     A
C601   C618    1.409   .     A
C601   C205    1.389   1_556 S
C601   I689    2.128   .     S
C602   C617    1.409   .     A
C603   C742    1.336   .     S
C603   H765    1.088   .     S
C605   O639    1.289   .     A
C605   C610    1.429   .     S
C605   O637    1.287   .     A
C606   C609    1.429   .     S
C606   O640    1.289   .     A
C606   O638    1.287   .     A
C607   C609    1.393   .     A
C607   H621    1.082   .     S
C607   C617    1.389   .     A
C608   H622    1.082   .     S
C608   C610    1.393   .     A
C608   C618    1.389   .     A
C609   C611    1.392   .     A
C610   C612    1.392   .     A
C611   H623    1.085   .     S
C611   C613    1.380   .     A
C612   H624    1.085   .     S
C612   C614    1.380   .     A
C613   C619    1.397   .     A
C613   C615    1.411   .     A
C614   C616    1.411   .     A
C614   C620    1.397   .     A
C615   C617    1.419   .     A
C616   C618    1.419   .     A
C616   C201    1.392   1_556 S
C619   H625    1.084   .     S
C620   H626    1.084   .     S
C620   C188    1.389   1_556 S
H628   C742    1.088   .     S
H630   N678    1.029   .     S
N631   Zn642   2.015   .     S
N631   H675    1.029   .     S
N631   N678    1.278   .     S
N632   Zn641   2.015   .     S
O633   Zn641   1.955   .     S
O634   Zn642   1.955   .     S
O635   Zn642   1.978   .     S
O636   Zn641   1.978   .     S
O637   Zn641   2.001   .     S
O638   Zn642   2.001   .     S
O639   Zn642   2.020   .     S
O640   Zn641   2.020   .     S
I644   C648    2.128   .     S
C645   O681    1.286   .     A
C645   C649    1.402   .     S
C645   O679    1.276   .     A
C646   O682    1.286   .     A
C646   C650    1.402   .     S
C646   O680    1.276   .     A
C647   C664    1.409   .     A
C647   C251    1.389   1_556 S
C647   I597    2.128   1_655 S
C648   C663    1.409   .     A
C649   C788    1.336   .     S
C649   H811    1.088   .     S
C651   O685    1.289   .     A
C651   C656    1.429   .     S
C651   O683    1.287   .     A
C652   C655    1.429   .     S
C652   O686    1.289   .     A
C652   O684    1.287   .     A
C653   C655    1.393   .     A
C653   H667    1.082   .     S
C653   C663    1.389   .     A
C654   H668    1.082   .     S
C654   C656    1.393   .     A
C654   C664    1.389   .     A
C655   C657    1.392   .     A
C656   C658    1.392   .     A
C657   H669    1.085   .     S
C657   C659    1.380   .     A
C658   H670    1.085   .     S
C658   C660    1.380   .     A
C659   C665    1.397   .     A
C659   C661    1.411   .     A
C660   C662    1.411   .     A
C660   C666    1.397   .     A
C661   C663    1.419   .     A
C662   C664    1.419   .     A
C662   C247    1.392   1_556 S
C665   H671    1.084   .     S
C666   H672    1.084   .     S
C666   C234    1.389   1_556 S
H674   C788    1.088   .     S
H676   N586    1.029   1_655 S
N677   Zn688   2.015   .     S
N677   H583    1.029   1_655 S
N677   N586    1.278   1_655 S
N678   Zn687   2.015   .     S
O679   Zn687   1.955   .     S
O680   Zn688   1.955   .     S
O681   Zn688   1.978   .     S
O682   Zn687   1.978   .     S
O683   Zn687   2.001   .     S
O684   Zn688   2.001   .     S
O685   Zn688   2.020   .     S
O686   Zn687   2.020   .     S
I690   C556    2.128   1_655 S
C691   O727    1.286   .     A
C691   C695    1.402   .     S
C691   O725    1.276   .     A
C692   O728    1.286   .     A
C692   C696    1.402   .     S
C692   O726    1.276   .     A
C693   C710    1.409   .     A
C693   C297    1.389   1_556 S
C693   I781    2.128   .     S
C694   C709    1.409   .     A
C694   I828    2.128   1_455 S
C695   C420    1.336   1_565 S
C695   H443    1.088   1_565 S
C697   O731    1.289   .     A
C697   C702    1.429   .     S
C697   O729    1.287   .     A
C698   C701    1.429   .     S
C698   O732    1.289   .     A
C698   O730    1.287   .     A
C699   C701    1.393   .     A
C699   H713    1.082   .     S
C699   C709    1.389   .     A
C700   H714    1.082   .     S
C700   C702    1.393   .     A
C700   C710    1.389   .     A
C701   C703    1.392   .     A
C702   C704    1.392   .     A
C703   H715    1.085   .     S
C703   C705    1.380   .     A
C704   H716    1.085   .     S
C704   C706    1.380   .     A
C705   C711    1.397   .     A
C705   C707    1.411   .     A
C706   C708    1.411   .     A
C706   C712    1.397   .     A
C707   C709    1.419   .     A
C708   C710    1.419   .     A
C708   C293    1.392   1_556 S
C711   H717    1.084   .     S
C712   H718    1.084   .     S
C712   C280    1.389   1_556 S
H720   C420    1.088   1_565 S
H721   N815    1.029   1_455 S
H722   N770    1.029   .     S
N723   Zn734   2.015   .     S
N723   H767    1.029   .     S
N723   N770    1.278   .     S
N724   Zn733   2.015   .     S
N724   H814    1.029   1_455 S
N724   N815    1.278   1_455 S
O725   Zn733   1.955   .     S
O726   Zn734   1.955   .     S
O727   Zn734   1.978   .     S
O728   Zn733   1.978   .     S
O729   Zn733   2.001   .     S
O730   Zn734   2.001   .     S
O731   Zn734   2.020   .     S
O732   Zn733   2.020   .     S
I735   C785    2.128   1_455 S
I736   C740    2.128   .     S
C737   O773    1.286   .     A
C737   C741    1.402   .     S
C737   O771    1.276   .     A
C738   O774    1.286   .     A
C738   C742    1.402   .     S
C738   O772    1.276   .     A
C739   C756    1.409   .     A
C739   C343    1.389   1_556 S
C739   I827    2.128   .     S
C740   C755    1.409   .     A
C741   C466    1.336   1_565 S
C741   H489    1.088   1_565 S
C743   O777    1.289   .     A
C743   C748    1.429   .     S
C743   O775    1.287   .     A
C744   C747    1.429   .     S
C744   O778    1.289   .     A
C744   O776    1.287   .     A
C745   C747    1.393   .     A
C745   H759    1.082   .     S
C745   C755    1.389   .     A
C746   H760    1.082   .     S
C746   C748    1.393   .     A
C746   C756    1.389   .     A
C747   C749    1.392   .     A
C748   C750    1.392   .     A
C749   H761    1.085   .     S
C749   C751    1.380   .     A
C750   H762    1.085   .     S
C750   C752    1.380   .     A
C751   C757    1.397   .     A
C751   C753    1.411   .     A
C752   C754    1.411   .     A
C752   C758    1.397   .     A
C753   C755    1.419   .     A
C754   C756    1.419   .     A
C754   C339    1.392   1_556 S
C757   H763    1.084   .     S
C758   H764    1.084   .     S
C758   C326    1.389   1_556 S
H766   C466    1.088   1_565 S
H768   N816    1.029   .     S
N769   Zn780   2.015   .     S
N769   H813    1.029   .     S
N769   N816    1.278   .     S
N770   Zn779   2.015   .     S
O771   Zn779   1.955   .     S
O772   Zn780   1.955   .     S
O773   Zn780   1.978   .     S
O774   Zn779   1.978   .     S
O775   Zn779   2.001   .     S
O776   Zn780   2.001   .     S
O777   Zn780   2.020   .     S
O778   Zn779   2.020   .     S
I782   C786    2.128   .     S
C783   O819    1.286   .     A
C783   C787    1.402   .     S
C783   O817    1.276   .     A
C784   O820    1.286   .     A
C784   C788    1.402   .     S
C784   O818    1.276   .     A
C785   C802    1.409   .     A
C785   C389    1.389   1_556 S
C785   I735    2.128   1_655 S
C786   C801    1.409   .     A
C787   C512    1.336   1_565 S
C787   H535    1.088   1_565 S
C789   O823    1.289   .     A
C789   C794    1.429   .     S
C789   O821    1.287   .     A
C790   C793    1.429   .     S
C790   O824    1.289   .     A
C790   O822    1.287   .     A
C791   C793    1.393   .     A
C791   H805    1.082   .     S
C791   C801    1.389   .     A
C792   H806    1.082   .     S
C792   C794    1.393   .     A
C792   C802    1.389   .     A
C793   C795    1.392   .     A
C794   C796    1.392   .     A
C795   H807    1.085   .     S
C795   C797    1.380   .     A
C796   H808    1.085   .     S
C796   C798    1.380   .     A
C797   C803    1.397   .     A
C797   C799    1.411   .     A
C798   C800    1.411   .     A
C798   C804    1.397   .     A
C799   C801    1.419   .     A
C800   C802    1.419   .     A
C800   C385    1.392   1_556 S
C803   H809    1.084   .     S
C804   H810    1.084   .     S
C804   C372    1.389   1_556 S
H812   C512    1.088   1_565 S
H814   N724    1.029   1_655 S
N815   Zn826   2.015   .     S
N815   H721    1.029   1_655 S
N815   N724    1.278   1_655 S
N816   Zn825   2.015   .     S
O817   Zn825   1.955   .     S
O818   Zn826   1.955   .     S
O819   Zn826   1.978   .     S
O820   Zn825   1.978   .     S
O821   Zn825   2.001   .     S
O822   Zn826   2.001   .     S
O823   Zn826   2.020   .     S
O824   Zn825   2.020   .     S
I828   C694    2.128   1_655 S
