data_str_m3_o1_o16_pcu_sym.115
_audit_creation_date              2020-01-03
_audit_creation_method            'Materials Studio'
_symmetry_space_group_name_H-M    'P1'
_symmetry_Int_Tables_number       1
_symmetry_cell_setting            triclinic
loop_
_symmetry_equiv_pos_as_xyz
  x,y,z
_cell_length_a                    29.5103
_cell_length_b                    32.0608
_cell_length_c                    26.2172
_cell_angle_alpha                 89.7518
_cell_angle_beta                  70.7416
_cell_angle_gamma                 90.0869
loop_
_atom_site_label
_atom_site_type_symbol
_atom_site_fract_x
_atom_site_fract_y
_atom_site_fract_z
_atom_site_U_iso_or_equiv
_atom_site_adp_type
_atom_site_occupancy
C1     C     0.16675   0.24670   0.24981   0.00000  Uiso   1.00
C2     C     0.14234   0.14571   0.49235   0.00000  Uiso   1.00
C3     C     0.15453   0.13958   0.43646   0.00000  Uiso   1.00
C4     C     0.17955   0.14430   0.01513   0.00000  Uiso   1.00
C5     C     0.22506   0.12759   0.48564   0.00000  Uiso   1.00
C6     C     0.23245   0.11228   0.43378   0.00000  Uiso   1.00
C7     C     0.19709   0.11692   0.40963   0.00000  Uiso   1.00
C8     C     0.17333   0.16211   0.06512   0.00000  Uiso   1.00
C9     C     0.25278   0.14084   0.06176   0.00000  Uiso   1.00
C10    C     0.12347   0.15597   0.41015   0.00000  Uiso   1.00
C11    C     0.21063   0.31208   0.22914   0.00000  Uiso   1.00
C12    C     0.14035   0.16351   0.35190   0.00000  Uiso   1.00
C13    C     0.21064   0.02152   0.22842   0.00000  Uiso   1.00
C14    C     0.16691   0.04254   0.24763   0.00000  Uiso   1.00
C15    C     0.12317   0.02128   0.26670   0.00000  Uiso   1.00
C16    C     0.12317   0.31190   0.26736   0.00000  Uiso   1.00
C17    C     0.16691   0.29085   0.24890   0.00000  Uiso   1.00
C18    C     0.31770   0.13751   0.22153   0.00000  Uiso   1.00
C19    C     0.03226   0.13749   0.22170   0.00000  Uiso   1.00
C20    C     0.01566   0.19550   0.27914   0.00000  Uiso   1.00
C21    C     0.30062   0.19612   0.27880   0.00000  Uiso   1.00
C22    C     0.16685   0.08665   0.24906   0.00000  Uiso   1.00
C23    C     0.19303   0.16614   0.14777   0.00000  Uiso   1.00
C24    C     0.26163   0.12543   0.00932   0.00000  Uiso   1.00
C25    C     0.20816   0.15832   0.08988   0.00000  Uiso   1.00
C26    C     0.07705   0.16883   0.44069   0.00000  Uiso   1.00
C27    C     0.06148   0.16549   0.49657   0.00000  Uiso   1.00
C28    C     0.09322   0.15285   0.02290   0.00000  Uiso   1.00
H29    H     0.28013   0.13815   0.08079   0.00000  Uiso   1.00
H30    H     0.24454   0.03807   0.21313   0.00000  Uiso   1.00
H31    H     0.08924   0.03757   0.28202   0.00000  Uiso   1.00
H32    H     0.08923   0.29544   0.28293   0.00000  Uiso   1.00
H33    H     0.30614   0.11411   0.19886   0.00000  Uiso   1.00
H34    H     0.05708   0.11396   0.19961   0.00000  Uiso   1.00
H35    H     0.02763   0.21750   0.30313   0.00000  Uiso   1.00
H36    H     0.26531   0.09616   0.41185   0.00000  Uiso   1.00
H37    H     0.14085   0.17904   0.08575   0.00000  Uiso   1.00
H38    H     0.05247   0.18080   0.42131   0.00000  Uiso   1.00
H39    H     0.02453   0.17244   0.01962   0.00000  Uiso   1.00
H40    H     0.24451   0.29570   0.21403   0.00000  Uiso   1.00
N41    N     0.04760   0.16668   0.25002   0.00000  Uiso   1.00
N42    N     0.28573   0.16665   0.25001   0.00000  Uiso   1.00
O43    O     0.12846   0.22775   0.25001   0.00000  Uiso   1.00
O44    O     0.20490   0.22774   0.25001   0.00000  Uiso   1.00
O45    O     0.10947   0.16666   0.32681   0.00000  Uiso   1.00
O46    O     0.18591   0.16665   0.32681   0.00000  Uiso   1.00
O47    O     0.12843   0.10559   0.25000   0.00000  Uiso   1.00
O48    O     0.20488   0.10558   0.25000   0.00000  Uiso   1.00
O49    O     0.14742   0.16668   0.17319   0.00000  Uiso   1.00
O50    O     0.22387   0.16667   0.17319   0.00000  Uiso   1.00
Zn51   Zn    0.11562   0.16667   0.25000   0.00000  Uiso   1.00
Zn52   Zn    0.21771   0.16666   0.25000   0.00000  Uiso   1.00
O53    O     0.26672   0.22366   0.31031   0.00000  Uiso   1.00
C54    C     0.28490   0.26477   0.30569   0.00000  Uiso   1.00
H55    H     0.25413   0.28663   0.31829   0.00000  Uiso   1.00
H56    H     0.30674   0.27309   0.26338   0.00000  Uiso   1.00
H57    H     0.30586   0.26953   0.33345   0.00000  Uiso   1.00
O58    O     0.30655   0.11023   0.48026   0.00000  Uiso   1.00
C59    C     0.31173   0.07012   0.49983   0.00000  Uiso   1.00
H60    H     0.28341   0.04844   0.49625   0.00000  Uiso   1.00
H61    H     0.31143   0.07118   0.04234   0.00000  Uiso   1.00
H62    H     0.01365   0.05741   0.47489   0.00000  Uiso   1.00
O63    O     0.07411   0.14290   0.07719   0.00000  Uiso   1.00
C64    C     0.07266   0.09895   0.08253   0.00000  Uiso   1.00
H65    H     0.06186   0.08295   0.05059   0.00000  Uiso   1.00
H66    H     0.04535   0.09028   0.12150   0.00000  Uiso   1.00
H67    H     0.10796   0.08700   0.08261   0.00000  Uiso   1.00
O68    O     0.20275   0.09541   0.36243   0.00000  Uiso   1.00
C69    C     0.17745   0.05732   0.37602   0.00000  Uiso   1.00
H70    H     0.13829   0.06251   0.38547   0.00000  Uiso   1.00
H71    H     0.18442   0.04087   0.41026   0.00000  Uiso   1.00
H72    H     0.18982   0.03614   0.34097   0.00000  Uiso   1.00
C73    C     0.50009   0.24670   0.24981   0.00000  Uiso   1.00
C74    C     0.47567   0.14571   0.49235   0.00000  Uiso   1.00
C75    C     0.48787   0.13958   0.43646   0.00000  Uiso   1.00
C76    C     0.51288   0.14430   0.01513   0.00000  Uiso   1.00
C77    C     0.55840   0.12759   0.48564   0.00000  Uiso   1.00
C78    C     0.56578   0.11228   0.43378   0.00000  Uiso   1.00
C79    C     0.53042   0.11692   0.40963   0.00000  Uiso   1.00
C80    C     0.50667   0.16211   0.06512   0.00000  Uiso   1.00
C81    C     0.58612   0.14084   0.06176   0.00000  Uiso   1.00
C82    C     0.45681   0.15597   0.41015   0.00000  Uiso   1.00
C83    C     0.54397   0.31208   0.22914   0.00000  Uiso   1.00
C84    C     0.47368   0.16351   0.35190   0.00000  Uiso   1.00
C85    C     0.54398   0.02152   0.22842   0.00000  Uiso   1.00
C86    C     0.50025   0.04254   0.24763   0.00000  Uiso   1.00
C87    C     0.45650   0.02128   0.26670   0.00000  Uiso   1.00
C88    C     0.45650   0.31190   0.26736   0.00000  Uiso   1.00
C89    C     0.50024   0.29085   0.24890   0.00000  Uiso   1.00
C90    C     0.65103   0.13751   0.22153   0.00000  Uiso   1.00
C91    C     0.36559   0.13749   0.22170   0.00000  Uiso   1.00
C92    C     0.34899   0.19550   0.27914   0.00000  Uiso   1.00
C93    C     0.63396   0.19612   0.27880   0.00000  Uiso   1.00
C94    C     0.50018   0.08665   0.24906   0.00000  Uiso   1.00
C95    C     0.52636   0.16614   0.14777   0.00000  Uiso   1.00
C96    C     0.59497   0.12543   0.00932   0.00000  Uiso   1.00
C97    C     0.54149   0.15832   0.08988   0.00000  Uiso   1.00
C98    C     0.41038   0.16883   0.44069   0.00000  Uiso   1.00
C99    C     0.39482   0.16549   0.49657   0.00000  Uiso   1.00
C100   C     0.42655   0.15285   0.02290   0.00000  Uiso   1.00
H101   H     0.61346   0.13815   0.08079   0.00000  Uiso   1.00
H102   H     0.57787   0.03807   0.21313   0.00000  Uiso   1.00
H103   H     0.42258   0.03757   0.28202   0.00000  Uiso   1.00
H104   H     0.42256   0.29544   0.28293   0.00000  Uiso   1.00
H105   H     0.63947   0.11411   0.19886   0.00000  Uiso   1.00
H106   H     0.39041   0.11396   0.19961   0.00000  Uiso   1.00
H107   H     0.36096   0.21750   0.30313   0.00000  Uiso   1.00
H108   H     0.59864   0.09616   0.41185   0.00000  Uiso   1.00
H109   H     0.47418   0.17904   0.08575   0.00000  Uiso   1.00
H110   H     0.38580   0.18080   0.42131   0.00000  Uiso   1.00
H111   H     0.35786   0.17244   0.01962   0.00000  Uiso   1.00
H112   H     0.57784   0.29570   0.21403   0.00000  Uiso   1.00
N113   N     0.38093   0.16668   0.25002   0.00000  Uiso   1.00
N114   N     0.61906   0.16665   0.25001   0.00000  Uiso   1.00
O115   O     0.46179   0.22775   0.25001   0.00000  Uiso   1.00
O116   O     0.53823   0.22774   0.25001   0.00000  Uiso   1.00
O117   O     0.44280   0.16666   0.32681   0.00000  Uiso   1.00
O118   O     0.51924   0.16665   0.32681   0.00000  Uiso   1.00
O119   O     0.46177   0.10559   0.25000   0.00000  Uiso   1.00
O120   O     0.53821   0.10558   0.25000   0.00000  Uiso   1.00
O121   O     0.48076   0.16668   0.17319   0.00000  Uiso   1.00
O122   O     0.55720   0.16667   0.17319   0.00000  Uiso   1.00
Zn123  Zn    0.44896   0.16667   0.25000   0.00000  Uiso   1.00
Zn124  Zn    0.55104   0.16666   0.25000   0.00000  Uiso   1.00
O125   O     0.60006   0.22366   0.31031   0.00000  Uiso   1.00
C126   C     0.61824   0.26477   0.30569   0.00000  Uiso   1.00
H127   H     0.58746   0.28663   0.31829   0.00000  Uiso   1.00
H128   H     0.64007   0.27309   0.26338   0.00000  Uiso   1.00
H129   H     0.63919   0.26953   0.33345   0.00000  Uiso   1.00
O130   O     0.63989   0.11023   0.48026   0.00000  Uiso   1.00
C131   C     0.64506   0.07012   0.49983   0.00000  Uiso   1.00
H132   H     0.61675   0.04844   0.49625   0.00000  Uiso   1.00
H133   H     0.64476   0.07118   0.04234   0.00000  Uiso   1.00
H134   H     0.34699   0.05741   0.47489   0.00000  Uiso   1.00
O135   O     0.40744   0.14290   0.07719   0.00000  Uiso   1.00
C136   C     0.40599   0.09895   0.08253   0.00000  Uiso   1.00
H137   H     0.39519   0.08295   0.05059   0.00000  Uiso   1.00
H138   H     0.37868   0.09028   0.12150   0.00000  Uiso   1.00
H139   H     0.44130   0.08700   0.08261   0.00000  Uiso   1.00
O140   O     0.53609   0.09541   0.36243   0.00000  Uiso   1.00
C141   C     0.51078   0.05732   0.37602   0.00000  Uiso   1.00
H142   H     0.47162   0.06251   0.38547   0.00000  Uiso   1.00
H143   H     0.51775   0.04087   0.41026   0.00000  Uiso   1.00
H144   H     0.52316   0.03614   0.34097   0.00000  Uiso   1.00
C145   C     0.83342   0.24670   0.24981   0.00000  Uiso   1.00
C146   C     0.80901   0.14571   0.49235   0.00000  Uiso   1.00
C147   C     0.82120   0.13958   0.43646   0.00000  Uiso   1.00
C148   C     0.84621   0.14430   0.01513   0.00000  Uiso   1.00
C149   C     0.89173   0.12759   0.48564   0.00000  Uiso   1.00
C150   C     0.89911   0.11228   0.43378   0.00000  Uiso   1.00
C151   C     0.86375   0.11692   0.40963   0.00000  Uiso   1.00
C152   C     0.84000   0.16211   0.06512   0.00000  Uiso   1.00
C153   C     0.91945   0.14084   0.06176   0.00000  Uiso   1.00
C154   C     0.79014   0.15597   0.41015   0.00000  Uiso   1.00
C155   C     0.87730   0.31208   0.22914   0.00000  Uiso   1.00
C156   C     0.80701   0.16351   0.35190   0.00000  Uiso   1.00
C157   C     0.87731   0.02152   0.22842   0.00000  Uiso   1.00
C158   C     0.83358   0.04254   0.24763   0.00000  Uiso   1.00
C159   C     0.78984   0.02128   0.26670   0.00000  Uiso   1.00
C160   C     0.78984   0.31190   0.26736   0.00000  Uiso   1.00
C161   C     0.83358   0.29085   0.24890   0.00000  Uiso   1.00
C162   C     0.98437   0.13751   0.22153   0.00000  Uiso   1.00
C163   C     0.69892   0.13749   0.22170   0.00000  Uiso   1.00
C164   C     0.68233   0.19550   0.27914   0.00000  Uiso   1.00
C165   C     0.96729   0.19612   0.27880   0.00000  Uiso   1.00
C166   C     0.83351   0.08665   0.24906   0.00000  Uiso   1.00
C167   C     0.85970   0.16614   0.14777   0.00000  Uiso   1.00
C168   C     0.92830   0.12543   0.00932   0.00000  Uiso   1.00
C169   C     0.87482   0.15832   0.08988   0.00000  Uiso   1.00
C170   C     0.74372   0.16883   0.44069   0.00000  Uiso   1.00
C171   C     0.72815   0.16549   0.49657   0.00000  Uiso   1.00
C172   C     0.75989   0.15285   0.02290   0.00000  Uiso   1.00
H173   H     0.94680   0.13815   0.08079   0.00000  Uiso   1.00
H174   H     0.91120   0.03807   0.21313   0.00000  Uiso   1.00
H175   H     0.75591   0.03757   0.28202   0.00000  Uiso   1.00
H176   H     0.75590   0.29544   0.28293   0.00000  Uiso   1.00
H177   H     0.97280   0.11411   0.19886   0.00000  Uiso   1.00
H178   H     0.72374   0.11396   0.19961   0.00000  Uiso   1.00
H179   H     0.69430   0.21750   0.30313   0.00000  Uiso   1.00
H180   H     0.93197   0.09616   0.41185   0.00000  Uiso   1.00
H181   H     0.80752   0.17904   0.08575   0.00000  Uiso   1.00
H182   H     0.71914   0.18080   0.42131   0.00000  Uiso   1.00
H183   H     0.69120   0.17244   0.01962   0.00000  Uiso   1.00
H184   H     0.91117   0.29570   0.21403   0.00000  Uiso   1.00
N185   N     0.71426   0.16668   0.25002   0.00000  Uiso   1.00
N186   N     0.95239   0.16665   0.25001   0.00000  Uiso   1.00
O187   O     0.79512   0.22775   0.25001   0.00000  Uiso   1.00
O188   O     0.87157   0.22774   0.25001   0.00000  Uiso   1.00
O189   O     0.77613   0.16666   0.32681   0.00000  Uiso   1.00
O190   O     0.85258   0.16665   0.32681   0.00000  Uiso   1.00
O191   O     0.79510   0.10559   0.25000   0.00000  Uiso   1.00
O192   O     0.87154   0.10558   0.25000   0.00000  Uiso   1.00
O193   O     0.81409   0.16668   0.17319   0.00000  Uiso   1.00
O194   O     0.89053   0.16667   0.17319   0.00000  Uiso   1.00
Zn195  Zn    0.78229   0.16667   0.25000   0.00000  Uiso   1.00
Zn196  Zn    0.88438   0.16666   0.25000   0.00000  Uiso   1.00
O197   O     0.93339   0.22366   0.31031   0.00000  Uiso   1.00
C198   C     0.95157   0.26477   0.30569   0.00000  Uiso   1.00
H199   H     0.92079   0.28663   0.31829   0.00000  Uiso   1.00
H200   H     0.97340   0.27309   0.26338   0.00000  Uiso   1.00
H201   H     0.97252   0.26953   0.33345   0.00000  Uiso   1.00
O202   O     0.97322   0.11023   0.48026   0.00000  Uiso   1.00
C203   C     0.97839   0.07012   0.49983   0.00000  Uiso   1.00
H204   H     0.95008   0.04844   0.49625   0.00000  Uiso   1.00
H205   H     0.97809   0.07118   0.04234   0.00000  Uiso   1.00
H206   H     0.68032   0.05741   0.47489   0.00000  Uiso   1.00
O207   O     0.74077   0.14290   0.07719   0.00000  Uiso   1.00
C208   C     0.73933   0.09895   0.08253   0.00000  Uiso   1.00
H209   H     0.72853   0.08295   0.05059   0.00000  Uiso   1.00
H210   H     0.71202   0.09028   0.12150   0.00000  Uiso   1.00
H211   H     0.77463   0.08700   0.08261   0.00000  Uiso   1.00
O212   O     0.86942   0.09541   0.36243   0.00000  Uiso   1.00
C213   C     0.84411   0.05732   0.37602   0.00000  Uiso   1.00
H214   H     0.80496   0.06251   0.38547   0.00000  Uiso   1.00
H215   H     0.85109   0.04087   0.41026   0.00000  Uiso   1.00
H216   H     0.85649   0.03614   0.34097   0.00000  Uiso   1.00
C217   C     0.16675   0.58004   0.24981   0.00000  Uiso   1.00
C218   C     0.14234   0.47904   0.49235   0.00000  Uiso   1.00
C219   C     0.15453   0.47291   0.43646   0.00000  Uiso   1.00
C220   C     0.17955   0.47763   0.01513   0.00000  Uiso   1.00
C221   C     0.22506   0.46093   0.48564   0.00000  Uiso   1.00
C222   C     0.23245   0.44561   0.43378   0.00000  Uiso   1.00
C223   C     0.19709   0.45026   0.40963   0.00000  Uiso   1.00
C224   C     0.17333   0.49544   0.06512   0.00000  Uiso   1.00
C225   C     0.25278   0.47417   0.06176   0.00000  Uiso   1.00
C226   C     0.12347   0.48931   0.41015   0.00000  Uiso   1.00
C227   C     0.21063   0.64541   0.22914   0.00000  Uiso   1.00
C228   C     0.14035   0.49685   0.35190   0.00000  Uiso   1.00
C229   C     0.21064   0.35485   0.22842   0.00000  Uiso   1.00
C230   C     0.16691   0.37587   0.24763   0.00000  Uiso   1.00
C231   C     0.12317   0.35461   0.26670   0.00000  Uiso   1.00
C232   C     0.12317   0.64523   0.26736   0.00000  Uiso   1.00
C233   C     0.16691   0.62418   0.24890   0.00000  Uiso   1.00
C234   C     0.31770   0.47085   0.22153   0.00000  Uiso   1.00
C235   C     0.03226   0.47082   0.22170   0.00000  Uiso   1.00
C236   C     0.01566   0.52883   0.27914   0.00000  Uiso   1.00
C237   C     0.30062   0.52945   0.27880   0.00000  Uiso   1.00
C238   C     0.16685   0.41999   0.24906   0.00000  Uiso   1.00
C239   C     0.19303   0.49948   0.14777   0.00000  Uiso   1.00
C240   C     0.26163   0.45877   0.00932   0.00000  Uiso   1.00
C241   C     0.20816   0.49165   0.08988   0.00000  Uiso   1.00
C242   C     0.07705   0.50216   0.44069   0.00000  Uiso   1.00
C243   C     0.06148   0.49882   0.49657   0.00000  Uiso   1.00
C244   C     0.09322   0.48619   0.02290   0.00000  Uiso   1.00
H245   H     0.28013   0.47148   0.08079   0.00000  Uiso   1.00
H246   H     0.24454   0.37141   0.21313   0.00000  Uiso   1.00
H247   H     0.08924   0.37091   0.28202   0.00000  Uiso   1.00
H248   H     0.08923   0.62877   0.28293   0.00000  Uiso   1.00
H249   H     0.30614   0.44744   0.19886   0.00000  Uiso   1.00
H250   H     0.05708   0.44729   0.19961   0.00000  Uiso   1.00
H251   H     0.02763   0.55083   0.30313   0.00000  Uiso   1.00
H252   H     0.26531   0.42949   0.41185   0.00000  Uiso   1.00
H253   H     0.14085   0.51238   0.08575   0.00000  Uiso   1.00
H254   H     0.05247   0.51413   0.42131   0.00000  Uiso   1.00
H255   H     0.02453   0.50577   0.01962   0.00000  Uiso   1.00
H256   H     0.24451   0.62903   0.21403   0.00000  Uiso   1.00
N257   N     0.04760   0.50001   0.25002   0.00000  Uiso   1.00
N258   N     0.28573   0.49998   0.25001   0.00000  Uiso   1.00
O259   O     0.12846   0.56108   0.25001   0.00000  Uiso   1.00
O260   O     0.20490   0.56107   0.25001   0.00000  Uiso   1.00
O261   O     0.10947   0.50000   0.32681   0.00000  Uiso   1.00
O262   O     0.18591   0.49999   0.32681   0.00000  Uiso   1.00
O263   O     0.12843   0.43893   0.25000   0.00000  Uiso   1.00
O264   O     0.20488   0.43892   0.25000   0.00000  Uiso   1.00
O265   O     0.14742   0.50001   0.17319   0.00000  Uiso   1.00
O266   O     0.22387   0.50000   0.17319   0.00000  Uiso   1.00
Zn267  Zn    0.11562   0.50001   0.25000   0.00000  Uiso   1.00
Zn268  Zn    0.21771   0.49999   0.25000   0.00000  Uiso   1.00
O269   O     0.26672   0.55699   0.31031   0.00000  Uiso   1.00
C270   C     0.28490   0.59811   0.30569   0.00000  Uiso   1.00
H271   H     0.25413   0.61996   0.31829   0.00000  Uiso   1.00
H272   H     0.30674   0.60642   0.26338   0.00000  Uiso   1.00
H273   H     0.30586   0.60286   0.33345   0.00000  Uiso   1.00
O274   O     0.30655   0.44357   0.48026   0.00000  Uiso   1.00
C275   C     0.31173   0.40345   0.49983   0.00000  Uiso   1.00
H276   H     0.28341   0.38177   0.49625   0.00000  Uiso   1.00
H277   H     0.31143   0.40451   0.04234   0.00000  Uiso   1.00
H278   H     0.01365   0.39074   0.47489   0.00000  Uiso   1.00
O279   O     0.07411   0.47623   0.07719   0.00000  Uiso   1.00
C280   C     0.07266   0.43229   0.08253   0.00000  Uiso   1.00
H281   H     0.06186   0.41628   0.05059   0.00000  Uiso   1.00
H282   H     0.04535   0.42362   0.12150   0.00000  Uiso   1.00
H283   H     0.10796   0.42033   0.08261   0.00000  Uiso   1.00
O284   O     0.20275   0.42874   0.36243   0.00000  Uiso   1.00
C285   C     0.17745   0.39065   0.37602   0.00000  Uiso   1.00
H286   H     0.13829   0.39584   0.38547   0.00000  Uiso   1.00
H287   H     0.18442   0.37420   0.41026   0.00000  Uiso   1.00
H288   H     0.18982   0.36948   0.34097   0.00000  Uiso   1.00
C289   C     0.50009   0.58004   0.24981   0.00000  Uiso   1.00
C290   C     0.47567   0.47904   0.49235   0.00000  Uiso   1.00
C291   C     0.48787   0.47291   0.43646   0.00000  Uiso   1.00
C292   C     0.51288   0.47763   0.01513   0.00000  Uiso   1.00
C293   C     0.55840   0.46093   0.48564   0.00000  Uiso   1.00
C294   C     0.56578   0.44561   0.43378   0.00000  Uiso   1.00
C295   C     0.53042   0.45026   0.40963   0.00000  Uiso   1.00
C296   C     0.50667   0.49544   0.06512   0.00000  Uiso   1.00
C297   C     0.58612   0.47417   0.06176   0.00000  Uiso   1.00
C298   C     0.45681   0.48931   0.41015   0.00000  Uiso   1.00
C299   C     0.54397   0.64541   0.22914   0.00000  Uiso   1.00
C300   C     0.47368   0.49685   0.35190   0.00000  Uiso   1.00
C301   C     0.54398   0.35485   0.22842   0.00000  Uiso   1.00
C302   C     0.50025   0.37587   0.24763   0.00000  Uiso   1.00
C303   C     0.45650   0.35461   0.26670   0.00000  Uiso   1.00
C304   C     0.45650   0.64523   0.26736   0.00000  Uiso   1.00
C305   C     0.50024   0.62418   0.24890   0.00000  Uiso   1.00
C306   C     0.65103   0.47085   0.22153   0.00000  Uiso   1.00
C307   C     0.36559   0.47082   0.22170   0.00000  Uiso   1.00
C308   C     0.34899   0.52883   0.27914   0.00000  Uiso   1.00
C309   C     0.63396   0.52945   0.27880   0.00000  Uiso   1.00
C310   C     0.50018   0.41999   0.24906   0.00000  Uiso   1.00
C311   C     0.52636   0.49948   0.14777   0.00000  Uiso   1.00
C312   C     0.59497   0.45877   0.00932   0.00000  Uiso   1.00
C313   C     0.54149   0.49165   0.08988   0.00000  Uiso   1.00
C314   C     0.41038   0.50216   0.44069   0.00000  Uiso   1.00
C315   C     0.39482   0.49882   0.49657   0.00000  Uiso   1.00
C316   C     0.42655   0.48619   0.02290   0.00000  Uiso   1.00
H317   H     0.61346   0.47148   0.08079   0.00000  Uiso   1.00
H318   H     0.57787   0.37141   0.21313   0.00000  Uiso   1.00
H319   H     0.42258   0.37091   0.28202   0.00000  Uiso   1.00
H320   H     0.42256   0.62877   0.28293   0.00000  Uiso   1.00
H321   H     0.63947   0.44744   0.19886   0.00000  Uiso   1.00
H322   H     0.39041   0.44729   0.19961   0.00000  Uiso   1.00
H323   H     0.36096   0.55083   0.30313   0.00000  Uiso   1.00
H324   H     0.59864   0.42949   0.41185   0.00000  Uiso   1.00
H325   H     0.47418   0.51238   0.08575   0.00000  Uiso   1.00
H326   H     0.38580   0.51413   0.42131   0.00000  Uiso   1.00
H327   H     0.35786   0.50577   0.01962   0.00000  Uiso   1.00
H328   H     0.57784   0.62903   0.21403   0.00000  Uiso   1.00
N329   N     0.38093   0.50001   0.25002   0.00000  Uiso   1.00
N330   N     0.61906   0.49998   0.25001   0.00000  Uiso   1.00
O331   O     0.46179   0.56108   0.25001   0.00000  Uiso   1.00
O332   O     0.53823   0.56107   0.25001   0.00000  Uiso   1.00
O333   O     0.44280   0.50000   0.32681   0.00000  Uiso   1.00
O334   O     0.51924   0.49999   0.32681   0.00000  Uiso   1.00
O335   O     0.46177   0.43893   0.25000   0.00000  Uiso   1.00
O336   O     0.53821   0.43892   0.25000   0.00000  Uiso   1.00
O337   O     0.48076   0.50001   0.17319   0.00000  Uiso   1.00
O338   O     0.55720   0.50000   0.17319   0.00000  Uiso   1.00
Zn339  Zn    0.44896   0.50001   0.25000   0.00000  Uiso   1.00
Zn340  Zn    0.55104   0.49999   0.25000   0.00000  Uiso   1.00
O341   O     0.60006   0.55699   0.31031   0.00000  Uiso   1.00
C342   C     0.61824   0.59811   0.30569   0.00000  Uiso   1.00
H343   H     0.58746   0.61996   0.31829   0.00000  Uiso   1.00
H344   H     0.64007   0.60642   0.26338   0.00000  Uiso   1.00
H345   H     0.63919   0.60286   0.33345   0.00000  Uiso   1.00
O346   O     0.63989   0.44357   0.48026   0.00000  Uiso   1.00
C347   C     0.64506   0.40345   0.49983   0.00000  Uiso   1.00
H348   H     0.61675   0.38177   0.49625   0.00000  Uiso   1.00
H349   H     0.64476   0.40451   0.04234   0.00000  Uiso   1.00
H350   H     0.34699   0.39074   0.47489   0.00000  Uiso   1.00
O351   O     0.40744   0.47623   0.07719   0.00000  Uiso   1.00
C352   C     0.40599   0.43229   0.08253   0.00000  Uiso   1.00
H353   H     0.39519   0.41628   0.05059   0.00000  Uiso   1.00
H354   H     0.37868   0.42362   0.12150   0.00000  Uiso   1.00
H355   H     0.44130   0.42033   0.08261   0.00000  Uiso   1.00
O356   O     0.53609   0.42874   0.36243   0.00000  Uiso   1.00
C357   C     0.51078   0.39065   0.37602   0.00000  Uiso   1.00
H358   H     0.47162   0.39584   0.38547   0.00000  Uiso   1.00
H359   H     0.51775   0.37420   0.41026   0.00000  Uiso   1.00
H360   H     0.52316   0.36948   0.34097   0.00000  Uiso   1.00
C361   C     0.83342   0.58004   0.24981   0.00000  Uiso   1.00
C362   C     0.80901   0.47904   0.49235   0.00000  Uiso   1.00
C363   C     0.82120   0.47291   0.43646   0.00000  Uiso   1.00
C364   C     0.84621   0.47763   0.01513   0.00000  Uiso   1.00
C365   C     0.89173   0.46093   0.48564   0.00000  Uiso   1.00
C366   C     0.89911   0.44561   0.43378   0.00000  Uiso   1.00
C367   C     0.86375   0.45026   0.40963   0.00000  Uiso   1.00
C368   C     0.84000   0.49544   0.06512   0.00000  Uiso   1.00
C369   C     0.91945   0.47417   0.06176   0.00000  Uiso   1.00
C370   C     0.79014   0.48931   0.41015   0.00000  Uiso   1.00
C371   C     0.87730   0.64541   0.22914   0.00000  Uiso   1.00
C372   C     0.80701   0.49685   0.35190   0.00000  Uiso   1.00
C373   C     0.87731   0.35485   0.22842   0.00000  Uiso   1.00
C374   C     0.83358   0.37587   0.24763   0.00000  Uiso   1.00
C375   C     0.78984   0.35461   0.26670   0.00000  Uiso   1.00
C376   C     0.78984   0.64523   0.26736   0.00000  Uiso   1.00
C377   C     0.83358   0.62418   0.24890   0.00000  Uiso   1.00
C378   C     0.98437   0.47085   0.22153   0.00000  Uiso   1.00
C379   C     0.69892   0.47082   0.22170   0.00000  Uiso   1.00
C380   C     0.68233   0.52883   0.27914   0.00000  Uiso   1.00
C381   C     0.96729   0.52945   0.27880   0.00000  Uiso   1.00
C382   C     0.83351   0.41999   0.24906   0.00000  Uiso   1.00
C383   C     0.85970   0.49948   0.14777   0.00000  Uiso   1.00
C384   C     0.92830   0.45877   0.00932   0.00000  Uiso   1.00
C385   C     0.87482   0.49165   0.08988   0.00000  Uiso   1.00
C386   C     0.74372   0.50216   0.44069   0.00000  Uiso   1.00
C387   C     0.72815   0.49882   0.49657   0.00000  Uiso   1.00
C388   C     0.75989   0.48619   0.02290   0.00000  Uiso   1.00
H389   H     0.94680   0.47148   0.08079   0.00000  Uiso   1.00
H390   H     0.91120   0.37141   0.21313   0.00000  Uiso   1.00
H391   H     0.75591   0.37091   0.28202   0.00000  Uiso   1.00
H392   H     0.75590   0.62877   0.28293   0.00000  Uiso   1.00
H393   H     0.97280   0.44744   0.19886   0.00000  Uiso   1.00
H394   H     0.72374   0.44729   0.19961   0.00000  Uiso   1.00
H395   H     0.69430   0.55083   0.30313   0.00000  Uiso   1.00
H396   H     0.93197   0.42949   0.41185   0.00000  Uiso   1.00
H397   H     0.80752   0.51238   0.08575   0.00000  Uiso   1.00
H398   H     0.71914   0.51413   0.42131   0.00000  Uiso   1.00
H399   H     0.69120   0.50577   0.01962   0.00000  Uiso   1.00
H400   H     0.91117   0.62903   0.21403   0.00000  Uiso   1.00
N401   N     0.71426   0.50001   0.25002   0.00000  Uiso   1.00
N402   N     0.95239   0.49998   0.25001   0.00000  Uiso   1.00
O403   O     0.79512   0.56108   0.25001   0.00000  Uiso   1.00
O404   O     0.87157   0.56107   0.25001   0.00000  Uiso   1.00
O405   O     0.77613   0.50000   0.32681   0.00000  Uiso   1.00
O406   O     0.85258   0.49999   0.32681   0.00000  Uiso   1.00
O407   O     0.79510   0.43893   0.25000   0.00000  Uiso   1.00
O408   O     0.87154   0.43892   0.25000   0.00000  Uiso   1.00
O409   O     0.81409   0.50001   0.17319   0.00000  Uiso   1.00
O410   O     0.89053   0.50000   0.17319   0.00000  Uiso   1.00
Zn411  Zn    0.78229   0.50001   0.25000   0.00000  Uiso   1.00
Zn412  Zn    0.88438   0.49999   0.25000   0.00000  Uiso   1.00
O413   O     0.93339   0.55699   0.31031   0.00000  Uiso   1.00
C414   C     0.95157   0.59811   0.30569   0.00000  Uiso   1.00
H415   H     0.92079   0.61996   0.31829   0.00000  Uiso   1.00
H416   H     0.97340   0.60642   0.26338   0.00000  Uiso   1.00
H417   H     0.97252   0.60286   0.33345   0.00000  Uiso   1.00
O418   O     0.97322   0.44357   0.48026   0.00000  Uiso   1.00
C419   C     0.97839   0.40345   0.49983   0.00000  Uiso   1.00
H420   H     0.95008   0.38177   0.49625   0.00000  Uiso   1.00
H421   H     0.97809   0.40451   0.04234   0.00000  Uiso   1.00
H422   H     0.68032   0.39074   0.47489   0.00000  Uiso   1.00
O423   O     0.74077   0.47623   0.07719   0.00000  Uiso   1.00
C424   C     0.73933   0.43229   0.08253   0.00000  Uiso   1.00
H425   H     0.72853   0.41628   0.05059   0.00000  Uiso   1.00
H426   H     0.71202   0.42362   0.12150   0.00000  Uiso   1.00
H427   H     0.77463   0.42033   0.08261   0.00000  Uiso   1.00
O428   O     0.86942   0.42874   0.36243   0.00000  Uiso   1.00
C429   C     0.84411   0.39065   0.37602   0.00000  Uiso   1.00
H430   H     0.80496   0.39584   0.38547   0.00000  Uiso   1.00
H431   H     0.85109   0.37420   0.41026   0.00000  Uiso   1.00
H432   H     0.85649   0.36948   0.34097   0.00000  Uiso   1.00
C433   C     0.16675   0.91337   0.24981   0.00000  Uiso   1.00
C434   C     0.14234   0.81238   0.49235   0.00000  Uiso   1.00
C435   C     0.15453   0.80624   0.43646   0.00000  Uiso   1.00
C436   C     0.17955   0.81097   0.01513   0.00000  Uiso   1.00
C437   C     0.22506   0.79426   0.48564   0.00000  Uiso   1.00
C438   C     0.23245   0.77894   0.43378   0.00000  Uiso   1.00
C439   C     0.19709   0.78359   0.40963   0.00000  Uiso   1.00
C440   C     0.17333   0.82878   0.06512   0.00000  Uiso   1.00
C441   C     0.25278   0.80751   0.06176   0.00000  Uiso   1.00
C442   C     0.12347   0.82264   0.41015   0.00000  Uiso   1.00
C443   C     0.21063   0.97875   0.22914   0.00000  Uiso   1.00
C444   C     0.14035   0.83018   0.35190   0.00000  Uiso   1.00
C445   C     0.21064   0.68819   0.22842   0.00000  Uiso   1.00
C446   C     0.16691   0.70921   0.24763   0.00000  Uiso   1.00
C447   C     0.12317   0.68794   0.26670   0.00000  Uiso   1.00
C448   C     0.12317   0.97857   0.26736   0.00000  Uiso   1.00
C449   C     0.16691   0.95751   0.24890   0.00000  Uiso   1.00
C450   C     0.31770   0.80418   0.22153   0.00000  Uiso   1.00
C451   C     0.03226   0.80416   0.22170   0.00000  Uiso   1.00
C452   C     0.01566   0.86217   0.27914   0.00000  Uiso   1.00
C453   C     0.30062   0.86278   0.27880   0.00000  Uiso   1.00
C454   C     0.16685   0.75332   0.24906   0.00000  Uiso   1.00
C455   C     0.19303   0.83281   0.14777   0.00000  Uiso   1.00
C456   C     0.26163   0.79210   0.00932   0.00000  Uiso   1.00
C457   C     0.20816   0.82498   0.08988   0.00000  Uiso   1.00
C458   C     0.07705   0.83549   0.44069   0.00000  Uiso   1.00
C459   C     0.06148   0.83215   0.49657   0.00000  Uiso   1.00
C460   C     0.09322   0.81952   0.02290   0.00000  Uiso   1.00
H461   H     0.28013   0.80481   0.08079   0.00000  Uiso   1.00
H462   H     0.24454   0.70474   0.21313   0.00000  Uiso   1.00
H463   H     0.08924   0.70424   0.28202   0.00000  Uiso   1.00
H464   H     0.08923   0.96210   0.28293   0.00000  Uiso   1.00
H465   H     0.30614   0.78077   0.19886   0.00000  Uiso   1.00
H466   H     0.05708   0.78063   0.19961   0.00000  Uiso   1.00
H467   H     0.02763   0.88416   0.30313   0.00000  Uiso   1.00
H468   H     0.26531   0.76283   0.41185   0.00000  Uiso   1.00
H469   H     0.14085   0.84571   0.08575   0.00000  Uiso   1.00
H470   H     0.05247   0.84747   0.42131   0.00000  Uiso   1.00
H471   H     0.02453   0.83910   0.01962   0.00000  Uiso   1.00
H472   H     0.24451   0.96237   0.21403   0.00000  Uiso   1.00
N473   N     0.04760   0.83334   0.25002   0.00000  Uiso   1.00
N474   N     0.28573   0.83331   0.25001   0.00000  Uiso   1.00
O475   O     0.12846   0.89442   0.25001   0.00000  Uiso   1.00
O476   O     0.20490   0.89441   0.25001   0.00000  Uiso   1.00
O477   O     0.10947   0.83333   0.32681   0.00000  Uiso   1.00
O478   O     0.18591   0.83332   0.32681   0.00000  Uiso   1.00
O479   O     0.12843   0.77226   0.25000   0.00000  Uiso   1.00
O480   O     0.20488   0.77225   0.25000   0.00000  Uiso   1.00
O481   O     0.14742   0.83335   0.17319   0.00000  Uiso   1.00
O482   O     0.22387   0.83334   0.17319   0.00000  Uiso   1.00
Zn483  Zn    0.11562   0.83334   0.25000   0.00000  Uiso   1.00
Zn484  Zn    0.21771   0.83333   0.25000   0.00000  Uiso   1.00
O485   O     0.26672   0.89033   0.31031   0.00000  Uiso   1.00
C486   C     0.28490   0.93144   0.30569   0.00000  Uiso   1.00
H487   H     0.25413   0.95330   0.31829   0.00000  Uiso   1.00
H488   H     0.30674   0.93976   0.26338   0.00000  Uiso   1.00
H489   H     0.30586   0.93620   0.33345   0.00000  Uiso   1.00
O490   O     0.30655   0.77690   0.48026   0.00000  Uiso   1.00
C491   C     0.31173   0.73679   0.49983   0.00000  Uiso   1.00
H492   H     0.28341   0.71511   0.49625   0.00000  Uiso   1.00
H493   H     0.31143   0.73784   0.04234   0.00000  Uiso   1.00
H494   H     0.01365   0.72408   0.47489   0.00000  Uiso   1.00
O495   O     0.07411   0.80956   0.07719   0.00000  Uiso   1.00
C496   C     0.07266   0.76562   0.08253   0.00000  Uiso   1.00
H497   H     0.06186   0.74962   0.05059   0.00000  Uiso   1.00
H498   H     0.04535   0.75695   0.12150   0.00000  Uiso   1.00
H499   H     0.10796   0.75367   0.08261   0.00000  Uiso   1.00
O500   O     0.20275   0.76207   0.36243   0.00000  Uiso   1.00
C501   C     0.17745   0.72399   0.37602   0.00000  Uiso   1.00
H502   H     0.13829   0.72917   0.38547   0.00000  Uiso   1.00
H503   H     0.18442   0.70753   0.41026   0.00000  Uiso   1.00
H504   H     0.18982   0.70281   0.34097   0.00000  Uiso   1.00
C505   C     0.50009   0.91337   0.24981   0.00000  Uiso   1.00
C506   C     0.47567   0.81238   0.49235   0.00000  Uiso   1.00
C507   C     0.48787   0.80624   0.43646   0.00000  Uiso   1.00
C508   C     0.51288   0.81097   0.01513   0.00000  Uiso   1.00
C509   C     0.55840   0.79426   0.48564   0.00000  Uiso   1.00
C510   C     0.56578   0.77894   0.43378   0.00000  Uiso   1.00
C511   C     0.53042   0.78359   0.40963   0.00000  Uiso   1.00
C512   C     0.50667   0.82878   0.06512   0.00000  Uiso   1.00
C513   C     0.58612   0.80751   0.06176   0.00000  Uiso   1.00
C514   C     0.45681   0.82264   0.41015   0.00000  Uiso   1.00
C515   C     0.54397   0.97875   0.22914   0.00000  Uiso   1.00
C516   C     0.47368   0.83018   0.35190   0.00000  Uiso   1.00
C517   C     0.54398   0.68819   0.22842   0.00000  Uiso   1.00
C518   C     0.50025   0.70921   0.24763   0.00000  Uiso   1.00
C519   C     0.45650   0.68794   0.26670   0.00000  Uiso   1.00
C520   C     0.45650   0.97857   0.26736   0.00000  Uiso   1.00
C521   C     0.50024   0.95751   0.24890   0.00000  Uiso   1.00
C522   C     0.65103   0.80418   0.22153   0.00000  Uiso   1.00
C523   C     0.36559   0.80416   0.22170   0.00000  Uiso   1.00
C524   C     0.34899   0.86217   0.27914   0.00000  Uiso   1.00
C525   C     0.63396   0.86278   0.27880   0.00000  Uiso   1.00
C526   C     0.50018   0.75332   0.24906   0.00000  Uiso   1.00
C527   C     0.52636   0.83281   0.14777   0.00000  Uiso   1.00
C528   C     0.59497   0.79210   0.00932   0.00000  Uiso   1.00
C529   C     0.54149   0.82498   0.08988   0.00000  Uiso   1.00
C530   C     0.41038   0.83549   0.44069   0.00000  Uiso   1.00
C531   C     0.39482   0.83215   0.49657   0.00000  Uiso   1.00
C532   C     0.42655   0.81952   0.02290   0.00000  Uiso   1.00
H533   H     0.61346   0.80481   0.08079   0.00000  Uiso   1.00
H534   H     0.57787   0.70474   0.21313   0.00000  Uiso   1.00
H535   H     0.42258   0.70424   0.28202   0.00000  Uiso   1.00
H536   H     0.42256   0.96210   0.28293   0.00000  Uiso   1.00
H537   H     0.63947   0.78077   0.19886   0.00000  Uiso   1.00
H538   H     0.39041   0.78063   0.19961   0.00000  Uiso   1.00
H539   H     0.36096   0.88416   0.30313   0.00000  Uiso   1.00
H540   H     0.59864   0.76283   0.41185   0.00000  Uiso   1.00
H541   H     0.47418   0.84571   0.08575   0.00000  Uiso   1.00
H542   H     0.38580   0.84747   0.42131   0.00000  Uiso   1.00
H543   H     0.35786   0.83910   0.01962   0.00000  Uiso   1.00
H544   H     0.57784   0.96237   0.21403   0.00000  Uiso   1.00
N545   N     0.38093   0.83334   0.25002   0.00000  Uiso   1.00
N546   N     0.61906   0.83331   0.25001   0.00000  Uiso   1.00
O547   O     0.46179   0.89442   0.25001   0.00000  Uiso   1.00
O548   O     0.53823   0.89441   0.25001   0.00000  Uiso   1.00
O549   O     0.44280   0.83333   0.32681   0.00000  Uiso   1.00
O550   O     0.51924   0.83332   0.32681   0.00000  Uiso   1.00
O551   O     0.46177   0.77226   0.25000   0.00000  Uiso   1.00
O552   O     0.53821   0.77225   0.25000   0.00000  Uiso   1.00
O553   O     0.48076   0.83335   0.17319   0.00000  Uiso   1.00
O554   O     0.55720   0.83334   0.17319   0.00000  Uiso   1.00
Zn555  Zn    0.44896   0.83334   0.25000   0.00000  Uiso   1.00
Zn556  Zn    0.55104   0.83333   0.25000   0.00000  Uiso   1.00
O557   O     0.60006   0.89033   0.31031   0.00000  Uiso   1.00
C558   C     0.61824   0.93144   0.30569   0.00000  Uiso   1.00
H559   H     0.58746   0.95330   0.31829   0.00000  Uiso   1.00
H560   H     0.64007   0.93976   0.26338   0.00000  Uiso   1.00
H561   H     0.63919   0.93620   0.33345   0.00000  Uiso   1.00
O562   O     0.63989   0.77690   0.48026   0.00000  Uiso   1.00
C563   C     0.64506   0.73679   0.49983   0.00000  Uiso   1.00
H564   H     0.61675   0.71511   0.49625   0.00000  Uiso   1.00
H565   H     0.64476   0.73784   0.04234   0.00000  Uiso   1.00
H566   H     0.34699   0.72408   0.47489   0.00000  Uiso   1.00
O567   O     0.40744   0.80956   0.07719   0.00000  Uiso   1.00
C568   C     0.40599   0.76562   0.08253   0.00000  Uiso   1.00
H569   H     0.39519   0.74962   0.05059   0.00000  Uiso   1.00
H570   H     0.37868   0.75695   0.12150   0.00000  Uiso   1.00
H571   H     0.44130   0.75367   0.08261   0.00000  Uiso   1.00
O572   O     0.53609   0.76207   0.36243   0.00000  Uiso   1.00
C573   C     0.51078   0.72399   0.37602   0.00000  Uiso   1.00
H574   H     0.47162   0.72917   0.38547   0.00000  Uiso   1.00
H575   H     0.51775   0.70753   0.41026   0.00000  Uiso   1.00
H576   H     0.52316   0.70281   0.34097   0.00000  Uiso   1.00
C577   C     0.83342   0.91337   0.24981   0.00000  Uiso   1.00
C578   C     0.80901   0.81238   0.49235   0.00000  Uiso   1.00
C579   C     0.82120   0.80624   0.43646   0.00000  Uiso   1.00
C580   C     0.84621   0.81097   0.01513   0.00000  Uiso   1.00
C581   C     0.89173   0.79426   0.48564   0.00000  Uiso   1.00
C582   C     0.89911   0.77894   0.43378   0.00000  Uiso   1.00
C583   C     0.86375   0.78359   0.40963   0.00000  Uiso   1.00
C584   C     0.84000   0.82878   0.06512   0.00000  Uiso   1.00
C585   C     0.91945   0.80751   0.06176   0.00000  Uiso   1.00
C586   C     0.79014   0.82264   0.41015   0.00000  Uiso   1.00
C587   C     0.87730   0.97875   0.22914   0.00000  Uiso   1.00
C588   C     0.80701   0.83018   0.35190   0.00000  Uiso   1.00
C589   C     0.87731   0.68819   0.22842   0.00000  Uiso   1.00
C590   C     0.83358   0.70921   0.24763   0.00000  Uiso   1.00
C591   C     0.78984   0.68794   0.26670   0.00000  Uiso   1.00
C592   C     0.78984   0.97857   0.26736   0.00000  Uiso   1.00
C593   C     0.83358   0.95751   0.24890   0.00000  Uiso   1.00
C594   C     0.98437   0.80418   0.22153   0.00000  Uiso   1.00
C595   C     0.69892   0.80416   0.22170   0.00000  Uiso   1.00
C596   C     0.68233   0.86217   0.27914   0.00000  Uiso   1.00
C597   C     0.96729   0.86278   0.27880   0.00000  Uiso   1.00
C598   C     0.83351   0.75332   0.24906   0.00000  Uiso   1.00
C599   C     0.85970   0.83281   0.14777   0.00000  Uiso   1.00
C600   C     0.92830   0.79210   0.00932   0.00000  Uiso   1.00
C601   C     0.87482   0.82498   0.08988   0.00000  Uiso   1.00
C602   C     0.74372   0.83549   0.44069   0.00000  Uiso   1.00
C603   C     0.72815   0.83215   0.49657   0.00000  Uiso   1.00
C604   C     0.75989   0.81952   0.02290   0.00000  Uiso   1.00
H605   H     0.94680   0.80481   0.08079   0.00000  Uiso   1.00
H606   H     0.91120   0.70474   0.21313   0.00000  Uiso   1.00
H607   H     0.75591   0.70424   0.28202   0.00000  Uiso   1.00
H608   H     0.75590   0.96210   0.28293   0.00000  Uiso   1.00
H609   H     0.97280   0.78077   0.19886   0.00000  Uiso   1.00
H610   H     0.72374   0.78063   0.19961   0.00000  Uiso   1.00
H611   H     0.69430   0.88416   0.30313   0.00000  Uiso   1.00
H612   H     0.93197   0.76283   0.41185   0.00000  Uiso   1.00
H613   H     0.80752   0.84571   0.08575   0.00000  Uiso   1.00
H614   H     0.71914   0.84747   0.42131   0.00000  Uiso   1.00
H615   H     0.69120   0.83910   0.01962   0.00000  Uiso   1.00
H616   H     0.91117   0.96237   0.21403   0.00000  Uiso   1.00
N617   N     0.71426   0.83334   0.25002   0.00000  Uiso   1.00
N618   N     0.95239   0.83331   0.25001   0.00000  Uiso   1.00
O619   O     0.79512   0.89442   0.25001   0.00000  Uiso   1.00
O620   O     0.87157   0.89441   0.25001   0.00000  Uiso   1.00
O621   O     0.77613   0.83333   0.32681   0.00000  Uiso   1.00
O622   O     0.85258   0.83332   0.32681   0.00000  Uiso   1.00
O623   O     0.79510   0.77226   0.25000   0.00000  Uiso   1.00
O624   O     0.87154   0.77225   0.25000   0.00000  Uiso   1.00
O625   O     0.81409   0.83335   0.17319   0.00000  Uiso   1.00
O626   O     0.89053   0.83334   0.17319   0.00000  Uiso   1.00
Zn627  Zn    0.78229   0.83334   0.25000   0.00000  Uiso   1.00
Zn628  Zn    0.88438   0.83333   0.25000   0.00000  Uiso   1.00
O629   O     0.93339   0.89033   0.31031   0.00000  Uiso   1.00
C630   C     0.95157   0.93144   0.30569   0.00000  Uiso   1.00
H631   H     0.92079   0.95330   0.31829   0.00000  Uiso   1.00
H632   H     0.97340   0.93976   0.26338   0.00000  Uiso   1.00
H633   H     0.97252   0.93620   0.33345   0.00000  Uiso   1.00
O634   O     0.97322   0.77690   0.48026   0.00000  Uiso   1.00
C635   C     0.97839   0.73679   0.49983   0.00000  Uiso   1.00
H636   H     0.95008   0.71511   0.49625   0.00000  Uiso   1.00
H637   H     0.97809   0.73784   0.04234   0.00000  Uiso   1.00
H638   H     0.68032   0.72408   0.47489   0.00000  Uiso   1.00
O639   O     0.74077   0.80956   0.07719   0.00000  Uiso   1.00
C640   C     0.73933   0.76562   0.08253   0.00000  Uiso   1.00
H641   H     0.72853   0.74962   0.05059   0.00000  Uiso   1.00
H642   H     0.71202   0.75695   0.12150   0.00000  Uiso   1.00
H643   H     0.77463   0.75367   0.08261   0.00000  Uiso   1.00
O644   O     0.86942   0.76207   0.36243   0.00000  Uiso   1.00
C645   C     0.84411   0.72399   0.37602   0.00000  Uiso   1.00
H646   H     0.80496   0.72917   0.38547   0.00000  Uiso   1.00
H647   H     0.85109   0.70753   0.41026   0.00000  Uiso   1.00
H648   H     0.85649   0.70281   0.34097   0.00000  Uiso   1.00
C649   C     0.16675   0.24670   0.74981   0.00000  Uiso   1.00
C650   C     0.14234   0.14571   0.99235   0.00000  Uiso   1.00
C651   C     0.15453   0.13958   0.93646   0.00000  Uiso   1.00
C652   C     0.17955   0.14430   0.51513   0.00000  Uiso   1.00
C653   C     0.22506   0.12759   0.98564   0.00000  Uiso   1.00
C654   C     0.23245   0.11228   0.93378   0.00000  Uiso   1.00
C655   C     0.19709   0.11692   0.90963   0.00000  Uiso   1.00
C656   C     0.17333   0.16211   0.56512   0.00000  Uiso   1.00
C657   C     0.25278   0.14084   0.56176   0.00000  Uiso   1.00
C658   C     0.12347   0.15597   0.91015   0.00000  Uiso   1.00
C659   C     0.21063   0.31208   0.72914   0.00000  Uiso   1.00
C660   C     0.14035   0.16351   0.85190   0.00000  Uiso   1.00
C661   C     0.21064   0.02152   0.72842   0.00000  Uiso   1.00
C662   C     0.16691   0.04254   0.74763   0.00000  Uiso   1.00
C663   C     0.12317   0.02128   0.76670   0.00000  Uiso   1.00
C664   C     0.12317   0.31190   0.76736   0.00000  Uiso   1.00
C665   C     0.16691   0.29085   0.74890   0.00000  Uiso   1.00
C666   C     0.31770   0.13751   0.72153   0.00000  Uiso   1.00
C667   C     0.03226   0.13749   0.72170   0.00000  Uiso   1.00
C668   C     0.01566   0.19550   0.77914   0.00000  Uiso   1.00
C669   C     0.30062   0.19612   0.77880   0.00000  Uiso   1.00
C670   C     0.16685   0.08665   0.74906   0.00000  Uiso   1.00
C671   C     0.19303   0.16614   0.64777   0.00000  Uiso   1.00
C672   C     0.26163   0.12543   0.50932   0.00000  Uiso   1.00
C673   C     0.20816   0.15832   0.58988   0.00000  Uiso   1.00
C674   C     0.07705   0.16883   0.94069   0.00000  Uiso   1.00
C675   C     0.06148   0.16549   0.99657   0.00000  Uiso   1.00
C676   C     0.09322   0.15285   0.52290   0.00000  Uiso   1.00
H677   H     0.28013   0.13815   0.58079   0.00000  Uiso   1.00
H678   H     0.24454   0.03807   0.71313   0.00000  Uiso   1.00
H679   H     0.08924   0.03757   0.78202   0.00000  Uiso   1.00
H680   H     0.08923   0.29544   0.78293   0.00000  Uiso   1.00
H681   H     0.30614   0.11411   0.69886   0.00000  Uiso   1.00
H682   H     0.05708   0.11396   0.69961   0.00000  Uiso   1.00
H683   H     0.02763   0.21750   0.80313   0.00000  Uiso   1.00
H684   H     0.26531   0.09616   0.91185   0.00000  Uiso   1.00
H685   H     0.14085   0.17904   0.58575   0.00000  Uiso   1.00
H686   H     0.05247   0.18080   0.92131   0.00000  Uiso   1.00
H687   H     0.02453   0.17244   0.51962   0.00000  Uiso   1.00
H688   H     0.24451   0.29570   0.71403   0.00000  Uiso   1.00
N689   N     0.04760   0.16668   0.75002   0.00000  Uiso   1.00
N690   N     0.28573   0.16665   0.75001   0.00000  Uiso   1.00
O691   O     0.12846   0.22775   0.75001   0.00000  Uiso   1.00
O692   O     0.20490   0.22774   0.75001   0.00000  Uiso   1.00
O693   O     0.10947   0.16666   0.82681   0.00000  Uiso   1.00
O694   O     0.18591   0.16665   0.82681   0.00000  Uiso   1.00
O695   O     0.12843   0.10559   0.75000   0.00000  Uiso   1.00
O696   O     0.20488   0.10558   0.75000   0.00000  Uiso   1.00
O697   O     0.14742   0.16668   0.67319   0.00000  Uiso   1.00
O698   O     0.22387   0.16667   0.67319   0.00000  Uiso   1.00
Zn699  Zn    0.11562   0.16667   0.75000   0.00000  Uiso   1.00
Zn700  Zn    0.21771   0.16666   0.75000   0.00000  Uiso   1.00
O701   O     0.26672   0.22366   0.81031   0.00000  Uiso   1.00
C702   C     0.28490   0.26477   0.80569   0.00000  Uiso   1.00
H703   H     0.25413   0.28663   0.81829   0.00000  Uiso   1.00
H704   H     0.30674   0.27309   0.76338   0.00000  Uiso   1.00
H705   H     0.30586   0.26953   0.83345   0.00000  Uiso   1.00
O706   O     0.30655   0.11023   0.98026   0.00000  Uiso   1.00
C707   C     0.31173   0.07012   0.99983   0.00000  Uiso   1.00
H708   H     0.28341   0.04844   0.99625   0.00000  Uiso   1.00
H709   H     0.31143   0.07118   0.54234   0.00000  Uiso   1.00
H710   H     0.01365   0.05741   0.97489   0.00000  Uiso   1.00
O711   O     0.07411   0.14290   0.57719   0.00000  Uiso   1.00
C712   C     0.07266   0.09895   0.58253   0.00000  Uiso   1.00
H713   H     0.06186   0.08295   0.55059   0.00000  Uiso   1.00
H714   H     0.04535   0.09028   0.62150   0.00000  Uiso   1.00
H715   H     0.10796   0.08700   0.58261   0.00000  Uiso   1.00
O716   O     0.20275   0.09541   0.86243   0.00000  Uiso   1.00
C717   C     0.17745   0.05732   0.87602   0.00000  Uiso   1.00
H718   H     0.13829   0.06251   0.88547   0.00000  Uiso   1.00
H719   H     0.18442   0.04087   0.91026   0.00000  Uiso   1.00
H720   H     0.18982   0.03614   0.84097   0.00000  Uiso   1.00
C721   C     0.50009   0.24670   0.74981   0.00000  Uiso   1.00
C722   C     0.47567   0.14571   0.99235   0.00000  Uiso   1.00
C723   C     0.48787   0.13958   0.93646   0.00000  Uiso   1.00
C724   C     0.51288   0.14430   0.51513   0.00000  Uiso   1.00
C725   C     0.55840   0.12759   0.98564   0.00000  Uiso   1.00
C726   C     0.56578   0.11228   0.93378   0.00000  Uiso   1.00
C727   C     0.53042   0.11692   0.90963   0.00000  Uiso   1.00
C728   C     0.50667   0.16211   0.56512   0.00000  Uiso   1.00
C729   C     0.58612   0.14084   0.56176   0.00000  Uiso   1.00
C730   C     0.45681   0.15597   0.91015   0.00000  Uiso   1.00
C731   C     0.54397   0.31208   0.72914   0.00000  Uiso   1.00
C732   C     0.47368   0.16351   0.85190   0.00000  Uiso   1.00
C733   C     0.54398   0.02152   0.72842   0.00000  Uiso   1.00
C734   C     0.50025   0.04254   0.74763   0.00000  Uiso   1.00
C735   C     0.45650   0.02128   0.76670   0.00000  Uiso   1.00
C736   C     0.45650   0.31190   0.76736   0.00000  Uiso   1.00
C737   C     0.50024   0.29085   0.74890   0.00000  Uiso   1.00
C738   C     0.65103   0.13751   0.72153   0.00000  Uiso   1.00
C739   C     0.36559   0.13749   0.72170   0.00000  Uiso   1.00
C740   C     0.34899   0.19550   0.77914   0.00000  Uiso   1.00
C741   C     0.63396   0.19612   0.77880   0.00000  Uiso   1.00
C742   C     0.50018   0.08665   0.74906   0.00000  Uiso   1.00
C743   C     0.52636   0.16614   0.64777   0.00000  Uiso   1.00
C744   C     0.59497   0.12543   0.50932   0.00000  Uiso   1.00
C745   C     0.54149   0.15832   0.58988   0.00000  Uiso   1.00
C746   C     0.41038   0.16883   0.94069   0.00000  Uiso   1.00
C747   C     0.39482   0.16549   0.99657   0.00000  Uiso   1.00
C748   C     0.42655   0.15285   0.52290   0.00000  Uiso   1.00
H749   H     0.61346   0.13815   0.58079   0.00000  Uiso   1.00
H750   H     0.57787   0.03807   0.71313   0.00000  Uiso   1.00
H751   H     0.42258   0.03757   0.78202   0.00000  Uiso   1.00
H752   H     0.42256   0.29544   0.78293   0.00000  Uiso   1.00
H753   H     0.63947   0.11411   0.69886   0.00000  Uiso   1.00
H754   H     0.39041   0.11396   0.69961   0.00000  Uiso   1.00
H755   H     0.36096   0.21750   0.80313   0.00000  Uiso   1.00
H756   H     0.59864   0.09616   0.91185   0.00000  Uiso   1.00
H757   H     0.47418   0.17904   0.58575   0.00000  Uiso   1.00
H758   H     0.38580   0.18080   0.92131   0.00000  Uiso   1.00
H759   H     0.35786   0.17244   0.51962   0.00000  Uiso   1.00
H760   H     0.57784   0.29570   0.71403   0.00000  Uiso   1.00
N761   N     0.38093   0.16668   0.75002   0.00000  Uiso   1.00
N762   N     0.61906   0.16665   0.75001   0.00000  Uiso   1.00
O763   O     0.46179   0.22775   0.75001   0.00000  Uiso   1.00
O764   O     0.53823   0.22774   0.75001   0.00000  Uiso   1.00
O765   O     0.44280   0.16666   0.82681   0.00000  Uiso   1.00
O766   O     0.51924   0.16665   0.82681   0.00000  Uiso   1.00
O767   O     0.46177   0.10559   0.75000   0.00000  Uiso   1.00
O768   O     0.53821   0.10558   0.75000   0.00000  Uiso   1.00
O769   O     0.48076   0.16668   0.67319   0.00000  Uiso   1.00
O770   O     0.55720   0.16667   0.67319   0.00000  Uiso   1.00
Zn771  Zn    0.44896   0.16667   0.75000   0.00000  Uiso   1.00
Zn772  Zn    0.55104   0.16666   0.75000   0.00000  Uiso   1.00
O773   O     0.60006   0.22366   0.81031   0.00000  Uiso   1.00
C774   C     0.61824   0.26477   0.80569   0.00000  Uiso   1.00
H775   H     0.58746   0.28663   0.81829   0.00000  Uiso   1.00
H776   H     0.64007   0.27309   0.76338   0.00000  Uiso   1.00
H777   H     0.63919   0.26953   0.83345   0.00000  Uiso   1.00
O778   O     0.63989   0.11023   0.98026   0.00000  Uiso   1.00
C779   C     0.64506   0.07012   0.99983   0.00000  Uiso   1.00
H780   H     0.61675   0.04844   0.99625   0.00000  Uiso   1.00
H781   H     0.64476   0.07118   0.54234   0.00000  Uiso   1.00
H782   H     0.34699   0.05741   0.97489   0.00000  Uiso   1.00
O783   O     0.40744   0.14290   0.57719   0.00000  Uiso   1.00
C784   C     0.40599   0.09895   0.58253   0.00000  Uiso   1.00
H785   H     0.39519   0.08295   0.55059   0.00000  Uiso   1.00
H786   H     0.37868   0.09028   0.62150   0.00000  Uiso   1.00
H787   H     0.44130   0.08700   0.58261   0.00000  Uiso   1.00
O788   O     0.53609   0.09541   0.86243   0.00000  Uiso   1.00
C789   C     0.51078   0.05732   0.87602   0.00000  Uiso   1.00
H790   H     0.47162   0.06251   0.88547   0.00000  Uiso   1.00
H791   H     0.51775   0.04087   0.91026   0.00000  Uiso   1.00
H792   H     0.52316   0.03614   0.84097   0.00000  Uiso   1.00
C793   C     0.83342   0.24670   0.74981   0.00000  Uiso   1.00
C794   C     0.80901   0.14571   0.99235   0.00000  Uiso   1.00
C795   C     0.82120   0.13958   0.93646   0.00000  Uiso   1.00
C796   C     0.84621   0.14430   0.51513   0.00000  Uiso   1.00
C797   C     0.89173   0.12759   0.98564   0.00000  Uiso   1.00
C798   C     0.89911   0.11228   0.93378   0.00000  Uiso   1.00
C799   C     0.86375   0.11692   0.90963   0.00000  Uiso   1.00
C800   C     0.84000   0.16211   0.56512   0.00000  Uiso   1.00
C801   C     0.91945   0.14084   0.56176   0.00000  Uiso   1.00
C802   C     0.79014   0.15597   0.91015   0.00000  Uiso   1.00
C803   C     0.87730   0.31208   0.72914   0.00000  Uiso   1.00
C804   C     0.80701   0.16351   0.85190   0.00000  Uiso   1.00
C805   C     0.87731   0.02152   0.72842   0.00000  Uiso   1.00
C806   C     0.83358   0.04254   0.74763   0.00000  Uiso   1.00
C807   C     0.78984   0.02128   0.76670   0.00000  Uiso   1.00
C808   C     0.78984   0.31190   0.76736   0.00000  Uiso   1.00
C809   C     0.83358   0.29085   0.74890   0.00000  Uiso   1.00
C810   C     0.98437   0.13751   0.72153   0.00000  Uiso   1.00
C811   C     0.69892   0.13749   0.72170   0.00000  Uiso   1.00
C812   C     0.68233   0.19550   0.77914   0.00000  Uiso   1.00
C813   C     0.96729   0.19612   0.77880   0.00000  Uiso   1.00
C814   C     0.83351   0.08665   0.74906   0.00000  Uiso   1.00
C815   C     0.85970   0.16614   0.64777   0.00000  Uiso   1.00
C816   C     0.92830   0.12543   0.50932   0.00000  Uiso   1.00
C817   C     0.87482   0.15832   0.58988   0.00000  Uiso   1.00
C818   C     0.74372   0.16883   0.94069   0.00000  Uiso   1.00
C819   C     0.72815   0.16549   0.99657   0.00000  Uiso   1.00
C820   C     0.75989   0.15285   0.52290   0.00000  Uiso   1.00
H821   H     0.94680   0.13815   0.58079   0.00000  Uiso   1.00
H822   H     0.91120   0.03807   0.71313   0.00000  Uiso   1.00
H823   H     0.75591   0.03757   0.78202   0.00000  Uiso   1.00
H824   H     0.75590   0.29544   0.78293   0.00000  Uiso   1.00
H825   H     0.97280   0.11411   0.69886   0.00000  Uiso   1.00
H826   H     0.72374   0.11396   0.69961   0.00000  Uiso   1.00
H827   H     0.69430   0.21750   0.80313   0.00000  Uiso   1.00
H828   H     0.93197   0.09616   0.91185   0.00000  Uiso   1.00
H829   H     0.80752   0.17904   0.58575   0.00000  Uiso   1.00
H830   H     0.71914   0.18080   0.92131   0.00000  Uiso   1.00
H831   H     0.69120   0.17244   0.51962   0.00000  Uiso   1.00
H832   H     0.91117   0.29570   0.71403   0.00000  Uiso   1.00
N833   N     0.71426   0.16668   0.75002   0.00000  Uiso   1.00
N834   N     0.95239   0.16665   0.75001   0.00000  Uiso   1.00
O835   O     0.79512   0.22775   0.75001   0.00000  Uiso   1.00
O836   O     0.87157   0.22774   0.75001   0.00000  Uiso   1.00
O837   O     0.77613   0.16666   0.82681   0.00000  Uiso   1.00
O838   O     0.85258   0.16665   0.82681   0.00000  Uiso   1.00
O839   O     0.79510   0.10559   0.75000   0.00000  Uiso   1.00
O840   O     0.87154   0.10558   0.75000   0.00000  Uiso   1.00
O841   O     0.81409   0.16668   0.67319   0.00000  Uiso   1.00
O842   O     0.89053   0.16667   0.67319   0.00000  Uiso   1.00
Zn843  Zn    0.78229   0.16667   0.75000   0.00000  Uiso   1.00
Zn844  Zn    0.88438   0.16666   0.75000   0.00000  Uiso   1.00
O845   O     0.93339   0.22366   0.81031   0.00000  Uiso   1.00
C846   C     0.95157   0.26477   0.80569   0.00000  Uiso   1.00
H847   H     0.92079   0.28663   0.81829   0.00000  Uiso   1.00
H848   H     0.97340   0.27309   0.76338   0.00000  Uiso   1.00
H849   H     0.97252   0.26953   0.83345   0.00000  Uiso   1.00
O850   O     0.97322   0.11023   0.98026   0.00000  Uiso   1.00
C851   C     0.97839   0.07012   0.99983   0.00000  Uiso   1.00
H852   H     0.95008   0.04844   0.99625   0.00000  Uiso   1.00
H853   H     0.97809   0.07118   0.54234   0.00000  Uiso   1.00
H854   H     0.68032   0.05741   0.97489   0.00000  Uiso   1.00
O855   O     0.74077   0.14290   0.57719   0.00000  Uiso   1.00
C856   C     0.73933   0.09895   0.58253   0.00000  Uiso   1.00
H857   H     0.72853   0.08295   0.55059   0.00000  Uiso   1.00
H858   H     0.71202   0.09028   0.62150   0.00000  Uiso   1.00
H859   H     0.77463   0.08700   0.58261   0.00000  Uiso   1.00
O860   O     0.86942   0.09541   0.86243   0.00000  Uiso   1.00
C861   C     0.84411   0.05732   0.87602   0.00000  Uiso   1.00
H862   H     0.80496   0.06251   0.88547   0.00000  Uiso   1.00
H863   H     0.85109   0.04087   0.91026   0.00000  Uiso   1.00
H864   H     0.85649   0.03614   0.84097   0.00000  Uiso   1.00
C865   C     0.16675   0.58004   0.74981   0.00000  Uiso   1.00
C866   C     0.14234   0.47904   0.99235   0.00000  Uiso   1.00
C867   C     0.15453   0.47291   0.93646   0.00000  Uiso   1.00
C868   C     0.17955   0.47763   0.51513   0.00000  Uiso   1.00
C869   C     0.22506   0.46093   0.98564   0.00000  Uiso   1.00
C870   C     0.23245   0.44561   0.93378   0.00000  Uiso   1.00
C871   C     0.19709   0.45026   0.90963   0.00000  Uiso   1.00
C872   C     0.17333   0.49544   0.56512   0.00000  Uiso   1.00
C873   C     0.25278   0.47417   0.56176   0.00000  Uiso   1.00
C874   C     0.12347   0.48931   0.91015   0.00000  Uiso   1.00
C875   C     0.21063   0.64541   0.72914   0.00000  Uiso   1.00
C876   C     0.14035   0.49685   0.85190   0.00000  Uiso   1.00
C877   C     0.21064   0.35485   0.72842   0.00000  Uiso   1.00
C878   C     0.16691   0.37587   0.74763   0.00000  Uiso   1.00
C879   C     0.12317   0.35461   0.76670   0.00000  Uiso   1.00
C880   C     0.12317   0.64523   0.76736   0.00000  Uiso   1.00
C881   C     0.16691   0.62418   0.74890   0.00000  Uiso   1.00
C882   C     0.31770   0.47085   0.72153   0.00000  Uiso   1.00
C883   C     0.03226   0.47082   0.72170   0.00000  Uiso   1.00
C884   C     0.01566   0.52883   0.77914   0.00000  Uiso   1.00
C885   C     0.30062   0.52945   0.77880   0.00000  Uiso   1.00
C886   C     0.16685   0.41999   0.74906   0.00000  Uiso   1.00
C887   C     0.19303   0.49948   0.64777   0.00000  Uiso   1.00
C888   C     0.26163   0.45877   0.50932   0.00000  Uiso   1.00
C889   C     0.20816   0.49165   0.58988   0.00000  Uiso   1.00
C890   C     0.07705   0.50216   0.94069   0.00000  Uiso   1.00
C891   C     0.06148   0.49882   0.99657   0.00000  Uiso   1.00
C892   C     0.09322   0.48619   0.52290   0.00000  Uiso   1.00
H893   H     0.28013   0.47148   0.58079   0.00000  Uiso   1.00
H894   H     0.24454   0.37141   0.71313   0.00000  Uiso   1.00
H895   H     0.08924   0.37091   0.78202   0.00000  Uiso   1.00
H896   H     0.08923   0.62877   0.78293   0.00000  Uiso   1.00
H897   H     0.30614   0.44744   0.69886   0.00000  Uiso   1.00
H898   H     0.05708   0.44729   0.69961   0.00000  Uiso   1.00
H899   H     0.02763   0.55083   0.80313   0.00000  Uiso   1.00
H900   H     0.26531   0.42949   0.91185   0.00000  Uiso   1.00
H901   H     0.14085   0.51238   0.58575   0.00000  Uiso   1.00
H902   H     0.05247   0.51413   0.92131   0.00000  Uiso   1.00
H903   H     0.02453   0.50577   0.51962   0.00000  Uiso   1.00
H904   H     0.24451   0.62903   0.71403   0.00000  Uiso   1.00
N905   N     0.04760   0.50001   0.75002   0.00000  Uiso   1.00
N906   N     0.28573   0.49998   0.75001   0.00000  Uiso   1.00
O907   O     0.12846   0.56108   0.75001   0.00000  Uiso   1.00
O908   O     0.20490   0.56107   0.75001   0.00000  Uiso   1.00
O909   O     0.10947   0.50000   0.82681   0.00000  Uiso   1.00
O910   O     0.18591   0.49999   0.82681   0.00000  Uiso   1.00
O911   O     0.12843   0.43893   0.75000   0.00000  Uiso   1.00
O912   O     0.20488   0.43892   0.75000   0.00000  Uiso   1.00
O913   O     0.14742   0.50001   0.67319   0.00000  Uiso   1.00
O914   O     0.22387   0.50000   0.67319   0.00000  Uiso   1.00
Zn915  Zn    0.11562   0.50001   0.75000   0.00000  Uiso   1.00
Zn916  Zn    0.21771   0.49999   0.75000   0.00000  Uiso   1.00
O917   O     0.26672   0.55699   0.81031   0.00000  Uiso   1.00
C918   C     0.28490   0.59811   0.80569   0.00000  Uiso   1.00
H919   H     0.25413   0.61996   0.81829   0.00000  Uiso   1.00
H920   H     0.30674   0.60642   0.76338   0.00000  Uiso   1.00
H921   H     0.30586   0.60286   0.83345   0.00000  Uiso   1.00
O922   O     0.30655   0.44357   0.98026   0.00000  Uiso   1.00
C923   C     0.31173   0.40345   0.99983   0.00000  Uiso   1.00
H924   H     0.28341   0.38177   0.99625   0.00000  Uiso   1.00
H925   H     0.31143   0.40451   0.54234   0.00000  Uiso   1.00
H926   H     0.01365   0.39074   0.97489   0.00000  Uiso   1.00
O927   O     0.07411   0.47623   0.57719   0.00000  Uiso   1.00
C928   C     0.07266   0.43229   0.58253   0.00000  Uiso   1.00
H929   H     0.06186   0.41628   0.55059   0.00000  Uiso   1.00
H930   H     0.04535   0.42362   0.62150   0.00000  Uiso   1.00
H931   H     0.10796   0.42033   0.58261   0.00000  Uiso   1.00
O932   O     0.20275   0.42874   0.86243   0.00000  Uiso   1.00
C933   C     0.17745   0.39065   0.87602   0.00000  Uiso   1.00
H934   H     0.13829   0.39584   0.88547   0.00000  Uiso   1.00
H935   H     0.18442   0.37420   0.91026   0.00000  Uiso   1.00
H936   H     0.18982   0.36948   0.84097   0.00000  Uiso   1.00
C937   C     0.50009   0.58004   0.74981   0.00000  Uiso   1.00
C938   C     0.47567   0.47904   0.99235   0.00000  Uiso   1.00
C939   C     0.48787   0.47291   0.93646   0.00000  Uiso   1.00
C940   C     0.51288   0.47763   0.51513   0.00000  Uiso   1.00
C941   C     0.55840   0.46093   0.98564   0.00000  Uiso   1.00
C942   C     0.56578   0.44561   0.93378   0.00000  Uiso   1.00
C943   C     0.53042   0.45026   0.90963   0.00000  Uiso   1.00
C944   C     0.50667   0.49544   0.56512   0.00000  Uiso   1.00
C945   C     0.58612   0.47417   0.56176   0.00000  Uiso   1.00
C946   C     0.45681   0.48931   0.91015   0.00000  Uiso   1.00
C947   C     0.54397   0.64541   0.72914   0.00000  Uiso   1.00
C948   C     0.47368   0.49685   0.85190   0.00000  Uiso   1.00
C949   C     0.54398   0.35485   0.72842   0.00000  Uiso   1.00
C950   C     0.50025   0.37587   0.74763   0.00000  Uiso   1.00
C951   C     0.45650   0.35461   0.76670   0.00000  Uiso   1.00
C952   C     0.45650   0.64523   0.76736   0.00000  Uiso   1.00
C953   C     0.50024   0.62418   0.74890   0.00000  Uiso   1.00
C954   C     0.65103   0.47085   0.72153   0.00000  Uiso   1.00
C955   C     0.36559   0.47082   0.72170   0.00000  Uiso   1.00
C956   C     0.34899   0.52883   0.77914   0.00000  Uiso   1.00
C957   C     0.63396   0.52945   0.77880   0.00000  Uiso   1.00
C958   C     0.50018   0.41999   0.74906   0.00000  Uiso   1.00
C959   C     0.52636   0.49948   0.64777   0.00000  Uiso   1.00
C960   C     0.59497   0.45877   0.50932   0.00000  Uiso   1.00
C961   C     0.54149   0.49165   0.58988   0.00000  Uiso   1.00
C962   C     0.41038   0.50216   0.94069   0.00000  Uiso   1.00
C963   C     0.39482   0.49882   0.99657   0.00000  Uiso   1.00
C964   C     0.42655   0.48619   0.52290   0.00000  Uiso   1.00
H965   H     0.61346   0.47148   0.58079   0.00000  Uiso   1.00
H966   H     0.57787   0.37141   0.71313   0.00000  Uiso   1.00
H967   H     0.42258   0.37091   0.78202   0.00000  Uiso   1.00
H968   H     0.42256   0.62877   0.78293   0.00000  Uiso   1.00
H969   H     0.63947   0.44744   0.69886   0.00000  Uiso   1.00
H970   H     0.39041   0.44729   0.69961   0.00000  Uiso   1.00
H971   H     0.36096   0.55083   0.80313   0.00000  Uiso   1.00
H972   H     0.59864   0.42949   0.91185   0.00000  Uiso   1.00
H973   H     0.47418   0.51238   0.58575   0.00000  Uiso   1.00
H974   H     0.38580   0.51413   0.92131   0.00000  Uiso   1.00
H975   H     0.35786   0.50577   0.51962   0.00000  Uiso   1.00
H976   H     0.57784   0.62903   0.71403   0.00000  Uiso   1.00
N977   N     0.38093   0.50001   0.75002   0.00000  Uiso   1.00
N978   N     0.61906   0.49998   0.75001   0.00000  Uiso   1.00
O979   O     0.46179   0.56108   0.75001   0.00000  Uiso   1.00
O980   O     0.53823   0.56107   0.75001   0.00000  Uiso   1.00
O981   O     0.44280   0.50000   0.82681   0.00000  Uiso   1.00
O982   O     0.51924   0.49999   0.82681   0.00000  Uiso   1.00
O983   O     0.46177   0.43893   0.75000   0.00000  Uiso   1.00
O984   O     0.53821   0.43892   0.75000   0.00000  Uiso   1.00
O985   O     0.48076   0.50001   0.67319   0.00000  Uiso   1.00
O986   O     0.55720   0.50000   0.67319   0.00000  Uiso   1.00
Zn987  Zn    0.44896   0.50001   0.75000   0.00000  Uiso   1.00
Zn988  Zn    0.55104   0.49999   0.75000   0.00000  Uiso   1.00
O989   O     0.60006   0.55699   0.81031   0.00000  Uiso   1.00
C990   C     0.61824   0.59811   0.80569   0.00000  Uiso   1.00
H991   H     0.58746   0.61996   0.81829   0.00000  Uiso   1.00
H992   H     0.64007   0.60642   0.76338   0.00000  Uiso   1.00
H993   H     0.63919   0.60286   0.83345   0.00000  Uiso   1.00
O994   O     0.63989   0.44357   0.98026   0.00000  Uiso   1.00
C995   C     0.64506   0.40345   0.99983   0.00000  Uiso   1.00
H996   H     0.61675   0.38177   0.99625   0.00000  Uiso   1.00
H997   H     0.64476   0.40451   0.54234   0.00000  Uiso   1.00
H998   H     0.34699   0.39074   0.97489   0.00000  Uiso   1.00
O999   O     0.40744   0.47623   0.57719   0.00000  Uiso   1.00
C1000  C     0.40599   0.43229   0.58253   0.00000  Uiso   1.00
H1001  H     0.39519   0.41628   0.55059   0.00000  Uiso   1.00
H1002  H     0.37868   0.42362   0.62150   0.00000  Uiso   1.00
H1003  H     0.44130   0.42033   0.58261   0.00000  Uiso   1.00
O1004  O     0.53609   0.42874   0.86243   0.00000  Uiso   1.00
C1005  C     0.51078   0.39065   0.87602   0.00000  Uiso   1.00
H1006  H     0.47162   0.39584   0.88547   0.00000  Uiso   1.00
H1007  H     0.51775   0.37420   0.91026   0.00000  Uiso   1.00
H1008  H     0.52316   0.36948   0.84097   0.00000  Uiso   1.00
C1009  C     0.83342   0.58004   0.74981   0.00000  Uiso   1.00
C1010  C     0.80901   0.47904   0.99235   0.00000  Uiso   1.00
C1011  C     0.82120   0.47291   0.93646   0.00000  Uiso   1.00
C1012  C     0.84621   0.47763   0.51513   0.00000  Uiso   1.00
C1013  C     0.89173   0.46093   0.98564   0.00000  Uiso   1.00
C1014  C     0.89911   0.44561   0.93378   0.00000  Uiso   1.00
C1015  C     0.86375   0.45026   0.90963   0.00000  Uiso   1.00
C1016  C     0.84000   0.49544   0.56512   0.00000  Uiso   1.00
C1017  C     0.91945   0.47417   0.56176   0.00000  Uiso   1.00
C1018  C     0.79014   0.48931   0.91015   0.00000  Uiso   1.00
C1019  C     0.87730   0.64541   0.72914   0.00000  Uiso   1.00
C1020  C     0.80701   0.49685   0.85190   0.00000  Uiso   1.00
C1021  C     0.87731   0.35485   0.72842   0.00000  Uiso   1.00
C1022  C     0.83358   0.37587   0.74763   0.00000  Uiso   1.00
C1023  C     0.78984   0.35461   0.76670   0.00000  Uiso   1.00
C1024  C     0.78984   0.64523   0.76736   0.00000  Uiso   1.00
C1025  C     0.83358   0.62418   0.74890   0.00000  Uiso   1.00
C1026  C     0.98437   0.47085   0.72153   0.00000  Uiso   1.00
C1027  C     0.69892   0.47082   0.72170   0.00000  Uiso   1.00
C1028  C     0.68233   0.52883   0.77914   0.00000  Uiso   1.00
C1029  C     0.96729   0.52945   0.77880   0.00000  Uiso   1.00
C1030  C     0.83351   0.41999   0.74906   0.00000  Uiso   1.00
C1031  C     0.85970   0.49948   0.64777   0.00000  Uiso   1.00
C1032  C     0.92830   0.45877   0.50932   0.00000  Uiso   1.00
C1033  C     0.87482   0.49165   0.58988   0.00000  Uiso   1.00
C1034  C     0.74372   0.50216   0.94069   0.00000  Uiso   1.00
C1035  C     0.72815   0.49882   0.99657   0.00000  Uiso   1.00
C1036  C     0.75989   0.48619   0.52290   0.00000  Uiso   1.00
H1037  H     0.94680   0.47148   0.58079   0.00000  Uiso   1.00
H1038  H     0.91120   0.37141   0.71313   0.00000  Uiso   1.00
H1039  H     0.75591   0.37091   0.78202   0.00000  Uiso   1.00
H1040  H     0.75590   0.62877   0.78293   0.00000  Uiso   1.00
H1041  H     0.97280   0.44744   0.69886   0.00000  Uiso   1.00
H1042  H     0.72374   0.44729   0.69961   0.00000  Uiso   1.00
H1043  H     0.69430   0.55083   0.80313   0.00000  Uiso   1.00
H1044  H     0.93197   0.42949   0.91185   0.00000  Uiso   1.00
H1045  H     0.80752   0.51238   0.58575   0.00000  Uiso   1.00
H1046  H     0.71914   0.51413   0.92131   0.00000  Uiso   1.00
H1047  H     0.69120   0.50577   0.51962   0.00000  Uiso   1.00
H1048  H     0.91117   0.62903   0.71403   0.00000  Uiso   1.00
N1049  N     0.71426   0.50001   0.75002   0.00000  Uiso   1.00
N1050  N     0.95239   0.49998   0.75001   0.00000  Uiso   1.00
O1051  O     0.79512   0.56108   0.75001   0.00000  Uiso   1.00
O1052  O     0.87157   0.56107   0.75001   0.00000  Uiso   1.00
O1053  O     0.77613   0.50000   0.82681   0.00000  Uiso   1.00
O1054  O     0.85258   0.49999   0.82681   0.00000  Uiso   1.00
O1055  O     0.79510   0.43893   0.75000   0.00000  Uiso   1.00
O1056  O     0.87154   0.43892   0.75000   0.00000  Uiso   1.00
O1057  O     0.81409   0.50001   0.67319   0.00000  Uiso   1.00
O1058  O     0.89053   0.50000   0.67319   0.00000  Uiso   1.00
Zn1059 Zn    0.78229   0.50001   0.75000   0.00000  Uiso   1.00
Zn1060 Zn    0.88438   0.49999   0.75000   0.00000  Uiso   1.00
O1061  O     0.93339   0.55699   0.81031   0.00000  Uiso   1.00
C1062  C     0.95157   0.59811   0.80569   0.00000  Uiso   1.00
H1063  H     0.92079   0.61996   0.81829   0.00000  Uiso   1.00
H1064  H     0.97340   0.60642   0.76338   0.00000  Uiso   1.00
H1065  H     0.97252   0.60286   0.83345   0.00000  Uiso   1.00
O1066  O     0.97322   0.44357   0.98026   0.00000  Uiso   1.00
C1067  C     0.97839   0.40345   0.99983   0.00000  Uiso   1.00
H1068  H     0.95008   0.38177   0.99625   0.00000  Uiso   1.00
H1069  H     0.97809   0.40451   0.54234   0.00000  Uiso   1.00
H1070  H     0.68032   0.39074   0.97489   0.00000  Uiso   1.00
O1071  O     0.74077   0.47623   0.57719   0.00000  Uiso   1.00
C1072  C     0.73933   0.43229   0.58253   0.00000  Uiso   1.00
H1073  H     0.72853   0.41628   0.55059   0.00000  Uiso   1.00
H1074  H     0.71202   0.42362   0.62150   0.00000  Uiso   1.00
H1075  H     0.77463   0.42033   0.58261   0.00000  Uiso   1.00
O1076  O     0.86942   0.42874   0.86243   0.00000  Uiso   1.00
C1077  C     0.84411   0.39065   0.87602   0.00000  Uiso   1.00
H1078  H     0.80496   0.39584   0.88547   0.00000  Uiso   1.00
H1079  H     0.85109   0.37420   0.91026   0.00000  Uiso   1.00
H1080  H     0.85649   0.36948   0.84097   0.00000  Uiso   1.00
C1081  C     0.16675   0.91337   0.74981   0.00000  Uiso   1.00
C1082  C     0.14234   0.81238   0.99235   0.00000  Uiso   1.00
C1083  C     0.15453   0.80624   0.93646   0.00000  Uiso   1.00
C1084  C     0.17955   0.81097   0.51513   0.00000  Uiso   1.00
C1085  C     0.22506   0.79426   0.98564   0.00000  Uiso   1.00
C1086  C     0.23245   0.77894   0.93378   0.00000  Uiso   1.00
C1087  C     0.19709   0.78359   0.90963   0.00000  Uiso   1.00
C1088  C     0.17333   0.82878   0.56512   0.00000  Uiso   1.00
C1089  C     0.25278   0.80751   0.56176   0.00000  Uiso   1.00
C1090  C     0.12347   0.82264   0.91015   0.00000  Uiso   1.00
C1091  C     0.21063   0.97875   0.72914   0.00000  Uiso   1.00
C1092  C     0.14035   0.83018   0.85190   0.00000  Uiso   1.00
C1093  C     0.21064   0.68819   0.72842   0.00000  Uiso   1.00
C1094  C     0.16691   0.70921   0.74763   0.00000  Uiso   1.00
C1095  C     0.12317   0.68794   0.76670   0.00000  Uiso   1.00
C1096  C     0.12317   0.97857   0.76736   0.00000  Uiso   1.00
C1097  C     0.16691   0.95751   0.74890   0.00000  Uiso   1.00
C1098  C     0.31770   0.80418   0.72153   0.00000  Uiso   1.00
C1099  C     0.03226   0.80416   0.72170   0.00000  Uiso   1.00
C1100  C     0.01566   0.86217   0.77914   0.00000  Uiso   1.00
C1101  C     0.30062   0.86278   0.77880   0.00000  Uiso   1.00
C1102  C     0.16685   0.75332   0.74906   0.00000  Uiso   1.00
C1103  C     0.19303   0.83281   0.64777   0.00000  Uiso   1.00
C1104  C     0.26163   0.79210   0.50932   0.00000  Uiso   1.00
C1105  C     0.20816   0.82498   0.58988   0.00000  Uiso   1.00
C1106  C     0.07705   0.83549   0.94069   0.00000  Uiso   1.00
C1107  C     0.06148   0.83215   0.99657   0.00000  Uiso   1.00
C1108  C     0.09322   0.81952   0.52290   0.00000  Uiso   1.00
H1109  H     0.28013   0.80481   0.58079   0.00000  Uiso   1.00
H1110  H     0.24454   0.70474   0.71313   0.00000  Uiso   1.00
H1111  H     0.08924   0.70424   0.78202   0.00000  Uiso   1.00
H1112  H     0.08923   0.96210   0.78293   0.00000  Uiso   1.00
H1113  H     0.30614   0.78077   0.69886   0.00000  Uiso   1.00
H1114  H     0.05708   0.78063   0.69961   0.00000  Uiso   1.00
H1115  H     0.02763   0.88416   0.80313   0.00000  Uiso   1.00
H1116  H     0.26531   0.76283   0.91185   0.00000  Uiso   1.00
H1117  H     0.14085   0.84571   0.58575   0.00000  Uiso   1.00
H1118  H     0.05247   0.84747   0.92131   0.00000  Uiso   1.00
H1119  H     0.02453   0.83910   0.51962   0.00000  Uiso   1.00
H1120  H     0.24451   0.96237   0.71403   0.00000  Uiso   1.00
N1121  N     0.04760   0.83334   0.75002   0.00000  Uiso   1.00
N1122  N     0.28573   0.83331   0.75001   0.00000  Uiso   1.00
O1123  O     0.12846   0.89442   0.75001   0.00000  Uiso   1.00
O1124  O     0.20490   0.89441   0.75001   0.00000  Uiso   1.00
O1125  O     0.10947   0.83333   0.82681   0.00000  Uiso   1.00
O1126  O     0.18591   0.83332   0.82681   0.00000  Uiso   1.00
O1127  O     0.12843   0.77226   0.75000   0.00000  Uiso   1.00
O1128  O     0.20488   0.77225   0.75000   0.00000  Uiso   1.00
O1129  O     0.14742   0.83335   0.67319   0.00000  Uiso   1.00
O1130  O     0.22387   0.83334   0.67319   0.00000  Uiso   1.00
Zn1131 Zn    0.11562   0.83334   0.75000   0.00000  Uiso   1.00
Zn1132 Zn    0.21771   0.83333   0.75000   0.00000  Uiso   1.00
O1133  O     0.26672   0.89033   0.81031   0.00000  Uiso   1.00
C1134  C     0.28490   0.93144   0.80569   0.00000  Uiso   1.00
H1135  H     0.25413   0.95330   0.81829   0.00000  Uiso   1.00
H1136  H     0.30674   0.93976   0.76338   0.00000  Uiso   1.00
H1137  H     0.30586   0.93620   0.83345   0.00000  Uiso   1.00
O1138  O     0.30655   0.77690   0.98026   0.00000  Uiso   1.00
C1139  C     0.31173   0.73679   0.99983   0.00000  Uiso   1.00
H1140  H     0.28341   0.71511   0.99625   0.00000  Uiso   1.00
H1141  H     0.31143   0.73784   0.54234   0.00000  Uiso   1.00
H1142  H     0.01365   0.72408   0.97489   0.00000  Uiso   1.00
O1143  O     0.07411   0.80956   0.57719   0.00000  Uiso   1.00
C1144  C     0.07266   0.76562   0.58253   0.00000  Uiso   1.00
H1145  H     0.06186   0.74962   0.55059   0.00000  Uiso   1.00
H1146  H     0.04535   0.75695   0.62150   0.00000  Uiso   1.00
H1147  H     0.10796   0.75367   0.58261   0.00000  Uiso   1.00
O1148  O     0.20275   0.76207   0.86243   0.00000  Uiso   1.00
C1149  C     0.17745   0.72399   0.87602   0.00000  Uiso   1.00
H1150  H     0.13829   0.72917   0.88547   0.00000  Uiso   1.00
H1151  H     0.18442   0.70753   0.91026   0.00000  Uiso   1.00
H1152  H     0.18982   0.70281   0.84097   0.00000  Uiso   1.00
C1153  C     0.50009   0.91337   0.74981   0.00000  Uiso   1.00
C1154  C     0.47567   0.81238   0.99235   0.00000  Uiso   1.00
C1155  C     0.48787   0.80624   0.93646   0.00000  Uiso   1.00
C1156  C     0.51288   0.81097   0.51513   0.00000  Uiso   1.00
C1157  C     0.55840   0.79426   0.98564   0.00000  Uiso   1.00
C1158  C     0.56578   0.77894   0.93378   0.00000  Uiso   1.00
C1159  C     0.53042   0.78359   0.90963   0.00000  Uiso   1.00
C1160  C     0.50667   0.82878   0.56512   0.00000  Uiso   1.00
C1161  C     0.58612   0.80751   0.56176   0.00000  Uiso   1.00
C1162  C     0.45681   0.82264   0.91015   0.00000  Uiso   1.00
C1163  C     0.54397   0.97875   0.72914   0.00000  Uiso   1.00
C1164  C     0.47368   0.83018   0.85190   0.00000  Uiso   1.00
C1165  C     0.54398   0.68819   0.72842   0.00000  Uiso   1.00
C1166  C     0.50025   0.70921   0.74763   0.00000  Uiso   1.00
C1167  C     0.45650   0.68794   0.76670   0.00000  Uiso   1.00
C1168  C     0.45650   0.97857   0.76736   0.00000  Uiso   1.00
C1169  C     0.50024   0.95751   0.74890   0.00000  Uiso   1.00
C1170  C     0.65103   0.80418   0.72153   0.00000  Uiso   1.00
C1171  C     0.36559   0.80416   0.72170   0.00000  Uiso   1.00
C1172  C     0.34899   0.86217   0.77914   0.00000  Uiso   1.00
C1173  C     0.63396   0.86278   0.77880   0.00000  Uiso   1.00
C1174  C     0.50018   0.75332   0.74906   0.00000  Uiso   1.00
C1175  C     0.52636   0.83281   0.64777   0.00000  Uiso   1.00
C1176  C     0.59497   0.79210   0.50932   0.00000  Uiso   1.00
C1177  C     0.54149   0.82498   0.58988   0.00000  Uiso   1.00
C1178  C     0.41038   0.83549   0.94069   0.00000  Uiso   1.00
C1179  C     0.39482   0.83215   0.99657   0.00000  Uiso   1.00
C1180  C     0.42655   0.81952   0.52290   0.00000  Uiso   1.00
H1181  H     0.61346   0.80481   0.58079   0.00000  Uiso   1.00
H1182  H     0.57787   0.70474   0.71313   0.00000  Uiso   1.00
H1183  H     0.42258   0.70424   0.78202   0.00000  Uiso   1.00
H1184  H     0.42256   0.96210   0.78293   0.00000  Uiso   1.00
H1185  H     0.63947   0.78077   0.69886   0.00000  Uiso   1.00
H1186  H     0.39041   0.78063   0.69961   0.00000  Uiso   1.00
H1187  H     0.36096   0.88416   0.80313   0.00000  Uiso   1.00
H1188  H     0.59864   0.76283   0.91185   0.00000  Uiso   1.00
H1189  H     0.47418   0.84571   0.58575   0.00000  Uiso   1.00
H1190  H     0.38580   0.84747   0.92131   0.00000  Uiso   1.00
H1191  H     0.35786   0.83910   0.51962   0.00000  Uiso   1.00
H1192  H     0.57784   0.96237   0.71403   0.00000  Uiso   1.00
N1193  N     0.38093   0.83334   0.75002   0.00000  Uiso   1.00
N1194  N     0.61906   0.83331   0.75001   0.00000  Uiso   1.00
O1195  O     0.46179   0.89442   0.75001   0.00000  Uiso   1.00
O1196  O     0.53823   0.89441   0.75001   0.00000  Uiso   1.00
O1197  O     0.44280   0.83333   0.82681   0.00000  Uiso   1.00
O1198  O     0.51924   0.83332   0.82681   0.00000  Uiso   1.00
O1199  O     0.46177   0.77226   0.75000   0.00000  Uiso   1.00
O1200  O     0.53821   0.77225   0.75000   0.00000  Uiso   1.00
O1201  O     0.48076   0.83335   0.67319   0.00000  Uiso   1.00
O1202  O     0.55720   0.83334   0.67319   0.00000  Uiso   1.00
Zn1203 Zn    0.44896   0.83334   0.75000   0.00000  Uiso   1.00
Zn1204 Zn    0.55104   0.83333   0.75000   0.00000  Uiso   1.00
O1205  O     0.60006   0.89033   0.81031   0.00000  Uiso   1.00
C1206  C     0.61824   0.93144   0.80569   0.00000  Uiso   1.00
H1207  H     0.58746   0.95330   0.81829   0.00000  Uiso   1.00
H1208  H     0.64007   0.93976   0.76338   0.00000  Uiso   1.00
H1209  H     0.63919   0.93620   0.83345   0.00000  Uiso   1.00
O1210  O     0.63989   0.77690   0.98026   0.00000  Uiso   1.00
C1211  C     0.64506   0.73679   0.99983   0.00000  Uiso   1.00
H1212  H     0.61675   0.71511   0.99625   0.00000  Uiso   1.00
H1213  H     0.64476   0.73784   0.54234   0.00000  Uiso   1.00
H1214  H     0.34699   0.72408   0.97489   0.00000  Uiso   1.00
O1215  O     0.40744   0.80956   0.57719   0.00000  Uiso   1.00
C1216  C     0.40599   0.76562   0.58253   0.00000  Uiso   1.00
H1217  H     0.39519   0.74962   0.55059   0.00000  Uiso   1.00
H1218  H     0.37868   0.75695   0.62150   0.00000  Uiso   1.00
H1219  H     0.44130   0.75367   0.58261   0.00000  Uiso   1.00
O1220  O     0.53609   0.76207   0.86243   0.00000  Uiso   1.00
C1221  C     0.51078   0.72399   0.87602   0.00000  Uiso   1.00
H1222  H     0.47162   0.72917   0.88547   0.00000  Uiso   1.00
H1223  H     0.51775   0.70753   0.91026   0.00000  Uiso   1.00
H1224  H     0.52316   0.70281   0.84097   0.00000  Uiso   1.00
C1225  C     0.83342   0.91337   0.74981   0.00000  Uiso   1.00
C1226  C     0.80901   0.81238   0.99235   0.00000  Uiso   1.00
C1227  C     0.82120   0.80624   0.93646   0.00000  Uiso   1.00
C1228  C     0.84621   0.81097   0.51513   0.00000  Uiso   1.00
C1229  C     0.89173   0.79426   0.98564   0.00000  Uiso   1.00
C1230  C     0.89911   0.77894   0.93378   0.00000  Uiso   1.00
C1231  C     0.86375   0.78359   0.90963   0.00000  Uiso   1.00
C1232  C     0.84000   0.82878   0.56512   0.00000  Uiso   1.00
C1233  C     0.91945   0.80751   0.56176   0.00000  Uiso   1.00
C1234  C     0.79014   0.82264   0.91015   0.00000  Uiso   1.00
C1235  C     0.87730   0.97875   0.72914   0.00000  Uiso   1.00
C1236  C     0.80701   0.83018   0.85190   0.00000  Uiso   1.00
C1237  C     0.87731   0.68819   0.72842   0.00000  Uiso   1.00
C1238  C     0.83358   0.70921   0.74763   0.00000  Uiso   1.00
C1239  C     0.78984   0.68794   0.76670   0.00000  Uiso   1.00
C1240  C     0.78984   0.97857   0.76736   0.00000  Uiso   1.00
C1241  C     0.83358   0.95751   0.74890   0.00000  Uiso   1.00
C1242  C     0.98437   0.80418   0.72153   0.00000  Uiso   1.00
C1243  C     0.69892   0.80416   0.72170   0.00000  Uiso   1.00
C1244  C     0.68233   0.86217   0.77914   0.00000  Uiso   1.00
C1245  C     0.96729   0.86278   0.77880   0.00000  Uiso   1.00
C1246  C     0.83351   0.75332   0.74906   0.00000  Uiso   1.00
C1247  C     0.85970   0.83281   0.64777   0.00000  Uiso   1.00
C1248  C     0.92830   0.79210   0.50932   0.00000  Uiso   1.00
C1249  C     0.87482   0.82498   0.58988   0.00000  Uiso   1.00
C1250  C     0.74372   0.83549   0.94069   0.00000  Uiso   1.00
C1251  C     0.72815   0.83215   0.99657   0.00000  Uiso   1.00
C1252  C     0.75989   0.81952   0.52290   0.00000  Uiso   1.00
H1253  H     0.94680   0.80481   0.58079   0.00000  Uiso   1.00
H1254  H     0.91120   0.70474   0.71313   0.00000  Uiso   1.00
H1255  H     0.75591   0.70424   0.78202   0.00000  Uiso   1.00
H1256  H     0.75590   0.96210   0.78293   0.00000  Uiso   1.00
H1257  H     0.97280   0.78077   0.69886   0.00000  Uiso   1.00
H1258  H     0.72374   0.78063   0.69961   0.00000  Uiso   1.00
H1259  H     0.69430   0.88416   0.80313   0.00000  Uiso   1.00
H1260  H     0.93197   0.76283   0.91185   0.00000  Uiso   1.00
H1261  H     0.80752   0.84571   0.58575   0.00000  Uiso   1.00
H1262  H     0.71914   0.84747   0.92131   0.00000  Uiso   1.00
H1263  H     0.69120   0.83910   0.51962   0.00000  Uiso   1.00
H1264  H     0.91117   0.96237   0.71403   0.00000  Uiso   1.00
N1265  N     0.71426   0.83334   0.75002   0.00000  Uiso   1.00
N1266  N     0.95239   0.83331   0.75001   0.00000  Uiso   1.00
O1267  O     0.79512   0.89442   0.75001   0.00000  Uiso   1.00
O1268  O     0.87157   0.89441   0.75001   0.00000  Uiso   1.00
O1269  O     0.77613   0.83333   0.82681   0.00000  Uiso   1.00
O1270  O     0.85258   0.83332   0.82681   0.00000  Uiso   1.00
O1271  O     0.79510   0.77226   0.75000   0.00000  Uiso   1.00
O1272  O     0.87154   0.77225   0.75000   0.00000  Uiso   1.00
O1273  O     0.81409   0.83335   0.67319   0.00000  Uiso   1.00
O1274  O     0.89053   0.83334   0.67319   0.00000  Uiso   1.00
Zn1275 Zn    0.78229   0.83334   0.75000   0.00000  Uiso   1.00
Zn1276 Zn    0.88438   0.83333   0.75000   0.00000  Uiso   1.00
O1277  O     0.93339   0.89033   0.81031   0.00000  Uiso   1.00
C1278  C     0.95157   0.93144   0.80569   0.00000  Uiso   1.00
H1279  H     0.92079   0.95330   0.81829   0.00000  Uiso   1.00
H1280  H     0.97340   0.93976   0.76338   0.00000  Uiso   1.00
H1281  H     0.97252   0.93620   0.83345   0.00000  Uiso   1.00
O1282  O     0.97322   0.77690   0.98026   0.00000  Uiso   1.00
C1283  C     0.97839   0.73679   0.99983   0.00000  Uiso   1.00
H1284  H     0.95008   0.71511   0.99625   0.00000  Uiso   1.00
H1285  H     0.97809   0.73784   0.54234   0.00000  Uiso   1.00
H1286  H     0.68032   0.72408   0.97489   0.00000  Uiso   1.00
O1287  O     0.74077   0.80956   0.57719   0.00000  Uiso   1.00
C1288  C     0.73933   0.76562   0.58253   0.00000  Uiso   1.00
H1289  H     0.72853   0.74962   0.55059   0.00000  Uiso   1.00
H1290  H     0.71202   0.75695   0.62150   0.00000  Uiso   1.00
H1291  H     0.77463   0.75367   0.58261   0.00000  Uiso   1.00
O1292  O     0.86942   0.76207   0.86243   0.00000  Uiso   1.00
C1293  C     0.84411   0.72399   0.87602   0.00000  Uiso   1.00
H1294  H     0.80496   0.72917   0.88547   0.00000  Uiso   1.00
H1295  H     0.85109   0.70753   0.91026   0.00000  Uiso   1.00
H1296  H     0.85649   0.70281   0.84097   0.00000  Uiso   1.00
loop_
_geom_bond_atom_site_label_1
_geom_bond_atom_site_label_2
_geom_bond_distance
_geom_bond_site_symmetry_2
_ccdc_geom_bond_type
C1     O44     1.282   .     A
C1     C17     1.415   .     S
C1     O43     1.281   .     A
C2     C3      1.404   .     A
C2     C652    1.413   .     S
C2     C676    1.425   .     S
C3     C10     1.417   .     A
C3     C7      1.423   .     A
C4     C8      1.388   .     A
C4     C650    1.413   1_554 S
C4     C653    1.418   1_554 S
C5     C6      1.396   .     A
C5     C652    1.418   .     S
C5     C672    1.413   .     S
C6     C7      1.395   .     A
C6     H36     1.084   .     S
C7     O68     1.381   .     S
C8     C25     1.390   .     A
C8     H37     1.081   .     S
C9     C24     1.404   .     A
C9     H29     1.083   .     S
C9     C25     1.399   .     A
C10    C26     1.403   .     A
C10    C12     1.461   .     S
C11    H40     1.084   .     S
C11    C17     1.396   .     A
C11    C229    1.371   .     S
C12    O46     1.291   .     A
C12    O45     1.292   .     A
C13    C14     1.396   .     A
C13    H30     1.084   .     S
C13    C443    1.371   1_545 S
C14    C15     1.396   .     A
C14    C22     1.415   .     S
C15    H31     1.084   .     S
C15    C448    1.369   1_545 S
C16    H32     1.084   .     S
C16    C17     1.396   .     A
C16    C231    1.369   .     S
C18    N42     1.365   .     A
C18    H33     1.082   .     S
C18    C91     1.415   .     S
C19    N41     1.363   .     A
C19    H34     1.080   .     S
C19    C162    1.415   1_455 S
C20    N41     1.364   .     A
C20    H35     1.081   .     S
C20    C165    1.430   1_455 S
C21    O53     1.388   .     S
C21    N42     1.371   .     A
C21    C92     1.430   .     S
C22    O48     1.282   .     A
C22    O47     1.280   .     A
C23    C25     1.457   .     S
C23    O49     1.290   .     A
C23    O50     1.293   .     A
C24    C653    1.413   1_554 S
C24    O706    1.384   1_554 S
C26    H38     1.083   .     S
C26    C27     1.387   .     A
C27    C676    1.394   .     S
C27    H687    1.082   .     S
C28    O63     1.383   .     S
C28    C675    1.394   1_554 S
C28    C650    1.425   1_554 S
H39    C675    1.082   1_554 S
N41    Zn51    2.007   .     S
N42    Zn52    2.007   .     S
O43    Zn51    1.994   .     S
O44    Zn52    1.995   .     S
O45    Zn51    1.961   .     S
O46    Zn52    1.921   .     S
O47    Zn51    1.995   .     S
O48    Zn52    1.994   .     S
O49    Zn51    1.921   .     S
O50    Zn52    1.961   .     S
O53    C54     1.412   .     S
C54    H56     1.115   .     S
C54    H57     1.110   .     S
C54    H55     1.110   .     S
O58    C59     1.410   .     S
O58    C672    1.384   .     S
C59    H60     1.114   .     S
C59    H709    1.112   .     S
C59    H134    1.109   .     S
H61    C707    1.112   1_554 S
H62    C203    1.109   1_455 S
O63    C64     1.414   .     S
C64    H65     1.116   .     S
C64    H67     1.111   .     S
C64    H66     1.106   .     S
O68    C69     1.412   .     S
C69    H72     1.106   .     S
C69    H70     1.112   .     S
C69    H71     1.115   .     S
C73    O116    1.282   .     A
C73    C89     1.415   .     S
C73    O115    1.281   .     A
C74    C75     1.404   .     A
C74    C724    1.413   .     S
C74    C748    1.425   .     S
C75    C82     1.417   .     A
C75    C79     1.423   .     A
C76    C80     1.388   .     A
C76    C722    1.413   1_554 S
C76    C725    1.418   1_554 S
C77    C78     1.396   .     A
C77    C724    1.418   .     S
C77    C744    1.413   .     S
C78    C79     1.395   .     A
C78    H108    1.084   .     S
C79    O140    1.381   .     S
C80    C97     1.390   .     A
C80    H109    1.081   .     S
C81    C96     1.404   .     A
C81    H101    1.083   .     S
C81    C97     1.399   .     A
C82    C98     1.403   .     A
C82    C84     1.461   .     S
C83    H112    1.084   .     S
C83    C89     1.396   .     A
C83    C301    1.371   .     S
C84    O118    1.291   .     A
C84    O117    1.292   .     A
C85    C86     1.396   .     A
C85    H102    1.084   .     S
C85    C515    1.371   1_545 S
C86    C87     1.396   .     A
C86    C94     1.415   .     S
C87    H103    1.084   .     S
C87    C520    1.369   1_545 S
C88    H104    1.084   .     S
C88    C89     1.396   .     A
C88    C303    1.369   .     S
C90    N114    1.365   .     A
C90    H105    1.082   .     S
C90    C163    1.415   .     S
C91    N113    1.363   .     A
C91    H106    1.080   .     S
C92    N113    1.364   .     A
C92    H107    1.081   .     S
C93    O125    1.388   .     S
C93    N114    1.371   .     A
C93    C164    1.430   .     S
C94    O120    1.282   .     A
C94    O119    1.280   .     A
C95    C97     1.457   .     S
C95    O121    1.290   .     A
C95    O122    1.293   .     A
C96    C725    1.413   1_554 S
C96    O778    1.384   1_554 S
C98    H110    1.083   .     S
C98    C99     1.387   .     A
C99    C748    1.394   .     S
C99    H759    1.082   .     S
C100   O135    1.383   .     S
C100   C747    1.394   1_554 S
C100   C722    1.425   1_554 S
H111   C747    1.082   1_554 S
N113   Zn123   2.007   .     S
N114   Zn124   2.007   .     S
O115   Zn123   1.994   .     S
O116   Zn124   1.995   .     S
O117   Zn123   1.961   .     S
O118   Zn124   1.921   .     S
O119   Zn123   1.995   .     S
O120   Zn124   1.994   .     S
O121   Zn123   1.921   .     S
O122   Zn124   1.961   .     S
O125   C126    1.412   .     S
C126   H128    1.115   .     S
C126   H129    1.110   .     S
C126   H127    1.110   .     S
O130   C131    1.410   .     S
O130   C744    1.384   .     S
C131   H132    1.114   .     S
C131   H781    1.112   .     S
C131   H206    1.109   .     S
H133   C779    1.112   1_554 S
O135   C136    1.414   .     S
C136   H137    1.116   .     S
C136   H139    1.111   .     S
C136   H138    1.106   .     S
O140   C141    1.412   .     S
C141   H144    1.106   .     S
C141   H142    1.112   .     S
C141   H143    1.115   .     S
C145   O188    1.282   .     A
C145   C161    1.415   .     S
C145   O187    1.281   .     A
C146   C147    1.404   .     A
C146   C796    1.413   .     S
C146   C820    1.425   .     S
C147   C154    1.417   .     A
C147   C151    1.423   .     A
C148   C152    1.388   .     A
C148   C794    1.413   1_554 S
C148   C797    1.418   1_554 S
C149   C150    1.396   .     A
C149   C796    1.418   .     S
C149   C816    1.413   .     S
C150   C151    1.395   .     A
C150   H180    1.084   .     S
C151   O212    1.381   .     S
C152   C169    1.390   .     A
C152   H181    1.081   .     S
C153   C168    1.404   .     A
C153   H173    1.083   .     S
C153   C169    1.399   .     A
C154   C170    1.403   .     A
C154   C156    1.461   .     S
C155   H184    1.084   .     S
C155   C161    1.396   .     A
C155   C373    1.371   .     S
C156   O190    1.291   .     A
C156   O189    1.292   .     A
C157   C158    1.396   .     A
C157   H174    1.084   .     S
C157   C587    1.371   1_545 S
C158   C159    1.396   .     A
C158   C166    1.415   .     S
C159   H175    1.084   .     S
C159   C592    1.369   1_545 S
C160   H176    1.084   .     S
C160   C161    1.396   .     A
C160   C375    1.369   .     S
C162   N186    1.365   .     A
C162   H177    1.082   .     S
C162   C19     1.415   1_655 S
C163   N185    1.363   .     A
C163   H178    1.080   .     S
C164   N185    1.364   .     A
C164   H179    1.081   .     S
C165   O197    1.388   .     S
C165   N186    1.371   .     A
C165   C20     1.430   1_655 S
C166   O192    1.282   .     A
C166   O191    1.280   .     A
C167   C169    1.457   .     S
C167   O193    1.290   .     A
C167   O194    1.293   .     A
C168   C797    1.413   1_554 S
C168   O850    1.384   1_554 S
C170   H182    1.083   .     S
C170   C171    1.387   .     A
C171   C820    1.394   .     S
C171   H831    1.082   .     S
C172   O207    1.383   .     S
C172   C819    1.394   1_554 S
C172   C794    1.425   1_554 S
H183   C819    1.082   1_554 S
N185   Zn195   2.007   .     S
N186   Zn196   2.007   .     S
O187   Zn195   1.994   .     S
O188   Zn196   1.995   .     S
O189   Zn195   1.961   .     S
O190   Zn196   1.921   .     S
O191   Zn195   1.995   .     S
O192   Zn196   1.994   .     S
O193   Zn195   1.921   .     S
O194   Zn196   1.961   .     S
O197   C198    1.412   .     S
C198   H200    1.115   .     S
C198   H201    1.110   .     S
C198   H199    1.110   .     S
O202   C203    1.410   .     S
O202   C816    1.384   .     S
C203   H204    1.114   .     S
C203   H853    1.112   .     S
C203   H62     1.109   1_655 S
H205   C851    1.112   1_554 S
O207   C208    1.414   .     S
C208   H209    1.116   .     S
C208   H211    1.111   .     S
C208   H210    1.106   .     S
O212   C213    1.412   .     S
C213   H216    1.106   .     S
C213   H214    1.112   .     S
C213   H215    1.115   .     S
C217   O260    1.282   .     A
C217   C233    1.415   .     S
C217   O259    1.281   .     A
C218   C219    1.404   .     A
C218   C868    1.413   .     S
C218   C892    1.425   .     S
C219   C226    1.417   .     A
C219   C223    1.423   .     A
C220   C224    1.388   .     A
C220   C866    1.413   1_554 S
C220   C869    1.418   1_554 S
C221   C222    1.396   .     A
C221   C868    1.418   .     S
C221   C888    1.413   .     S
C222   C223    1.395   .     A
C222   H252    1.084   .     S
C223   O284    1.381   .     S
C224   C241    1.390   .     A
C224   H253    1.081   .     S
C225   C240    1.404   .     A
C225   H245    1.083   .     S
C225   C241    1.399   .     A
C226   C242    1.403   .     A
C226   C228    1.461   .     S
C227   H256    1.084   .     S
C227   C233    1.396   .     A
C227   C445    1.371   .     S
C228   O262    1.291   .     A
C228   O261    1.292   .     A
C229   C230    1.396   .     A
C229   H246    1.084   .     S
C230   C231    1.396   .     A
C230   C238    1.415   .     S
C231   H247    1.084   .     S
C232   H248    1.084   .     S
C232   C233    1.396   .     A
C232   C447    1.369   .     S
C234   N258    1.365   .     A
C234   H249    1.082   .     S
C234   C307    1.415   .     S
C235   N257    1.363   .     A
C235   H250    1.080   .     S
C235   C378    1.415   1_455 S
C236   N257    1.364   .     A
C236   H251    1.081   .     S
C236   C381    1.430   1_455 S
C237   O269    1.388   .     S
C237   N258    1.371   .     A
C237   C308    1.430   .     S
C238   O264    1.282   .     A
C238   O263    1.280   .     A
C239   C241    1.457   .     S
C239   O265    1.290   .     A
C239   O266    1.293   .     A
C240   C869    1.413   1_554 S
C240   O922    1.384   1_554 S
C242   H254    1.083   .     S
C242   C243    1.387   .     A
C243   C892    1.394   .     S
C243   H903    1.082   .     S
C244   O279    1.383   .     S
C244   C891    1.394   1_554 S
C244   C866    1.425   1_554 S
H255   C891    1.082   1_554 S
N257   Zn267   2.007   .     S
N258   Zn268   2.007   .     S
O259   Zn267   1.994   .     S
O260   Zn268   1.995   .     S
O261   Zn267   1.961   .     S
O262   Zn268   1.921   .     S
O263   Zn267   1.995   .     S
O264   Zn268   1.994   .     S
O265   Zn267   1.921   .     S
O266   Zn268   1.961   .     S
O269   C270    1.412   .     S
C270   H272    1.115   .     S
C270   H273    1.110   .     S
C270   H271    1.110   .     S
O274   C275    1.410   .     S
O274   C888    1.384   .     S
C275   H276    1.114   .     S
C275   H925    1.112   .     S
C275   H350    1.109   .     S
H277   C923    1.112   1_554 S
H278   C419    1.109   1_455 S
O279   C280    1.414   .     S
C280   H281    1.116   .     S
C280   H283    1.111   .     S
C280   H282    1.106   .     S
O284   C285    1.412   .     S
C285   H288    1.106   .     S
C285   H286    1.112   .     S
C285   H287    1.115   .     S
C289   O332    1.282   .     A
C289   C305    1.415   .     S
C289   O331    1.281   .     A
C290   C291    1.404   .     A
C290   C940    1.413   .     S
C290   C964    1.425   .     S
C291   C298    1.417   .     A
C291   C295    1.423   .     A
C292   C296    1.388   .     A
C292   C938    1.413   1_554 S
C292   C941    1.418   1_554 S
C293   C294    1.396   .     A
C293   C940    1.418   .     S
C293   C960    1.413   .     S
C294   C295    1.395   .     A
C294   H324    1.084   .     S
C295   O356    1.381   .     S
C296   C313    1.390   .     A
C296   H325    1.081   .     S
C297   C312    1.404   .     A
C297   H317    1.083   .     S
C297   C313    1.399   .     A
C298   C314    1.403   .     A
C298   C300    1.461   .     S
C299   H328    1.084   .     S
C299   C305    1.396   .     A
C299   C517    1.371   .     S
C300   O334    1.291   .     A
C300   O333    1.292   .     A
C301   C302    1.396   .     A
C301   H318    1.084   .     S
C302   C303    1.396   .     A
C302   C310    1.415   .     S
C303   H319    1.084   .     S
C304   H320    1.084   .     S
C304   C305    1.396   .     A
C304   C519    1.369   .     S
C306   N330    1.365   .     A
C306   H321    1.082   .     S
C306   C379    1.415   .     S
C307   N329    1.363   .     A
C307   H322    1.080   .     S
C308   N329    1.364   .     A
C308   H323    1.081   .     S
C309   O341    1.388   .     S
C309   N330    1.371   .     A
C309   C380    1.430   .     S
C310   O336    1.282   .     A
C310   O335    1.280   .     A
C311   C313    1.457   .     S
C311   O337    1.290   .     A
C311   O338    1.293   .     A
C312   C941    1.413   1_554 S
C312   O994    1.384   1_554 S
C314   H326    1.083   .     S
C314   C315    1.387   .     A
C315   C964    1.394   .     S
C315   H975    1.082   .     S
C316   O351    1.383   .     S
C316   C963    1.394   1_554 S
C316   C938    1.425   1_554 S
H327   C963    1.082   1_554 S
N329   Zn339   2.007   .     S
N330   Zn340   2.007   .     S
O331   Zn339   1.994   .     S
O332   Zn340   1.995   .     S
O333   Zn339   1.961   .     S
O334   Zn340   1.921   .     S
O335   Zn339   1.995   .     S
O336   Zn340   1.994   .     S
O337   Zn339   1.921   .     S
O338   Zn340   1.961   .     S
O341   C342    1.412   .     S
C342   H344    1.115   .     S
C342   H345    1.110   .     S
C342   H343    1.110   .     S
O346   C347    1.410   .     S
O346   C960    1.384   .     S
C347   H348    1.114   .     S
C347   H997    1.112   .     S
C347   H422    1.109   .     S
H349   C995    1.112   1_554 S
O351   C352    1.414   .     S
C352   H353    1.116   .     S
C352   H355    1.111   .     S
C352   H354    1.106   .     S
O356   C357    1.412   .     S
C357   H360    1.106   .     S
C357   H358    1.112   .     S
C357   H359    1.115   .     S
C361   O404    1.282   .     A
C361   C377    1.415   .     S
C361   O403    1.281   .     A
C362   C363    1.404   .     A
C362   C1012   1.413   .     S
C362   C1036   1.425   .     S
C363   C370    1.417   .     A
C363   C367    1.423   .     A
C364   C368    1.388   .     A
C364   C1010   1.413   1_554 S
C364   C1013   1.418   1_554 S
C365   C366    1.396   .     A
C365   C1012   1.418   .     S
C365   C1032   1.413   .     S
C366   C367    1.395   .     A
C366   H396    1.084   .     S
C367   O428    1.381   .     S
C368   C385    1.390   .     A
C368   H397    1.081   .     S
C369   C384    1.404   .     A
C369   H389    1.083   .     S
C369   C385    1.399   .     A
C370   C386    1.403   .     A
C370   C372    1.461   .     S
C371   H400    1.084   .     S
C371   C377    1.396   .     A
C371   C589    1.371   .     S
C372   O406    1.291   .     A
C372   O405    1.292   .     A
C373   C374    1.396   .     A
C373   H390    1.084   .     S
C374   C375    1.396   .     A
C374   C382    1.415   .     S
C375   H391    1.084   .     S
C376   H392    1.084   .     S
C376   C377    1.396   .     A
C376   C591    1.369   .     S
C378   N402    1.365   .     A
C378   H393    1.082   .     S
C378   C235    1.415   1_655 S
C379   N401    1.363   .     A
C379   H394    1.080   .     S
C380   N401    1.364   .     A
C380   H395    1.081   .     S
C381   O413    1.388   .     S
C381   N402    1.371   .     A
C381   C236    1.430   1_655 S
C382   O408    1.282   .     A
C382   O407    1.280   .     A
C383   C385    1.457   .     S
C383   O409    1.290   .     A
C383   O410    1.293   .     A
C384   C1013   1.413   1_554 S
C384   O1066   1.384   1_554 S
C386   H398    1.083   .     S
C386   C387    1.387   .     A
C387   C1036   1.394   .     S
C387   H1047   1.082   .     S
C388   O423    1.383   .     S
C388   C1035   1.394   1_554 S
C388   C1010   1.425   1_554 S
H399   C1035   1.082   1_554 S
N401   Zn411   2.007   .     S
N402   Zn412   2.007   .     S
O403   Zn411   1.994   .     S
O404   Zn412   1.995   .     S
O405   Zn411   1.961   .     S
O406   Zn412   1.921   .     S
O407   Zn411   1.995   .     S
O408   Zn412   1.994   .     S
O409   Zn411   1.921   .     S
O410   Zn412   1.961   .     S
O413   C414    1.412   .     S
C414   H416    1.115   .     S
C414   H417    1.110   .     S
C414   H415    1.110   .     S
O418   C419    1.410   .     S
O418   C1032   1.384   .     S
C419   H420    1.114   .     S
C419   H1069   1.112   .     S
C419   H278    1.109   1_655 S
H421   C1067   1.112   1_554 S
O423   C424    1.414   .     S
C424   H425    1.116   .     S
C424   H427    1.111   .     S
C424   H426    1.106   .     S
O428   C429    1.412   .     S
C429   H432    1.106   .     S
C429   H430    1.112   .     S
C429   H431    1.115   .     S
C433   O476    1.282   .     A
C433   C449    1.415   .     S
C433   O475    1.281   .     A
C434   C435    1.404   .     A
C434   C1084   1.413   .     S
C434   C1108   1.425   .     S
C435   C442    1.417   .     A
C435   C439    1.423   .     A
C436   C440    1.388   .     A
C436   C1082   1.413   1_554 S
C436   C1085   1.418   1_554 S
C437   C438    1.396   .     A
C437   C1084   1.418   .     S
C437   C1104   1.413   .     S
C438   C439    1.395   .     A
C438   H468    1.084   .     S
C439   O500    1.381   .     S
C440   C457    1.390   .     A
C440   H469    1.081   .     S
C441   C456    1.404   .     A
C441   H461    1.083   .     S
C441   C457    1.399   .     A
C442   C458    1.403   .     A
C442   C444    1.461   .     S
C443   H472    1.084   .     S
C443   C449    1.396   .     A
C443   C13     1.371   1_565 S
C444   O478    1.291   .     A
C444   O477    1.292   .     A
C445   C446    1.396   .     A
C445   H462    1.084   .     S
C446   C447    1.396   .     A
C446   C454    1.415   .     S
C447   H463    1.084   .     S
C448   H464    1.084   .     S
C448   C449    1.396   .     A
C448   C15     1.369   1_565 S
C450   N474    1.365   .     A
C450   H465    1.082   .     S
C450   C523    1.415   .     S
C451   N473    1.363   .     A
C451   H466    1.080   .     S
C451   C594    1.415   1_455 S
C452   N473    1.364   .     A
C452   H467    1.081   .     S
C452   C597    1.430   1_455 S
C453   O485    1.388   .     S
C453   N474    1.371   .     A
C453   C524    1.430   .     S
C454   O480    1.282   .     A
C454   O479    1.280   .     A
C455   C457    1.457   .     S
C455   O481    1.290   .     A
C455   O482    1.293   .     A
C456   C1085   1.413   1_554 S
C456   O1138   1.384   1_554 S
C458   H470    1.083   .     S
C458   C459    1.387   .     A
C459   C1108   1.394   .     S
C459   H1119   1.082   .     S
C460   O495    1.383   .     S
C460   C1107   1.394   1_554 S
C460   C1082   1.425   1_554 S
H471   C1107   1.082   1_554 S
N473   Zn483   2.007   .     S
N474   Zn484   2.007   .     S
O475   Zn483   1.994   .     S
O476   Zn484   1.995   .     S
O477   Zn483   1.961   .     S
O478   Zn484   1.921   .     S
O479   Zn483   1.995   .     S
O480   Zn484   1.994   .     S
O481   Zn483   1.921   .     S
O482   Zn484   1.961   .     S
O485   C486    1.412   .     S
C486   H488    1.115   .     S
C486   H489    1.110   .     S
C486   H487    1.110   .     S
O490   C491    1.410   .     S
O490   C1104   1.384   .     S
C491   H492    1.114   .     S
C491   H1141   1.112   .     S
C491   H566    1.109   .     S
H493   C1139   1.112   1_554 S
H494   C635    1.109   1_455 S
O495   C496    1.414   .     S
C496   H497    1.116   .     S
C496   H499    1.111   .     S
C496   H498    1.106   .     S
O500   C501    1.412   .     S
C501   H504    1.106   .     S
C501   H502    1.112   .     S
C501   H503    1.115   .     S
C505   O548    1.282   .     A
C505   C521    1.415   .     S
C505   O547    1.281   .     A
C506   C507    1.404   .     A
C506   C1156   1.413   .     S
C506   C1180   1.425   .     S
C507   C514    1.417   .     A
C507   C511    1.423   .     A
C508   C512    1.388   .     A
C508   C1154   1.413   1_554 S
C508   C1157   1.418   1_554 S
C509   C510    1.396   .     A
C509   C1156   1.418   .     S
C509   C1176   1.413   .     S
C510   C511    1.395   .     A
C510   H540    1.084   .     S
C511   O572    1.381   .     S
C512   C529    1.390   .     A
C512   H541    1.081   .     S
C513   C528    1.404   .     A
C513   H533    1.083   .     S
C513   C529    1.399   .     A
C514   C530    1.403   .     A
C514   C516    1.461   .     S
C515   H544    1.084   .     S
C515   C521    1.396   .     A
C515   C85     1.371   1_565 S
C516   O550    1.291   .     A
C516   O549    1.292   .     A
C517   C518    1.396   .     A
C517   H534    1.084   .     S
C518   C519    1.396   .     A
C518   C526    1.415   .     S
C519   H535    1.084   .     S
C520   H536    1.084   .     S
C520   C521    1.396   .     A
C520   C87     1.369   1_565 S
C522   N546    1.365   .     A
C522   H537    1.082   .     S
C522   C595    1.415   .     S
C523   N545    1.363   .     A
C523   H538    1.080   .     S
C524   N545    1.364   .     A
C524   H539    1.081   .     S
C525   O557    1.388   .     S
C525   N546    1.371   .     A
C525   C596    1.430   .     S
C526   O552    1.282   .     A
C526   O551    1.280   .     A
C527   C529    1.457   .     S
C527   O553    1.290   .     A
C527   O554    1.293   .     A
C528   C1157   1.413   1_554 S
C528   O1210   1.384   1_554 S
C530   H542    1.083   .     S
C530   C531    1.387   .     A
C531   C1180   1.394   .     S
C531   H1191   1.082   .     S
C532   O567    1.383   .     S
C532   C1179   1.394   1_554 S
C532   C1154   1.425   1_554 S
H543   C1179   1.082   1_554 S
N545   Zn555   2.007   .     S
N546   Zn556   2.007   .     S
O547   Zn555   1.994   .     S
O548   Zn556   1.995   .     S
O549   Zn555   1.961   .     S
O550   Zn556   1.921   .     S
O551   Zn555   1.995   .     S
O552   Zn556   1.994   .     S
O553   Zn555   1.921   .     S
O554   Zn556   1.961   .     S
O557   C558    1.412   .     S
C558   H560    1.115   .     S
C558   H561    1.110   .     S
C558   H559    1.110   .     S
O562   C563    1.410   .     S
O562   C1176   1.384   .     S
C563   H564    1.114   .     S
C563   H1213   1.112   .     S
C563   H638    1.109   .     S
H565   C1211   1.112   1_554 S
O567   C568    1.414   .     S
C568   H569    1.116   .     S
C568   H571    1.111   .     S
C568   H570    1.106   .     S
O572   C573    1.412   .     S
C573   H576    1.106   .     S
C573   H574    1.112   .     S
C573   H575    1.115   .     S
C577   O620    1.282   .     A
C577   C593    1.415   .     S
C577   O619    1.281   .     A
C578   C579    1.404   .     A
C578   C1228   1.413   .     S
C578   C1252   1.425   .     S
C579   C586    1.417   .     A
C579   C583    1.423   .     A
C580   C584    1.388   .     A
C580   C1226   1.413   1_554 S
C580   C1229   1.418   1_554 S
C581   C582    1.396   .     A
C581   C1228   1.418   .     S
C581   C1248   1.413   .     S
C582   C583    1.395   .     A
C582   H612    1.084   .     S
C583   O644    1.381   .     S
C584   C601    1.390   .     A
C584   H613    1.081   .     S
C585   C600    1.404   .     A
C585   H605    1.083   .     S
C585   C601    1.399   .     A
C586   C602    1.403   .     A
C586   C588    1.461   .     S
C587   H616    1.084   .     S
C587   C593    1.396   .     A
C587   C157    1.371   1_565 S
C588   O622    1.291   .     A
C588   O621    1.292   .     A
C589   C590    1.396   .     A
C589   H606    1.084   .     S
C590   C591    1.396   .     A
C590   C598    1.415   .     S
C591   H607    1.084   .     S
C592   H608    1.084   .     S
C592   C593    1.396   .     A
C592   C159    1.369   1_565 S
C594   N618    1.365   .     A
C594   H609    1.082   .     S
C594   C451    1.415   1_655 S
C595   N617    1.363   .     A
C595   H610    1.080   .     S
C596   N617    1.364   .     A
C596   H611    1.081   .     S
C597   O629    1.388   .     S
C597   N618    1.371   .     A
C597   C452    1.430   1_655 S
C598   O624    1.282   .     A
C598   O623    1.280   .     A
C599   C601    1.457   .     S
C599   O625    1.290   .     A
C599   O626    1.293   .     A
C600   C1229   1.413   1_554 S
C600   O1282   1.384   1_554 S
C602   H614    1.083   .     S
C602   C603    1.387   .     A
C603   C1252   1.394   .     S
C603   H1263   1.082   .     S
C604   O639    1.383   .     S
C604   C1251   1.394   1_554 S
C604   C1226   1.425   1_554 S
H615   C1251   1.082   1_554 S
N617   Zn627   2.007   .     S
N618   Zn628   2.007   .     S
O619   Zn627   1.994   .     S
O620   Zn628   1.995   .     S
O621   Zn627   1.961   .     S
O622   Zn628   1.921   .     S
O623   Zn627   1.995   .     S
O624   Zn628   1.994   .     S
O625   Zn627   1.921   .     S
O626   Zn628   1.961   .     S
O629   C630    1.412   .     S
C630   H632    1.115   .     S
C630   H633    1.110   .     S
C630   H631    1.110   .     S
O634   C635    1.410   .     S
O634   C1248   1.384   .     S
C635   H636    1.114   .     S
C635   H1285   1.112   .     S
C635   H494    1.109   1_655 S
H637   C1283   1.112   1_554 S
O639   C640    1.414   .     S
C640   H641    1.116   .     S
C640   H643    1.111   .     S
C640   H642    1.106   .     S
O644   C645    1.412   .     S
C645   H648    1.106   .     S
C645   H646    1.112   .     S
C645   H647    1.115   .     S
C649   O692    1.282   .     A
C649   C665    1.415   .     S
C649   O691    1.281   .     A
C650   C651    1.404   .     A
C650   C4      1.413   1_556 S
C650   C28     1.425   1_556 S
C651   C658    1.417   .     A
C651   C655    1.423   .     A
C652   C656    1.388   .     A
C653   C654    1.396   .     A
C653   C4      1.418   1_556 S
C653   C24     1.413   1_556 S
C654   C655    1.395   .     A
C654   H684    1.084   .     S
C655   O716    1.381   .     S
C656   C673    1.390   .     A
C656   H685    1.081   .     S
C657   C672    1.404   .     A
C657   H677    1.083   .     S
C657   C673    1.399   .     A
C658   C674    1.403   .     A
C658   C660    1.461   .     S
C659   H688    1.084   .     S
C659   C665    1.396   .     A
C659   C877    1.371   .     S
C660   O694    1.291   .     A
C660   O693    1.292   .     A
C661   C662    1.396   .     A
C661   H678    1.084   .     S
C661   C1091   1.371   1_545 S
C662   C663    1.396   .     A
C662   C670    1.415   .     S
C663   H679    1.084   .     S
C663   C1096   1.369   1_545 S
C664   H680    1.084   .     S
C664   C665    1.396   .     A
C664   C879    1.369   .     S
C666   N690    1.365   .     A
C666   H681    1.082   .     S
C666   C739    1.415   .     S
C667   N689    1.363   .     A
C667   H682    1.080   .     S
C667   C810    1.415   1_455 S
C668   N689    1.364   .     A
C668   H683    1.081   .     S
C668   C813    1.430   1_455 S
C669   O701    1.388   .     S
C669   N690    1.371   .     A
C669   C740    1.430   .     S
C670   O696    1.282   .     A
C670   O695    1.280   .     A
C671   C673    1.457   .     S
C671   O697    1.290   .     A
C671   O698    1.293   .     A
C674   H686    1.083   .     S
C674   C675    1.387   .     A
C675   C28     1.394   1_556 S
C675   H39     1.082   1_556 S
C676   O711    1.383   .     S
N689   Zn699   2.007   .     S
N690   Zn700   2.007   .     S
O691   Zn699   1.994   .     S
O692   Zn700   1.995   .     S
O693   Zn699   1.961   .     S
O694   Zn700   1.921   .     S
O695   Zn699   1.995   .     S
O696   Zn700   1.994   .     S
O697   Zn699   1.921   .     S
O698   Zn700   1.961   .     S
O701   C702    1.412   .     S
C702   H704    1.115   .     S
C702   H705    1.110   .     S
C702   H703    1.110   .     S
O706   C707    1.410   .     S
O706   C24     1.384   1_556 S
C707   H708    1.114   .     S
C707   H61     1.112   1_556 S
C707   H782    1.109   .     S
H710   C851    1.109   1_455 S
O711   C712    1.414   .     S
C712   H713    1.116   .     S
C712   H715    1.111   .     S
C712   H714    1.106   .     S
O716   C717    1.412   .     S
C717   H720    1.106   .     S
C717   H718    1.112   .     S
C717   H719    1.115   .     S
C721   O764    1.282   .     A
C721   C737    1.415   .     S
C721   O763    1.281   .     A
C722   C723    1.404   .     A
C722   C76     1.413   1_556 S
C722   C100    1.425   1_556 S
C723   C730    1.417   .     A
C723   C727    1.423   .     A
C724   C728    1.388   .     A
C725   C726    1.396   .     A
C725   C76     1.418   1_556 S
C725   C96     1.413   1_556 S
C726   C727    1.395   .     A
C726   H756    1.084   .     S
C727   O788    1.381   .     S
C728   C745    1.390   .     A
C728   H757    1.081   .     S
C729   C744    1.404   .     A
C729   H749    1.083   .     S
C729   C745    1.399   .     A
C730   C746    1.403   .     A
C730   C732    1.461   .     S
C731   H760    1.084   .     S
C731   C737    1.396   .     A
C731   C949    1.371   .     S
C732   O766    1.291   .     A
C732   O765    1.292   .     A
C733   C734    1.396   .     A
C733   H750    1.084   .     S
C733   C1163   1.371   1_545 S
C734   C735    1.396   .     A
C734   C742    1.415   .     S
C735   H751    1.084   .     S
C735   C1168   1.369   1_545 S
C736   H752    1.084   .     S
C736   C737    1.396   .     A
C736   C951    1.369   .     S
C738   N762    1.365   .     A
C738   H753    1.082   .     S
C738   C811    1.415   .     S
C739   N761    1.363   .     A
C739   H754    1.080   .     S
C740   N761    1.364   .     A
C740   H755    1.081   .     S
C741   O773    1.388   .     S
C741   N762    1.371   .     A
C741   C812    1.430   .     S
C742   O768    1.282   .     A
C742   O767    1.280   .     A
C743   C745    1.457   .     S
C743   O769    1.290   .     A
C743   O770    1.293   .     A
C746   H758    1.083   .     S
C746   C747    1.387   .     A
C747   C100    1.394   1_556 S
C747   H111    1.082   1_556 S
C748   O783    1.383   .     S
N761   Zn771   2.007   .     S
N762   Zn772   2.007   .     S
O763   Zn771   1.994   .     S
O764   Zn772   1.995   .     S
O765   Zn771   1.961   .     S
O766   Zn772   1.921   .     S
O767   Zn771   1.995   .     S
O768   Zn772   1.994   .     S
O769   Zn771   1.921   .     S
O770   Zn772   1.961   .     S
O773   C774    1.412   .     S
C774   H776    1.115   .     S
C774   H777    1.110   .     S
C774   H775    1.110   .     S
O778   C779    1.410   .     S
O778   C96     1.384   1_556 S
C779   H780    1.114   .     S
C779   H133    1.112   1_556 S
C779   H854    1.109   .     S
O783   C784    1.414   .     S
C784   H785    1.116   .     S
C784   H787    1.111   .     S
C784   H786    1.106   .     S
O788   C789    1.412   .     S
C789   H792    1.106   .     S
C789   H790    1.112   .     S
C789   H791    1.115   .     S
C793   O836    1.282   .     A
C793   C809    1.415   .     S
C793   O835    1.281   .     A
C794   C795    1.404   .     A
C794   C148    1.413   1_556 S
C794   C172    1.425   1_556 S
C795   C802    1.417   .     A
C795   C799    1.423   .     A
C796   C800    1.388   .     A
C797   C798    1.396   .     A
C797   C148    1.418   1_556 S
C797   C168    1.413   1_556 S
C798   C799    1.395   .     A
C798   H828    1.084   .     S
C799   O860    1.381   .     S
C800   C817    1.390   .     A
C800   H829    1.081   .     S
C801   C816    1.404   .     A
C801   H821    1.083   .     S
C801   C817    1.399   .     A
C802   C818    1.403   .     A
C802   C804    1.461   .     S
C803   H832    1.084   .     S
C803   C809    1.396   .     A
C803   C1021   1.371   .     S
C804   O838    1.291   .     A
C804   O837    1.292   .     A
C805   C806    1.396   .     A
C805   H822    1.084   .     S
C805   C1235   1.371   1_545 S
C806   C807    1.396   .     A
C806   C814    1.415   .     S
C807   H823    1.084   .     S
C807   C1240   1.369   1_545 S
C808   H824    1.084   .     S
C808   C809    1.396   .     A
C808   C1023   1.369   .     S
C810   N834    1.365   .     A
C810   H825    1.082   .     S
C810   C667    1.415   1_655 S
C811   N833    1.363   .     A
C811   H826    1.080   .     S
C812   N833    1.364   .     A
C812   H827    1.081   .     S
C813   O845    1.388   .     S
C813   N834    1.371   .     A
C813   C668    1.430   1_655 S
C814   O840    1.282   .     A
C814   O839    1.280   .     A
C815   C817    1.457   .     S
C815   O841    1.290   .     A
C815   O842    1.293   .     A
C818   H830    1.083   .     S
C818   C819    1.387   .     A
C819   C172    1.394   1_556 S
C819   H183    1.082   1_556 S
C820   O855    1.383   .     S
N833   Zn843   2.007   .     S
N834   Zn844   2.007   .     S
O835   Zn843   1.994   .     S
O836   Zn844   1.995   .     S
O837   Zn843   1.961   .     S
O838   Zn844   1.921   .     S
O839   Zn843   1.995   .     S
O840   Zn844   1.994   .     S
O841   Zn843   1.921   .     S
O842   Zn844   1.961   .     S
O845   C846    1.412   .     S
C846   H848    1.115   .     S
C846   H849    1.110   .     S
C846   H847    1.110   .     S
O850   C851    1.410   .     S
O850   C168    1.384   1_556 S
C851   H852    1.114   .     S
C851   H205    1.112   1_556 S
C851   H710    1.109   1_655 S
O855   C856    1.414   .     S
C856   H857    1.116   .     S
C856   H859    1.111   .     S
C856   H858    1.106   .     S
O860   C861    1.412   .     S
C861   H864    1.106   .     S
C861   H862    1.112   .     S
C861   H863    1.115   .     S
C865   O908    1.282   .     A
C865   C881    1.415   .     S
C865   O907    1.281   .     A
C866   C867    1.404   .     A
C866   C220    1.413   1_556 S
C866   C244    1.425   1_556 S
C867   C874    1.417   .     A
C867   C871    1.423   .     A
C868   C872    1.388   .     A
C869   C870    1.396   .     A
C869   C220    1.418   1_556 S
C869   C240    1.413   1_556 S
C870   C871    1.395   .     A
C870   H900    1.084   .     S
C871   O932    1.381   .     S
C872   C889    1.390   .     A
C872   H901    1.081   .     S
C873   C888    1.404   .     A
C873   H893    1.083   .     S
C873   C889    1.399   .     A
C874   C890    1.403   .     A
C874   C876    1.461   .     S
C875   H904    1.084   .     S
C875   C881    1.396   .     A
C875   C1093   1.371   .     S
C876   O910    1.291   .     A
C876   O909    1.292   .     A
C877   C878    1.396   .     A
C877   H894    1.084   .     S
C878   C879    1.396   .     A
C878   C886    1.415   .     S
C879   H895    1.084   .     S
C880   H896    1.084   .     S
C880   C881    1.396   .     A
C880   C1095   1.369   .     S
C882   N906    1.365   .     A
C882   H897    1.082   .     S
C882   C955    1.415   .     S
C883   N905    1.363   .     A
C883   H898    1.080   .     S
C883   C1026   1.415   1_455 S
C884   N905    1.364   .     A
C884   H899    1.081   .     S
C884   C1029   1.430   1_455 S
C885   O917    1.388   .     S
C885   N906    1.371   .     A
C885   C956    1.430   .     S
C886   O912    1.282   .     A
C886   O911    1.280   .     A
C887   C889    1.457   .     S
C887   O913    1.290   .     A
C887   O914    1.293   .     A
C890   H902    1.083   .     S
C890   C891    1.387   .     A
C891   C244    1.394   1_556 S
C891   H255    1.082   1_556 S
C892   O927    1.383   .     S
N905   Zn915   2.007   .     S
N906   Zn916   2.007   .     S
O907   Zn915   1.994   .     S
O908   Zn916   1.995   .     S
O909   Zn915   1.961   .     S
O910   Zn916   1.921   .     S
O911   Zn915   1.995   .     S
O912   Zn916   1.994   .     S
O913   Zn915   1.921   .     S
O914   Zn916   1.961   .     S
O917   C918    1.412   .     S
C918   H920    1.115   .     S
C918   H921    1.110   .     S
C918   H919    1.110   .     S
O922   C923    1.410   .     S
O922   C240    1.384   1_556 S
C923   H924    1.114   .     S
C923   H277    1.112   1_556 S
C923   H998    1.109   .     S
H926   C1067   1.109   1_455 S
O927   C928    1.414   .     S
C928   H929    1.116   .     S
C928   H931    1.111   .     S
C928   H930    1.106   .     S
O932   C933    1.412   .     S
C933   H936    1.106   .     S
C933   H934    1.112   .     S
C933   H935    1.115   .     S
C937   O980    1.282   .     A
C937   C953    1.415   .     S
C937   O979    1.281   .     A
C938   C939    1.404   .     A
C938   C292    1.413   1_556 S
C938   C316    1.425   1_556 S
C939   C946    1.417   .     A
C939   C943    1.423   .     A
C940   C944    1.388   .     A
C941   C942    1.396   .     A
C941   C292    1.418   1_556 S
C941   C312    1.413   1_556 S
C942   C943    1.395   .     A
C942   H972    1.084   .     S
C943   O1004   1.381   .     S
C944   C961    1.390   .     A
C944   H973    1.081   .     S
C945   C960    1.404   .     A
C945   H965    1.083   .     S
C945   C961    1.399   .     A
C946   C962    1.403   .     A
C946   C948    1.461   .     S
C947   H976    1.084   .     S
C947   C953    1.396   .     A
C947   C1165   1.371   .     S
C948   O982    1.291   .     A
C948   O981    1.292   .     A
C949   C950    1.396   .     A
C949   H966    1.084   .     S
C950   C951    1.396   .     A
C950   C958    1.415   .     S
C951   H967    1.084   .     S
C952   H968    1.084   .     S
C952   C953    1.396   .     A
C952   C1167   1.369   .     S
C954   N978    1.365   .     A
C954   H969    1.082   .     S
C954   C1027   1.415   .     S
C955   N977    1.363   .     A
C955   H970    1.080   .     S
C956   N977    1.364   .     A
C956   H971    1.081   .     S
C957   O989    1.388   .     S
C957   N978    1.371   .     A
C957   C1028   1.430   .     S
C958   O984    1.282   .     A
C958   O983    1.280   .     A
C959   C961    1.457   .     S
C959   O985    1.290   .     A
C959   O986    1.293   .     A
C962   H974    1.083   .     S
C962   C963    1.387   .     A
C963   C316    1.394   1_556 S
C963   H327    1.082   1_556 S
C964   O999    1.383   .     S
N977   Zn987   2.007   .     S
N978   Zn988   2.007   .     S
O979   Zn987   1.994   .     S
O980   Zn988   1.995   .     S
O981   Zn987   1.961   .     S
O982   Zn988   1.921   .     S
O983   Zn987   1.995   .     S
O984   Zn988   1.994   .     S
O985   Zn987   1.921   .     S
O986   Zn988   1.961   .     S
O989   C990    1.412   .     S
C990   H992    1.115   .     S
C990   H993    1.110   .     S
C990   H991    1.110   .     S
O994   C995    1.410   .     S
O994   C312    1.384   1_556 S
C995   H996    1.114   .     S
C995   H349    1.112   1_556 S
C995   H1070   1.109   .     S
O999   C1000   1.414   .     S
C1000  H1001   1.116   .     S
C1000  H1003   1.111   .     S
C1000  H1002   1.106   .     S
O1004  C1005   1.412   .     S
C1005  H1008   1.106   .     S
C1005  H1006   1.112   .     S
C1005  H1007   1.115   .     S
C1009  O1052   1.282   .     A
C1009  C1025   1.415   .     S
C1009  O1051   1.281   .     A
C1010  C1011   1.404   .     A
C1010  C364    1.413   1_556 S
C1010  C388    1.425   1_556 S
C1011  C1018   1.417   .     A
C1011  C1015   1.423   .     A
C1012  C1016   1.388   .     A
C1013  C1014   1.396   .     A
C1013  C364    1.418   1_556 S
C1013  C384    1.413   1_556 S
C1014  C1015   1.395   .     A
C1014  H1044   1.084   .     S
C1015  O1076   1.381   .     S
C1016  C1033   1.390   .     A
C1016  H1045   1.081   .     S
C1017  C1032   1.404   .     A
C1017  H1037   1.083   .     S
C1017  C1033   1.399   .     A
C1018  C1034   1.403   .     A
C1018  C1020   1.461   .     S
C1019  H1048   1.084   .     S
C1019  C1025   1.396   .     A
C1019  C1237   1.371   .     S
C1020  O1054   1.291   .     A
C1020  O1053   1.292   .     A
C1021  C1022   1.396   .     A
C1021  H1038   1.084   .     S
C1022  C1023   1.396   .     A
C1022  C1030   1.415   .     S
C1023  H1039   1.084   .     S
C1024  H1040   1.084   .     S
C1024  C1025   1.396   .     A
C1024  C1239   1.369   .     S
C1026  N1050   1.365   .     A
C1026  H1041   1.082   .     S
C1026  C883    1.415   1_655 S
C1027  N1049   1.363   .     A
C1027  H1042   1.080   .     S
C1028  N1049   1.364   .     A
C1028  H1043   1.081   .     S
C1029  O1061   1.388   .     S
C1029  N1050   1.371   .     A
C1029  C884    1.430   1_655 S
C1030  O1056   1.282   .     A
C1030  O1055   1.280   .     A
C1031  C1033   1.457   .     S
C1031  O1057   1.290   .     A
C1031  O1058   1.293   .     A
C1034  H1046   1.083   .     S
C1034  C1035   1.387   .     A
C1035  C388    1.394   1_556 S
C1035  H399    1.082   1_556 S
C1036  O1071   1.383   .     S
N1049  Zn1059  2.007   .     S
N1050  Zn1060  2.007   .     S
O1051  Zn1059  1.994   .     S
O1052  Zn1060  1.995   .     S
O1053  Zn1059  1.961   .     S
O1054  Zn1060  1.921   .     S
O1055  Zn1059  1.995   .     S
O1056  Zn1060  1.994   .     S
O1057  Zn1059  1.921   .     S
O1058  Zn1060  1.961   .     S
O1061  C1062   1.412   .     S
C1062  H1064   1.115   .     S
C1062  H1065   1.110   .     S
C1062  H1063   1.110   .     S
O1066  C1067   1.410   .     S
O1066  C384    1.384   1_556 S
C1067  H1068   1.114   .     S
C1067  H421    1.112   1_556 S
C1067  H926    1.109   1_655 S
O1071  C1072   1.414   .     S
C1072  H1073   1.116   .     S
C1072  H1075   1.111   .     S
C1072  H1074   1.106   .     S
O1076  C1077   1.412   .     S
C1077  H1080   1.106   .     S
C1077  H1078   1.112   .     S
C1077  H1079   1.115   .     S
C1081  O1124   1.282   .     A
C1081  C1097   1.415   .     S
C1081  O1123   1.281   .     A
C1082  C1083   1.404   .     A
C1082  C436    1.413   1_556 S
C1082  C460    1.425   1_556 S
C1083  C1090   1.417   .     A
C1083  C1087   1.423   .     A
C1084  C1088   1.388   .     A
C1085  C1086   1.396   .     A
C1085  C436    1.418   1_556 S
C1085  C456    1.413   1_556 S
C1086  C1087   1.395   .     A
C1086  H1116   1.084   .     S
C1087  O1148   1.381   .     S
C1088  C1105   1.390   .     A
C1088  H1117   1.081   .     S
C1089  C1104   1.404   .     A
C1089  H1109   1.083   .     S
C1089  C1105   1.399   .     A
C1090  C1106   1.403   .     A
C1090  C1092   1.461   .     S
C1091  H1120   1.084   .     S
C1091  C1097   1.396   .     A
C1091  C661    1.371   1_565 S
C1092  O1126   1.291   .     A
C1092  O1125   1.292   .     A
C1093  C1094   1.396   .     A
C1093  H1110   1.084   .     S
C1094  C1095   1.396   .     A
C1094  C1102   1.415   .     S
C1095  H1111   1.084   .     S
C1096  H1112   1.084   .     S
C1096  C1097   1.396   .     A
C1096  C663    1.369   1_565 S
C1098  N1122   1.365   .     A
C1098  H1113   1.082   .     S
C1098  C1171   1.415   .     S
C1099  N1121   1.363   .     A
C1099  H1114   1.080   .     S
C1099  C1242   1.415   1_455 S
C1100  N1121   1.364   .     A
C1100  H1115   1.081   .     S
C1100  C1245   1.430   1_455 S
C1101  O1133   1.388   .     S
C1101  N1122   1.371   .     A
C1101  C1172   1.430   .     S
C1102  O1128   1.282   .     A
C1102  O1127   1.280   .     A
C1103  C1105   1.457   .     S
C1103  O1129   1.290   .     A
C1103  O1130   1.293   .     A
C1106  H1118   1.083   .     S
C1106  C1107   1.387   .     A
C1107  C460    1.394   1_556 S
C1107  H471    1.082   1_556 S
C1108  O1143   1.383   .     S
N1121  Zn1131  2.007   .     S
N1122  Zn1132  2.007   .     S
O1123  Zn1131  1.994   .     S
O1124  Zn1132  1.995   .     S
O1125  Zn1131  1.961   .     S
O1126  Zn1132  1.921   .     S
O1127  Zn1131  1.995   .     S
O1128  Zn1132  1.994   .     S
O1129  Zn1131  1.921   .     S
O1130  Zn1132  1.961   .     S
O1133  C1134   1.412   .     S
C1134  H1136   1.115   .     S
C1134  H1137   1.110   .     S
C1134  H1135   1.110   .     S
O1138  C1139   1.410   .     S
O1138  C456    1.384   1_556 S
C1139  H1140   1.114   .     S
C1139  H493    1.112   1_556 S
C1139  H1214   1.109   .     S
H1142  C1283   1.109   1_455 S
O1143  C1144   1.414   .     S
C1144  H1145   1.116   .     S
C1144  H1147   1.111   .     S
C1144  H1146   1.106   .     S
O1148  C1149   1.412   .     S
C1149  H1152   1.106   .     S
C1149  H1150   1.112   .     S
C1149  H1151   1.115   .     S
C1153  O1196   1.282   .     A
C1153  C1169   1.415   .     S
C1153  O1195   1.281   .     A
C1154  C1155   1.404   .     A
C1154  C508    1.413   1_556 S
C1154  C532    1.425   1_556 S
C1155  C1162   1.417   .     A
C1155  C1159   1.423   .     A
C1156  C1160   1.388   .     A
C1157  C1158   1.396   .     A
C1157  C508    1.418   1_556 S
C1157  C528    1.413   1_556 S
C1158  C1159   1.395   .     A
C1158  H1188   1.084   .     S
C1159  O1220   1.381   .     S
C1160  C1177   1.390   .     A
C1160  H1189   1.081   .     S
C1161  C1176   1.404   .     A
C1161  H1181   1.083   .     S
C1161  C1177   1.399   .     A
C1162  C1178   1.403   .     A
C1162  C1164   1.461   .     S
C1163  H1192   1.084   .     S
C1163  C1169   1.396   .     A
C1163  C733    1.371   1_565 S
C1164  O1198   1.291   .     A
C1164  O1197   1.292   .     A
C1165  C1166   1.396   .     A
C1165  H1182   1.084   .     S
C1166  C1167   1.396   .     A
C1166  C1174   1.415   .     S
C1167  H1183   1.084   .     S
C1168  H1184   1.084   .     S
C1168  C1169   1.396   .     A
C1168  C735    1.369   1_565 S
C1170  N1194   1.365   .     A
C1170  H1185   1.082   .     S
C1170  C1243   1.415   .     S
C1171  N1193   1.363   .     A
C1171  H1186   1.080   .     S
C1172  N1193   1.364   .     A
C1172  H1187   1.081   .     S
C1173  O1205   1.388   .     S
C1173  N1194   1.371   .     A
C1173  C1244   1.430   .     S
C1174  O1200   1.282   .     A
C1174  O1199   1.280   .     A
C1175  C1177   1.457   .     S
C1175  O1201   1.290   .     A
C1175  O1202   1.293   .     A
C1178  H1190   1.083   .     S
C1178  C1179   1.387   .     A
C1179  C532    1.394   1_556 S
C1179  H543    1.082   1_556 S
C1180  O1215   1.383   .     S
N1193  Zn1203  2.007   .     S
N1194  Zn1204  2.007   .     S
O1195  Zn1203  1.994   .     S
O1196  Zn1204  1.995   .     S
O1197  Zn1203  1.961   .     S
O1198  Zn1204  1.921   .     S
O1199  Zn1203  1.995   .     S
O1200  Zn1204  1.994   .     S
O1201  Zn1203  1.921   .     S
O1202  Zn1204  1.961   .     S
O1205  C1206   1.412   .     S
C1206  H1208   1.115   .     S
C1206  H1209   1.110   .     S
C1206  H1207   1.110   .     S
O1210  C1211   1.410   .     S
O1210  C528    1.384   1_556 S
C1211  H1212   1.114   .     S
C1211  H565    1.112   1_556 S
C1211  H1286   1.109   .     S
O1215  C1216   1.414   .     S
C1216  H1217   1.116   .     S
C1216  H1219   1.111   .     S
C1216  H1218   1.106   .     S
O1220  C1221   1.412   .     S
C1221  H1224   1.106   .     S
C1221  H1222   1.112   .     S
C1221  H1223   1.115   .     S
C1225  O1268   1.282   .     A
C1225  C1241   1.415   .     S
C1225  O1267   1.281   .     A
C1226  C1227   1.404   .     A
C1226  C580    1.413   1_556 S
C1226  C604    1.425   1_556 S
C1227  C1234   1.417   .     A
C1227  C1231   1.423   .     A
C1228  C1232   1.388   .     A
C1229  C1230   1.396   .     A
C1229  C580    1.418   1_556 S
C1229  C600    1.413   1_556 S
C1230  C1231   1.395   .     A
C1230  H1260   1.084   .     S
C1231  O1292   1.381   .     S
C1232  C1249   1.390   .     A
C1232  H1261   1.081   .     S
C1233  C1248   1.404   .     A
C1233  H1253   1.083   .     S
C1233  C1249   1.399   .     A
C1234  C1250   1.403   .     A
C1234  C1236   1.461   .     S
C1235  H1264   1.084   .     S
C1235  C1241   1.396   .     A
C1235  C805    1.371   1_565 S
C1236  O1270   1.291   .     A
C1236  O1269   1.292   .     A
C1237  C1238   1.396   .     A
C1237  H1254   1.084   .     S
C1238  C1239   1.396   .     A
C1238  C1246   1.415   .     S
C1239  H1255   1.084   .     S
C1240  H1256   1.084   .     S
C1240  C1241   1.396   .     A
C1240  C807    1.369   1_565 S
C1242  N1266   1.365   .     A
C1242  H1257   1.082   .     S
C1242  C1099   1.415   1_655 S
C1243  N1265   1.363   .     A
C1243  H1258   1.080   .     S
C1244  N1265   1.364   .     A
C1244  H1259   1.081   .     S
C1245  O1277   1.388   .     S
C1245  N1266   1.371   .     A
C1245  C1100   1.430   1_655 S
C1246  O1272   1.282   .     A
C1246  O1271   1.280   .     A
C1247  C1249   1.457   .     S
C1247  O1273   1.290   .     A
C1247  O1274   1.293   .     A
C1250  H1262   1.083   .     S
C1250  C1251   1.387   .     A
C1251  C604    1.394   1_556 S
C1251  H615    1.082   1_556 S
C1252  O1287   1.383   .     S
N1265  Zn1275  2.007   .     S
N1266  Zn1276  2.007   .     S
O1267  Zn1275  1.994   .     S
O1268  Zn1276  1.995   .     S
O1269  Zn1275  1.961   .     S
O1270  Zn1276  1.921   .     S
O1271  Zn1275  1.995   .     S
O1272  Zn1276  1.994   .     S
O1273  Zn1275  1.921   .     S
O1274  Zn1276  1.961   .     S
O1277  C1278   1.412   .     S
C1278  H1280   1.115   .     S
C1278  H1281   1.110   .     S
C1278  H1279   1.110   .     S
O1282  C1283   1.410   .     S
O1282  C600    1.384   1_556 S
C1283  H1284   1.114   .     S
C1283  H637    1.112   1_556 S
C1283  H1142   1.109   1_655 S
O1287  C1288   1.414   .     S
C1288  H1289   1.116   .     S
C1288  H1291   1.111   .     S
C1288  H1290   1.106   .     S
O1292  C1293   1.412   .     S
C1293  H1296   1.106   .     S
C1293  H1294   1.112   .     S
C1293  H1295   1.115   .     S
