data_str_m3_o1_o17_pcu_sym.130
_audit_creation_date              2020-01-03
_audit_creation_method            'Materials Studio'
_symmetry_space_group_name_H-M    'P1'
_symmetry_Int_Tables_number       1
_symmetry_cell_setting            triclinic
loop_
_symmetry_equiv_pos_as_xyz
  x,y,z
_cell_length_a                    32.0567
_cell_length_b                    29.5485
_cell_length_c                    29.8719
_cell_angle_alpha                 89.9693
_cell_angle_beta                  89.9911
_cell_angle_gamma                 89.8972
loop_
_atom_site_label
_atom_site_type_symbol
_atom_site_fract_x
_atom_site_fract_y
_atom_site_fract_z
_atom_site_U_iso_or_equiv
_atom_site_adp_type
_atom_site_occupancy
O1     O     0.10559   0.20487   0.24999   0.00000  Uiso   1.00
O2     O     0.22774   0.12846   0.25000   0.00000  Uiso   1.00
O3     O     0.22774   0.20487   0.25000   0.00000  Uiso   1.00
O4     O     0.10559   0.12846   0.24999   0.00000  Uiso   1.00
C5     C     0.08665   0.16670   0.24971   0.00000  Uiso   1.00
C6     C     0.24668   0.16663   0.25028   0.00000  Uiso   1.00
O7     O     0.16666   0.20489   0.18392   0.00000  Uiso   1.00
O8     O     0.16667   0.12844   0.31607   0.00000  Uiso   1.00
O9     O     0.16667   0.20489   0.31607   0.00000  Uiso   1.00
O10    O     0.16666   0.12844   0.18392   0.00000  Uiso   1.00
C11    C     0.16721   0.16667   0.16363   0.00000  Uiso   1.00
C12    C     0.16613   0.16666   0.33637   0.00000  Uiso   1.00
Zn13   Zn    0.16667   0.21771   0.25000   0.00000  Uiso   1.00
Zn14   Zn    0.16667   0.11563   0.25000   0.00000  Uiso   1.00
C15    C     0.20205   0.17297   0.40587   0.00000  Uiso   1.00
C16    C     0.13129   0.16037   0.09413   0.00000  Uiso   1.00
C17    C     0.16449   0.16667   0.38392   0.00000  Uiso   1.00
C18    C     0.16884   0.16666   0.11608   0.00000  Uiso   1.00
C19    C     0.12667   0.16052   0.40682   0.00000  Uiso   1.00
C20    C     0.20666   0.17282   0.09318   0.00000  Uiso   1.00
C21    C     0.12758   0.16047   0.45390   0.00000  Uiso   1.00
C22    C     0.20575   0.17286   0.04610   0.00000  Uiso   1.00
C23    C     0.16616   0.16670   0.47654   0.00000  Uiso   1.00
C24    C     0.16717   0.16664   0.02346   0.00000  Uiso   1.00
C25    C     0.20371   0.17300   0.45225   0.00000  Uiso   1.00
C26    C     0.12962   0.16034   0.04775   0.00000  Uiso   1.00
C27    C     0.09080   0.15437   0.47874   0.00000  Uiso   1.00
C28    C     0.24253   0.17896   0.02126   0.00000  Uiso   1.00
C29    C     0.09130   0.15423   0.02527   0.00000  Uiso   1.00
C30    C     0.24204   0.17910   0.47473   0.00000  Uiso   1.00
H31    H     0.22997   0.17757   0.38594   0.00000  Uiso   1.00
H32    H     0.10336   0.15576   0.11406   0.00000  Uiso   1.00
H33    H     0.06112   0.14959   0.46223   0.00000  Uiso   1.00
H34    H     0.27221   0.18374   0.03776   0.00000  Uiso   1.00
C35    C     0.02140   0.12771   0.23636   0.00000  Uiso   1.00
C36    C     0.31193   0.20562   0.26364   0.00000  Uiso   1.00
C37    C     0.31202   0.12765   0.23659   0.00000  Uiso   1.00
C38    C     0.02132   0.20569   0.26341   0.00000  Uiso   1.00
H39    H     0.03781   0.09758   0.22539   0.00000  Uiso   1.00
H40    H     0.29552   0.23576   0.27461   0.00000  Uiso   1.00
H41    H     0.29568   0.09749   0.22576   0.00000  Uiso   1.00
H42    H     0.03765   0.23585   0.27424   0.00000  Uiso   1.00
C43    C     0.29082   0.16661   0.25023   0.00000  Uiso   1.00
C44    C     0.04251   0.16673   0.24977   0.00000  Uiso   1.00
C45    C     0.19394   0.02391   0.27626   0.00000  Uiso   1.00
C46    C     0.13940   0.30943   0.22374   0.00000  Uiso   1.00
C47    C     0.13940   0.02404   0.22374   0.00000  Uiso   1.00
C48    C     0.19394   0.30929   0.27626   0.00000  Uiso   1.00
H49    H     0.21574   0.04200   0.29727   0.00000  Uiso   1.00
H50    H     0.11759   0.29133   0.20272   0.00000  Uiso   1.00
H51    H     0.11759   0.04225   0.20273   0.00000  Uiso   1.00
H52    H     0.21574   0.29109   0.29727   0.00000  Uiso   1.00
N53    N     0.16667   0.28573   0.25000   0.00000  Uiso   1.00
N54    N     0.16667   0.04760   0.25000   0.00000  Uiso   1.00
C55    C     0.08586   0.15454   0.38150   0.00000  Uiso   1.00
H56    H     0.08926   0.15587   0.34469   0.00000  Uiso   1.00
H57    H     0.07201   0.12114   0.38976   0.00000  Uiso   1.00
H58    H     0.06375   0.18193   0.39082   0.00000  Uiso   1.00
C59    C     0.24747   0.17879   0.11850   0.00000  Uiso   1.00
H60    H     0.24407   0.17746   0.15531   0.00000  Uiso   1.00
H61    H     0.26958   0.15140   0.10918   0.00000  Uiso   1.00
H62    H     0.26132   0.21219   0.11023   0.00000  Uiso   1.00
C63    C     0.05054   0.14756   0.04995   0.00000  Uiso   1.00
H64    H     0.02379   0.14315   0.02674   0.00000  Uiso   1.00
H65    H     0.05240   0.11678   0.07120   0.00000  Uiso   1.00
H66    H     0.04384   0.17754   0.07118   0.00000  Uiso   1.00
C67    C     0.28279   0.18578   0.45005   0.00000  Uiso   1.00
H68    H     0.30954   0.19018   0.47326   0.00000  Uiso   1.00
H69    H     0.28949   0.15579   0.42882   0.00000  Uiso   1.00
H70    H     0.28094   0.21656   0.42880   0.00000  Uiso   1.00
O71    O     0.43892   0.20487   0.24999   0.00000  Uiso   1.00
O72    O     0.56108   0.12846   0.25000   0.00000  Uiso   1.00
O73    O     0.56108   0.20487   0.25000   0.00000  Uiso   1.00
O74    O     0.43892   0.12846   0.24999   0.00000  Uiso   1.00
C75    C     0.41999   0.16670   0.24971   0.00000  Uiso   1.00
C76    C     0.58001   0.16663   0.25028   0.00000  Uiso   1.00
O77    O     0.49999   0.20489   0.18392   0.00000  Uiso   1.00
O78    O     0.50001   0.12844   0.31607   0.00000  Uiso   1.00
O79    O     0.50001   0.20489   0.31607   0.00000  Uiso   1.00
O80    O     0.49999   0.12844   0.18392   0.00000  Uiso   1.00
C81    C     0.50054   0.16667   0.16363   0.00000  Uiso   1.00
C82    C     0.49946   0.16666   0.33637   0.00000  Uiso   1.00
Zn83   Zn    0.50000   0.21771   0.25000   0.00000  Uiso   1.00
Zn84   Zn    0.50000   0.11563   0.25000   0.00000  Uiso   1.00
C85    C     0.53538   0.17297   0.40587   0.00000  Uiso   1.00
C86    C     0.46462   0.16037   0.09413   0.00000  Uiso   1.00
C87    C     0.49782   0.16667   0.38392   0.00000  Uiso   1.00
C88    C     0.50218   0.16666   0.11608   0.00000  Uiso   1.00
C89    C     0.46001   0.16052   0.40682   0.00000  Uiso   1.00
C90    C     0.53999   0.17282   0.09318   0.00000  Uiso   1.00
C91    C     0.46092   0.16047   0.45390   0.00000  Uiso   1.00
C92    C     0.53908   0.17286   0.04610   0.00000  Uiso   1.00
C93    C     0.49950   0.16670   0.47654   0.00000  Uiso   1.00
C94    C     0.50050   0.16664   0.02346   0.00000  Uiso   1.00
C95    C     0.53705   0.17300   0.45225   0.00000  Uiso   1.00
C96    C     0.46295   0.16034   0.04775   0.00000  Uiso   1.00
C97    C     0.42413   0.15437   0.47874   0.00000  Uiso   1.00
C98    C     0.57587   0.17896   0.02126   0.00000  Uiso   1.00
C99    C     0.42463   0.15423   0.02527   0.00000  Uiso   1.00
C100   C     0.57537   0.17910   0.47473   0.00000  Uiso   1.00
H101   H     0.56331   0.17757   0.38594   0.00000  Uiso   1.00
H102   H     0.43669   0.15576   0.11406   0.00000  Uiso   1.00
H103   H     0.39446   0.14959   0.46223   0.00000  Uiso   1.00
H104   H     0.60554   0.18374   0.03776   0.00000  Uiso   1.00
C105   C     0.35474   0.12771   0.23636   0.00000  Uiso   1.00
C106   C     0.64526   0.20562   0.26364   0.00000  Uiso   1.00
C107   C     0.64535   0.12765   0.23659   0.00000  Uiso   1.00
C108   C     0.35465   0.20569   0.26341   0.00000  Uiso   1.00
H109   H     0.37114   0.09758   0.22539   0.00000  Uiso   1.00
H110   H     0.62886   0.23576   0.27461   0.00000  Uiso   1.00
H111   H     0.62902   0.09749   0.22576   0.00000  Uiso   1.00
H112   H     0.37098   0.23585   0.27424   0.00000  Uiso   1.00
C113   C     0.62416   0.16661   0.25023   0.00000  Uiso   1.00
C114   C     0.37584   0.16673   0.24977   0.00000  Uiso   1.00
C115   C     0.52727   0.02391   0.27626   0.00000  Uiso   1.00
C116   C     0.47273   0.30943   0.22374   0.00000  Uiso   1.00
C117   C     0.47273   0.02404   0.22374   0.00000  Uiso   1.00
C118   C     0.52727   0.30929   0.27626   0.00000  Uiso   1.00
H119   H     0.54907   0.04200   0.29727   0.00000  Uiso   1.00
H120   H     0.45093   0.29133   0.20272   0.00000  Uiso   1.00
H121   H     0.45092   0.04225   0.20273   0.00000  Uiso   1.00
H122   H     0.54908   0.29109   0.29727   0.00000  Uiso   1.00
N123   N     0.50000   0.28573   0.25000   0.00000  Uiso   1.00
N124   N     0.50000   0.04760   0.25000   0.00000  Uiso   1.00
C125   C     0.41919   0.15454   0.38150   0.00000  Uiso   1.00
H126   H     0.42260   0.15587   0.34469   0.00000  Uiso   1.00
H127   H     0.40535   0.12114   0.38976   0.00000  Uiso   1.00
H128   H     0.39709   0.18193   0.39082   0.00000  Uiso   1.00
C129   C     0.58081   0.17879   0.11850   0.00000  Uiso   1.00
H130   H     0.57740   0.17746   0.15531   0.00000  Uiso   1.00
H131   H     0.60291   0.15140   0.10918   0.00000  Uiso   1.00
H132   H     0.59465   0.21219   0.11023   0.00000  Uiso   1.00
C133   C     0.38388   0.14756   0.04995   0.00000  Uiso   1.00
H134   H     0.35712   0.14315   0.02674   0.00000  Uiso   1.00
H135   H     0.38573   0.11678   0.07120   0.00000  Uiso   1.00
H136   H     0.37717   0.17754   0.07118   0.00000  Uiso   1.00
C137   C     0.61612   0.18578   0.45005   0.00000  Uiso   1.00
H138   H     0.64288   0.19018   0.47326   0.00000  Uiso   1.00
H139   H     0.62283   0.15579   0.42882   0.00000  Uiso   1.00
H140   H     0.61427   0.21656   0.42880   0.00000  Uiso   1.00
O141   O     0.77226   0.20487   0.24999   0.00000  Uiso   1.00
O142   O     0.89441   0.12846   0.25000   0.00000  Uiso   1.00
O143   O     0.89441   0.20487   0.25000   0.00000  Uiso   1.00
O144   O     0.77226   0.12846   0.24999   0.00000  Uiso   1.00
C145   C     0.75332   0.16670   0.24971   0.00000  Uiso   1.00
C146   C     0.91335   0.16663   0.25028   0.00000  Uiso   1.00
O147   O     0.83333   0.20489   0.18392   0.00000  Uiso   1.00
O148   O     0.83334   0.12844   0.31607   0.00000  Uiso   1.00
O149   O     0.83334   0.20489   0.31607   0.00000  Uiso   1.00
O150   O     0.83333   0.12844   0.18392   0.00000  Uiso   1.00
C151   C     0.83387   0.16667   0.16363   0.00000  Uiso   1.00
C152   C     0.83279   0.16666   0.33637   0.00000  Uiso   1.00
Zn153  Zn    0.83333   0.21771   0.25000   0.00000  Uiso   1.00
Zn154  Zn    0.83333   0.11563   0.25000   0.00000  Uiso   1.00
C155   C     0.86871   0.17297   0.40587   0.00000  Uiso   1.00
C156   C     0.79795   0.16037   0.09413   0.00000  Uiso   1.00
C157   C     0.83115   0.16667   0.38392   0.00000  Uiso   1.00
C158   C     0.83551   0.16666   0.11608   0.00000  Uiso   1.00
C159   C     0.79334   0.16052   0.40682   0.00000  Uiso   1.00
C160   C     0.87333   0.17282   0.09318   0.00000  Uiso   1.00
C161   C     0.79425   0.16047   0.45390   0.00000  Uiso   1.00
C162   C     0.87242   0.17286   0.04610   0.00000  Uiso   1.00
C163   C     0.83283   0.16670   0.47654   0.00000  Uiso   1.00
C164   C     0.83384   0.16664   0.02346   0.00000  Uiso   1.00
C165   C     0.87038   0.17300   0.45225   0.00000  Uiso   1.00
C166   C     0.79629   0.16034   0.04775   0.00000  Uiso   1.00
C167   C     0.75747   0.15437   0.47874   0.00000  Uiso   1.00
C168   C     0.90920   0.17896   0.02126   0.00000  Uiso   1.00
C169   C     0.75796   0.15423   0.02527   0.00000  Uiso   1.00
C170   C     0.90870   0.17910   0.47473   0.00000  Uiso   1.00
H171   H     0.89664   0.17757   0.38594   0.00000  Uiso   1.00
H172   H     0.77003   0.15576   0.11406   0.00000  Uiso   1.00
H173   H     0.72779   0.14959   0.46223   0.00000  Uiso   1.00
H174   H     0.93887   0.18374   0.03776   0.00000  Uiso   1.00
C175   C     0.68807   0.12771   0.23636   0.00000  Uiso   1.00
C176   C     0.97860   0.20562   0.26364   0.00000  Uiso   1.00
C177   C     0.97868   0.12765   0.23659   0.00000  Uiso   1.00
C178   C     0.68798   0.20569   0.26341   0.00000  Uiso   1.00
H179   H     0.70448   0.09758   0.22539   0.00000  Uiso   1.00
H180   H     0.96219   0.23576   0.27461   0.00000  Uiso   1.00
H181   H     0.96235   0.09749   0.22576   0.00000  Uiso   1.00
H182   H     0.70432   0.23585   0.27424   0.00000  Uiso   1.00
C183   C     0.95749   0.16661   0.25023   0.00000  Uiso   1.00
C184   C     0.70918   0.16673   0.24977   0.00000  Uiso   1.00
C185   C     0.86060   0.02391   0.27626   0.00000  Uiso   1.00
C186   C     0.80606   0.30943   0.22374   0.00000  Uiso   1.00
C187   C     0.80606   0.02404   0.22374   0.00000  Uiso   1.00
C188   C     0.86060   0.30929   0.27626   0.00000  Uiso   1.00
H189   H     0.88241   0.04200   0.29727   0.00000  Uiso   1.00
H190   H     0.78426   0.29133   0.20272   0.00000  Uiso   1.00
H191   H     0.78426   0.04225   0.20273   0.00000  Uiso   1.00
H192   H     0.88241   0.29109   0.29727   0.00000  Uiso   1.00
N193   N     0.83333   0.28573   0.25000   0.00000  Uiso   1.00
N194   N     0.83333   0.04760   0.25000   0.00000  Uiso   1.00
C195   C     0.75253   0.15454   0.38150   0.00000  Uiso   1.00
H196   H     0.75593   0.15587   0.34469   0.00000  Uiso   1.00
H197   H     0.73868   0.12114   0.38976   0.00000  Uiso   1.00
H198   H     0.73042   0.18193   0.39082   0.00000  Uiso   1.00
C199   C     0.91414   0.17879   0.11850   0.00000  Uiso   1.00
H200   H     0.91074   0.17746   0.15531   0.00000  Uiso   1.00
H201   H     0.93625   0.15140   0.10918   0.00000  Uiso   1.00
H202   H     0.92799   0.21219   0.11023   0.00000  Uiso   1.00
C203   C     0.71721   0.14756   0.04995   0.00000  Uiso   1.00
H204   H     0.69046   0.14315   0.02674   0.00000  Uiso   1.00
H205   H     0.71906   0.11678   0.07120   0.00000  Uiso   1.00
H206   H     0.71050   0.17754   0.07118   0.00000  Uiso   1.00
C207   C     0.94946   0.18578   0.45005   0.00000  Uiso   1.00
H208   H     0.97621   0.19018   0.47326   0.00000  Uiso   1.00
H209   H     0.95616   0.15579   0.42882   0.00000  Uiso   1.00
H210   H     0.94760   0.21656   0.42880   0.00000  Uiso   1.00
O211   O     0.10559   0.53821   0.24999   0.00000  Uiso   1.00
O212   O     0.22774   0.46179   0.25000   0.00000  Uiso   1.00
O213   O     0.22774   0.53821   0.25000   0.00000  Uiso   1.00
O214   O     0.10559   0.46179   0.24999   0.00000  Uiso   1.00
C215   C     0.08665   0.50003   0.24971   0.00000  Uiso   1.00
C216   C     0.24668   0.49997   0.25028   0.00000  Uiso   1.00
O217   O     0.16666   0.53823   0.18392   0.00000  Uiso   1.00
O218   O     0.16667   0.46177   0.31607   0.00000  Uiso   1.00
O219   O     0.16667   0.53823   0.31607   0.00000  Uiso   1.00
O220   O     0.16666   0.46177   0.18392   0.00000  Uiso   1.00
C221   C     0.16721   0.50001   0.16363   0.00000  Uiso   1.00
C222   C     0.16613   0.49999   0.33637   0.00000  Uiso   1.00
Zn223  Zn    0.16667   0.55104   0.25000   0.00000  Uiso   1.00
Zn224  Zn    0.16667   0.44896   0.25000   0.00000  Uiso   1.00
C225   C     0.20205   0.50630   0.40587   0.00000  Uiso   1.00
C226   C     0.13129   0.49370   0.09413   0.00000  Uiso   1.00
C227   C     0.16449   0.50000   0.38392   0.00000  Uiso   1.00
C228   C     0.16884   0.50000   0.11608   0.00000  Uiso   1.00
C229   C     0.12667   0.49385   0.40682   0.00000  Uiso   1.00
C230   C     0.20666   0.50615   0.09318   0.00000  Uiso   1.00
C231   C     0.12758   0.49381   0.45390   0.00000  Uiso   1.00
C232   C     0.20575   0.50619   0.04610   0.00000  Uiso   1.00
C233   C     0.16616   0.50003   0.47654   0.00000  Uiso   1.00
C234   C     0.16717   0.49997   0.02346   0.00000  Uiso   1.00
C235   C     0.20371   0.50633   0.45225   0.00000  Uiso   1.00
C236   C     0.12962   0.49367   0.04775   0.00000  Uiso   1.00
C237   C     0.09080   0.48770   0.47874   0.00000  Uiso   1.00
C238   C     0.24253   0.51230   0.02126   0.00000  Uiso   1.00
C239   C     0.09130   0.48757   0.02527   0.00000  Uiso   1.00
C240   C     0.24204   0.51243   0.47473   0.00000  Uiso   1.00
H241   H     0.22997   0.51091   0.38594   0.00000  Uiso   1.00
H242   H     0.10336   0.48909   0.11406   0.00000  Uiso   1.00
H243   H     0.06112   0.48292   0.46223   0.00000  Uiso   1.00
H244   H     0.27221   0.51708   0.03776   0.00000  Uiso   1.00
C245   C     0.02140   0.46104   0.23636   0.00000  Uiso   1.00
C246   C     0.31193   0.53896   0.26364   0.00000  Uiso   1.00
C247   C     0.31202   0.46098   0.23659   0.00000  Uiso   1.00
C248   C     0.02132   0.53902   0.26341   0.00000  Uiso   1.00
H249   H     0.03781   0.43091   0.22539   0.00000  Uiso   1.00
H250   H     0.29552   0.56909   0.27461   0.00000  Uiso   1.00
H251   H     0.29568   0.43082   0.22576   0.00000  Uiso   1.00
H252   H     0.03765   0.56918   0.27424   0.00000  Uiso   1.00
C253   C     0.29082   0.49994   0.25023   0.00000  Uiso   1.00
C254   C     0.04251   0.50006   0.24977   0.00000  Uiso   1.00
C255   C     0.19394   0.35724   0.27626   0.00000  Uiso   1.00
C256   C     0.13940   0.64276   0.22374   0.00000  Uiso   1.00
C257   C     0.13940   0.35738   0.22374   0.00000  Uiso   1.00
C258   C     0.19394   0.64262   0.27626   0.00000  Uiso   1.00
H259   H     0.21574   0.37534   0.29727   0.00000  Uiso   1.00
H260   H     0.11759   0.62466   0.20272   0.00000  Uiso   1.00
H261   H     0.11759   0.37558   0.20273   0.00000  Uiso   1.00
H262   H     0.21574   0.62442   0.29727   0.00000  Uiso   1.00
N263   N     0.16667   0.61907   0.25000   0.00000  Uiso   1.00
N264   N     0.16667   0.38093   0.25000   0.00000  Uiso   1.00
C265   C     0.08586   0.48787   0.38150   0.00000  Uiso   1.00
H266   H     0.08926   0.48921   0.34469   0.00000  Uiso   1.00
H267   H     0.07201   0.45448   0.38976   0.00000  Uiso   1.00
H268   H     0.06375   0.51527   0.39082   0.00000  Uiso   1.00
C269   C     0.24747   0.51213   0.11850   0.00000  Uiso   1.00
H270   H     0.24407   0.51079   0.15531   0.00000  Uiso   1.00
H271   H     0.26958   0.48473   0.10918   0.00000  Uiso   1.00
H272   H     0.26132   0.54552   0.11023   0.00000  Uiso   1.00
C273   C     0.05054   0.48089   0.04995   0.00000  Uiso   1.00
H274   H     0.02379   0.47648   0.02674   0.00000  Uiso   1.00
H275   H     0.05240   0.45011   0.07120   0.00000  Uiso   1.00
H276   H     0.04384   0.51087   0.07118   0.00000  Uiso   1.00
C277   C     0.28279   0.51911   0.45005   0.00000  Uiso   1.00
H278   H     0.30954   0.52352   0.47326   0.00000  Uiso   1.00
H279   H     0.28949   0.48913   0.42882   0.00000  Uiso   1.00
H280   H     0.28094   0.54989   0.42880   0.00000  Uiso   1.00
O281   O     0.43892   0.53821   0.24999   0.00000  Uiso   1.00
O282   O     0.56108   0.46179   0.25000   0.00000  Uiso   1.00
O283   O     0.56108   0.53821   0.25000   0.00000  Uiso   1.00
O284   O     0.43892   0.46179   0.24999   0.00000  Uiso   1.00
C285   C     0.41999   0.50003   0.24971   0.00000  Uiso   1.00
C286   C     0.58001   0.49997   0.25028   0.00000  Uiso   1.00
O287   O     0.49999   0.53823   0.18392   0.00000  Uiso   1.00
O288   O     0.50001   0.46177   0.31607   0.00000  Uiso   1.00
O289   O     0.50001   0.53823   0.31607   0.00000  Uiso   1.00
O290   O     0.49999   0.46177   0.18392   0.00000  Uiso   1.00
C291   C     0.50054   0.50001   0.16363   0.00000  Uiso   1.00
C292   C     0.49946   0.49999   0.33637   0.00000  Uiso   1.00
Zn293  Zn    0.50000   0.55104   0.25000   0.00000  Uiso   1.00
Zn294  Zn    0.50000   0.44896   0.25000   0.00000  Uiso   1.00
C295   C     0.53538   0.50630   0.40587   0.00000  Uiso   1.00
C296   C     0.46462   0.49370   0.09413   0.00000  Uiso   1.00
C297   C     0.49782   0.50000   0.38392   0.00000  Uiso   1.00
C298   C     0.50218   0.50000   0.11608   0.00000  Uiso   1.00
C299   C     0.46001   0.49385   0.40682   0.00000  Uiso   1.00
C300   C     0.53999   0.50615   0.09318   0.00000  Uiso   1.00
C301   C     0.46092   0.49381   0.45390   0.00000  Uiso   1.00
C302   C     0.53908   0.50619   0.04610   0.00000  Uiso   1.00
C303   C     0.49950   0.50003   0.47654   0.00000  Uiso   1.00
C304   C     0.50050   0.49997   0.02346   0.00000  Uiso   1.00
C305   C     0.53705   0.50633   0.45225   0.00000  Uiso   1.00
C306   C     0.46295   0.49367   0.04775   0.00000  Uiso   1.00
C307   C     0.42413   0.48770   0.47874   0.00000  Uiso   1.00
C308   C     0.57587   0.51230   0.02126   0.00000  Uiso   1.00
C309   C     0.42463   0.48757   0.02527   0.00000  Uiso   1.00
C310   C     0.57537   0.51243   0.47473   0.00000  Uiso   1.00
H311   H     0.56331   0.51091   0.38594   0.00000  Uiso   1.00
H312   H     0.43669   0.48909   0.11406   0.00000  Uiso   1.00
H313   H     0.39446   0.48292   0.46223   0.00000  Uiso   1.00
H314   H     0.60554   0.51708   0.03776   0.00000  Uiso   1.00
C315   C     0.35474   0.46104   0.23636   0.00000  Uiso   1.00
C316   C     0.64526   0.53896   0.26364   0.00000  Uiso   1.00
C317   C     0.64535   0.46098   0.23659   0.00000  Uiso   1.00
C318   C     0.35465   0.53902   0.26341   0.00000  Uiso   1.00
H319   H     0.37114   0.43091   0.22539   0.00000  Uiso   1.00
H320   H     0.62886   0.56909   0.27461   0.00000  Uiso   1.00
H321   H     0.62902   0.43082   0.22576   0.00000  Uiso   1.00
H322   H     0.37098   0.56918   0.27424   0.00000  Uiso   1.00
C323   C     0.62416   0.49994   0.25023   0.00000  Uiso   1.00
C324   C     0.37584   0.50006   0.24977   0.00000  Uiso   1.00
C325   C     0.52727   0.35724   0.27626   0.00000  Uiso   1.00
C326   C     0.47273   0.64276   0.22374   0.00000  Uiso   1.00
C327   C     0.47273   0.35738   0.22374   0.00000  Uiso   1.00
C328   C     0.52727   0.64262   0.27626   0.00000  Uiso   1.00
H329   H     0.54907   0.37534   0.29727   0.00000  Uiso   1.00
H330   H     0.45093   0.62466   0.20272   0.00000  Uiso   1.00
H331   H     0.45092   0.37558   0.20273   0.00000  Uiso   1.00
H332   H     0.54908   0.62442   0.29727   0.00000  Uiso   1.00
N333   N     0.50000   0.61907   0.25000   0.00000  Uiso   1.00
N334   N     0.50000   0.38093   0.25000   0.00000  Uiso   1.00
C335   C     0.41919   0.48787   0.38150   0.00000  Uiso   1.00
H336   H     0.42260   0.48921   0.34469   0.00000  Uiso   1.00
H337   H     0.40535   0.45448   0.38976   0.00000  Uiso   1.00
H338   H     0.39709   0.51527   0.39082   0.00000  Uiso   1.00
C339   C     0.58081   0.51213   0.11850   0.00000  Uiso   1.00
H340   H     0.57740   0.51079   0.15531   0.00000  Uiso   1.00
H341   H     0.60291   0.48473   0.10918   0.00000  Uiso   1.00
H342   H     0.59465   0.54552   0.11023   0.00000  Uiso   1.00
C343   C     0.38388   0.48089   0.04995   0.00000  Uiso   1.00
H344   H     0.35712   0.47648   0.02674   0.00000  Uiso   1.00
H345   H     0.38573   0.45011   0.07120   0.00000  Uiso   1.00
H346   H     0.37717   0.51087   0.07118   0.00000  Uiso   1.00
C347   C     0.61612   0.51911   0.45005   0.00000  Uiso   1.00
H348   H     0.64288   0.52352   0.47326   0.00000  Uiso   1.00
H349   H     0.62283   0.48913   0.42882   0.00000  Uiso   1.00
H350   H     0.61427   0.54989   0.42880   0.00000  Uiso   1.00
O351   O     0.77226   0.53821   0.24999   0.00000  Uiso   1.00
O352   O     0.89441   0.46179   0.25000   0.00000  Uiso   1.00
O353   O     0.89441   0.53821   0.25000   0.00000  Uiso   1.00
O354   O     0.77226   0.46179   0.24999   0.00000  Uiso   1.00
C355   C     0.75332   0.50003   0.24971   0.00000  Uiso   1.00
C356   C     0.91335   0.49997   0.25028   0.00000  Uiso   1.00
O357   O     0.83333   0.53823   0.18392   0.00000  Uiso   1.00
O358   O     0.83334   0.46177   0.31607   0.00000  Uiso   1.00
O359   O     0.83334   0.53823   0.31607   0.00000  Uiso   1.00
O360   O     0.83333   0.46177   0.18392   0.00000  Uiso   1.00
C361   C     0.83387   0.50001   0.16363   0.00000  Uiso   1.00
C362   C     0.83279   0.49999   0.33637   0.00000  Uiso   1.00
Zn363  Zn    0.83333   0.55104   0.25000   0.00000  Uiso   1.00
Zn364  Zn    0.83333   0.44896   0.25000   0.00000  Uiso   1.00
C365   C     0.86871   0.50630   0.40587   0.00000  Uiso   1.00
C366   C     0.79795   0.49370   0.09413   0.00000  Uiso   1.00
C367   C     0.83115   0.50000   0.38392   0.00000  Uiso   1.00
C368   C     0.83551   0.50000   0.11608   0.00000  Uiso   1.00
C369   C     0.79334   0.49385   0.40682   0.00000  Uiso   1.00
C370   C     0.87333   0.50615   0.09318   0.00000  Uiso   1.00
C371   C     0.79425   0.49381   0.45390   0.00000  Uiso   1.00
C372   C     0.87242   0.50619   0.04610   0.00000  Uiso   1.00
C373   C     0.83283   0.50003   0.47654   0.00000  Uiso   1.00
C374   C     0.83384   0.49997   0.02346   0.00000  Uiso   1.00
C375   C     0.87038   0.50633   0.45225   0.00000  Uiso   1.00
C376   C     0.79629   0.49367   0.04775   0.00000  Uiso   1.00
C377   C     0.75747   0.48770   0.47874   0.00000  Uiso   1.00
C378   C     0.90920   0.51230   0.02126   0.00000  Uiso   1.00
C379   C     0.75796   0.48757   0.02527   0.00000  Uiso   1.00
C380   C     0.90870   0.51243   0.47473   0.00000  Uiso   1.00
H381   H     0.89664   0.51091   0.38594   0.00000  Uiso   1.00
H382   H     0.77003   0.48909   0.11406   0.00000  Uiso   1.00
H383   H     0.72779   0.48292   0.46223   0.00000  Uiso   1.00
H384   H     0.93887   0.51708   0.03776   0.00000  Uiso   1.00
C385   C     0.68807   0.46104   0.23636   0.00000  Uiso   1.00
C386   C     0.97860   0.53896   0.26364   0.00000  Uiso   1.00
C387   C     0.97868   0.46098   0.23659   0.00000  Uiso   1.00
C388   C     0.68798   0.53902   0.26341   0.00000  Uiso   1.00
H389   H     0.70448   0.43091   0.22539   0.00000  Uiso   1.00
H390   H     0.96219   0.56909   0.27461   0.00000  Uiso   1.00
H391   H     0.96235   0.43082   0.22576   0.00000  Uiso   1.00
H392   H     0.70432   0.56918   0.27424   0.00000  Uiso   1.00
C393   C     0.95749   0.49994   0.25023   0.00000  Uiso   1.00
C394   C     0.70918   0.50006   0.24977   0.00000  Uiso   1.00
C395   C     0.86060   0.35724   0.27626   0.00000  Uiso   1.00
C396   C     0.80606   0.64276   0.22374   0.00000  Uiso   1.00
C397   C     0.80606   0.35738   0.22374   0.00000  Uiso   1.00
C398   C     0.86060   0.64262   0.27626   0.00000  Uiso   1.00
H399   H     0.88241   0.37534   0.29727   0.00000  Uiso   1.00
H400   H     0.78426   0.62466   0.20272   0.00000  Uiso   1.00
H401   H     0.78426   0.37558   0.20273   0.00000  Uiso   1.00
H402   H     0.88241   0.62442   0.29727   0.00000  Uiso   1.00
N403   N     0.83333   0.61907   0.25000   0.00000  Uiso   1.00
N404   N     0.83333   0.38093   0.25000   0.00000  Uiso   1.00
C405   C     0.75253   0.48787   0.38150   0.00000  Uiso   1.00
H406   H     0.75593   0.48921   0.34469   0.00000  Uiso   1.00
H407   H     0.73868   0.45448   0.38976   0.00000  Uiso   1.00
H408   H     0.73042   0.51527   0.39082   0.00000  Uiso   1.00
C409   C     0.91414   0.51213   0.11850   0.00000  Uiso   1.00
H410   H     0.91074   0.51079   0.15531   0.00000  Uiso   1.00
H411   H     0.93625   0.48473   0.10918   0.00000  Uiso   1.00
H412   H     0.92799   0.54552   0.11023   0.00000  Uiso   1.00
C413   C     0.71721   0.48089   0.04995   0.00000  Uiso   1.00
H414   H     0.69046   0.47648   0.02674   0.00000  Uiso   1.00
H415   H     0.71906   0.45011   0.07120   0.00000  Uiso   1.00
H416   H     0.71050   0.51087   0.07118   0.00000  Uiso   1.00
C417   C     0.94946   0.51911   0.45005   0.00000  Uiso   1.00
H418   H     0.97621   0.52352   0.47326   0.00000  Uiso   1.00
H419   H     0.95616   0.48913   0.42882   0.00000  Uiso   1.00
H420   H     0.94760   0.54989   0.42880   0.00000  Uiso   1.00
O421   O     0.10559   0.87154   0.24999   0.00000  Uiso   1.00
O422   O     0.22774   0.79513   0.25000   0.00000  Uiso   1.00
O423   O     0.22774   0.87154   0.25000   0.00000  Uiso   1.00
O424   O     0.10559   0.79513   0.24999   0.00000  Uiso   1.00
C425   C     0.08665   0.83337   0.24971   0.00000  Uiso   1.00
C426   C     0.24668   0.83330   0.25028   0.00000  Uiso   1.00
O427   O     0.16666   0.87156   0.18392   0.00000  Uiso   1.00
O428   O     0.16667   0.79511   0.31607   0.00000  Uiso   1.00
O429   O     0.16667   0.87156   0.31607   0.00000  Uiso   1.00
O430   O     0.16666   0.79511   0.18392   0.00000  Uiso   1.00
C431   C     0.16721   0.83334   0.16363   0.00000  Uiso   1.00
C432   C     0.16613   0.83333   0.33637   0.00000  Uiso   1.00
Zn433  Zn    0.16667   0.88437   0.25000   0.00000  Uiso   1.00
Zn434  Zn    0.16667   0.78229   0.25000   0.00000  Uiso   1.00
C435   C     0.20205   0.83963   0.40587   0.00000  Uiso   1.00
C436   C     0.13129   0.82703   0.09413   0.00000  Uiso   1.00
C437   C     0.16449   0.83334   0.38392   0.00000  Uiso   1.00
C438   C     0.16884   0.83333   0.11608   0.00000  Uiso   1.00
C439   C     0.12667   0.82718   0.40682   0.00000  Uiso   1.00
C440   C     0.20666   0.83948   0.09318   0.00000  Uiso   1.00
C441   C     0.12758   0.82714   0.45390   0.00000  Uiso   1.00
C442   C     0.20575   0.83953   0.04610   0.00000  Uiso   1.00
C443   C     0.16616   0.83336   0.47654   0.00000  Uiso   1.00
C444   C     0.16717   0.83330   0.02346   0.00000  Uiso   1.00
C445   C     0.20371   0.83966   0.45225   0.00000  Uiso   1.00
C446   C     0.12962   0.82700   0.04775   0.00000  Uiso   1.00
C447   C     0.09080   0.82104   0.47874   0.00000  Uiso   1.00
C448   C     0.24253   0.84563   0.02126   0.00000  Uiso   1.00
C449   C     0.09130   0.82090   0.02527   0.00000  Uiso   1.00
C450   C     0.24204   0.84577   0.47473   0.00000  Uiso   1.00
H451   H     0.22997   0.84424   0.38594   0.00000  Uiso   1.00
H452   H     0.10336   0.82243   0.11406   0.00000  Uiso   1.00
H453   H     0.06112   0.81626   0.46223   0.00000  Uiso   1.00
H454   H     0.27221   0.85041   0.03776   0.00000  Uiso   1.00
C455   C     0.02140   0.79438   0.23636   0.00000  Uiso   1.00
C456   C     0.31193   0.87229   0.26364   0.00000  Uiso   1.00
C457   C     0.31202   0.79431   0.23659   0.00000  Uiso   1.00
C458   C     0.02132   0.87235   0.26341   0.00000  Uiso   1.00
H459   H     0.03781   0.76424   0.22539   0.00000  Uiso   1.00
H460   H     0.29552   0.90242   0.27461   0.00000  Uiso   1.00
H461   H     0.29568   0.76415   0.22576   0.00000  Uiso   1.00
H462   H     0.03765   0.90251   0.27424   0.00000  Uiso   1.00
C463   C     0.29082   0.83327   0.25023   0.00000  Uiso   1.00
C464   C     0.04251   0.83339   0.24977   0.00000  Uiso   1.00
C465   C     0.19394   0.69057   0.27626   0.00000  Uiso   1.00
C466   C     0.13940   0.97609   0.22374   0.00000  Uiso   1.00
C467   C     0.13940   0.69071   0.22374   0.00000  Uiso   1.00
C468   C     0.19394   0.97596   0.27626   0.00000  Uiso   1.00
H469   H     0.21574   0.70867   0.29727   0.00000  Uiso   1.00
H470   H     0.11759   0.95800   0.20272   0.00000  Uiso   1.00
H471   H     0.11759   0.70891   0.20273   0.00000  Uiso   1.00
H472   H     0.21574   0.95775   0.29727   0.00000  Uiso   1.00
N473   N     0.16667   0.95240   0.25000   0.00000  Uiso   1.00
N474   N     0.16667   0.71427   0.25000   0.00000  Uiso   1.00
C475   C     0.08586   0.82121   0.38150   0.00000  Uiso   1.00
H476   H     0.08926   0.82254   0.34469   0.00000  Uiso   1.00
H477   H     0.07201   0.78781   0.38976   0.00000  Uiso   1.00
H478   H     0.06375   0.84860   0.39082   0.00000  Uiso   1.00
C479   C     0.24747   0.84546   0.11850   0.00000  Uiso   1.00
H480   H     0.24407   0.84413   0.15531   0.00000  Uiso   1.00
H481   H     0.26958   0.81807   0.10918   0.00000  Uiso   1.00
H482   H     0.26132   0.87886   0.11023   0.00000  Uiso   1.00
C483   C     0.05054   0.81422   0.04995   0.00000  Uiso   1.00
H484   H     0.02379   0.80982   0.02674   0.00000  Uiso   1.00
H485   H     0.05240   0.78344   0.07120   0.00000  Uiso   1.00
H486   H     0.04384   0.84421   0.07118   0.00000  Uiso   1.00
C487   C     0.28279   0.85244   0.45005   0.00000  Uiso   1.00
H488   H     0.30954   0.85685   0.47326   0.00000  Uiso   1.00
H489   H     0.28949   0.82246   0.42882   0.00000  Uiso   1.00
H490   H     0.28094   0.88322   0.42880   0.00000  Uiso   1.00
O491   O     0.43892   0.87154   0.24999   0.00000  Uiso   1.00
O492   O     0.56108   0.79513   0.25000   0.00000  Uiso   1.00
O493   O     0.56108   0.87154   0.25000   0.00000  Uiso   1.00
O494   O     0.43892   0.79513   0.24999   0.00000  Uiso   1.00
C495   C     0.41999   0.83337   0.24971   0.00000  Uiso   1.00
C496   C     0.58001   0.83330   0.25028   0.00000  Uiso   1.00
O497   O     0.49999   0.87156   0.18392   0.00000  Uiso   1.00
O498   O     0.50001   0.79511   0.31607   0.00000  Uiso   1.00
O499   O     0.50001   0.87156   0.31607   0.00000  Uiso   1.00
O500   O     0.49999   0.79511   0.18392   0.00000  Uiso   1.00
C501   C     0.50054   0.83334   0.16363   0.00000  Uiso   1.00
C502   C     0.49946   0.83333   0.33637   0.00000  Uiso   1.00
Zn503  Zn    0.50000   0.88437   0.25000   0.00000  Uiso   1.00
Zn504  Zn    0.50000   0.78229   0.25000   0.00000  Uiso   1.00
C505   C     0.53538   0.83963   0.40587   0.00000  Uiso   1.00
C506   C     0.46462   0.82703   0.09413   0.00000  Uiso   1.00
C507   C     0.49782   0.83334   0.38392   0.00000  Uiso   1.00
C508   C     0.50218   0.83333   0.11608   0.00000  Uiso   1.00
C509   C     0.46001   0.82718   0.40682   0.00000  Uiso   1.00
C510   C     0.53999   0.83948   0.09318   0.00000  Uiso   1.00
C511   C     0.46092   0.82714   0.45390   0.00000  Uiso   1.00
C512   C     0.53908   0.83953   0.04610   0.00000  Uiso   1.00
C513   C     0.49950   0.83336   0.47654   0.00000  Uiso   1.00
C514   C     0.50050   0.83330   0.02346   0.00000  Uiso   1.00
C515   C     0.53705   0.83966   0.45225   0.00000  Uiso   1.00
C516   C     0.46295   0.82700   0.04775   0.00000  Uiso   1.00
C517   C     0.42413   0.82104   0.47874   0.00000  Uiso   1.00
C518   C     0.57587   0.84563   0.02126   0.00000  Uiso   1.00
C519   C     0.42463   0.82090   0.02527   0.00000  Uiso   1.00
C520   C     0.57537   0.84577   0.47473   0.00000  Uiso   1.00
H521   H     0.56331   0.84424   0.38594   0.00000  Uiso   1.00
H522   H     0.43669   0.82243   0.11406   0.00000  Uiso   1.00
H523   H     0.39446   0.81626   0.46223   0.00000  Uiso   1.00
H524   H     0.60554   0.85041   0.03776   0.00000  Uiso   1.00
C525   C     0.35474   0.79438   0.23636   0.00000  Uiso   1.00
C526   C     0.64526   0.87229   0.26364   0.00000  Uiso   1.00
C527   C     0.64535   0.79431   0.23659   0.00000  Uiso   1.00
C528   C     0.35465   0.87235   0.26341   0.00000  Uiso   1.00
H529   H     0.37114   0.76424   0.22539   0.00000  Uiso   1.00
H530   H     0.62886   0.90242   0.27461   0.00000  Uiso   1.00
H531   H     0.62902   0.76415   0.22576   0.00000  Uiso   1.00
H532   H     0.37098   0.90251   0.27424   0.00000  Uiso   1.00
C533   C     0.62416   0.83327   0.25023   0.00000  Uiso   1.00
C534   C     0.37584   0.83339   0.24977   0.00000  Uiso   1.00
C535   C     0.52727   0.69057   0.27626   0.00000  Uiso   1.00
C536   C     0.47273   0.97609   0.22374   0.00000  Uiso   1.00
C537   C     0.47273   0.69071   0.22374   0.00000  Uiso   1.00
C538   C     0.52727   0.97596   0.27626   0.00000  Uiso   1.00
H539   H     0.54907   0.70867   0.29727   0.00000  Uiso   1.00
H540   H     0.45093   0.95800   0.20272   0.00000  Uiso   1.00
H541   H     0.45092   0.70891   0.20273   0.00000  Uiso   1.00
H542   H     0.54908   0.95775   0.29727   0.00000  Uiso   1.00
N543   N     0.50000   0.95240   0.25000   0.00000  Uiso   1.00
N544   N     0.50000   0.71427   0.25000   0.00000  Uiso   1.00
C545   C     0.41919   0.82121   0.38150   0.00000  Uiso   1.00
H546   H     0.42260   0.82254   0.34469   0.00000  Uiso   1.00
H547   H     0.40535   0.78781   0.38976   0.00000  Uiso   1.00
H548   H     0.39709   0.84860   0.39082   0.00000  Uiso   1.00
C549   C     0.58081   0.84546   0.11850   0.00000  Uiso   1.00
H550   H     0.57740   0.84413   0.15531   0.00000  Uiso   1.00
H551   H     0.60291   0.81807   0.10918   0.00000  Uiso   1.00
H552   H     0.59465   0.87886   0.11023   0.00000  Uiso   1.00
C553   C     0.38388   0.81422   0.04995   0.00000  Uiso   1.00
H554   H     0.35712   0.80982   0.02674   0.00000  Uiso   1.00
H555   H     0.38573   0.78344   0.07120   0.00000  Uiso   1.00
H556   H     0.37717   0.84421   0.07118   0.00000  Uiso   1.00
C557   C     0.61612   0.85244   0.45005   0.00000  Uiso   1.00
H558   H     0.64288   0.85685   0.47326   0.00000  Uiso   1.00
H559   H     0.62283   0.82246   0.42882   0.00000  Uiso   1.00
H560   H     0.61427   0.88322   0.42880   0.00000  Uiso   1.00
O561   O     0.77226   0.87154   0.24999   0.00000  Uiso   1.00
O562   O     0.89441   0.79513   0.25000   0.00000  Uiso   1.00
O563   O     0.89441   0.87154   0.25000   0.00000  Uiso   1.00
O564   O     0.77226   0.79513   0.24999   0.00000  Uiso   1.00
C565   C     0.75332   0.83337   0.24971   0.00000  Uiso   1.00
C566   C     0.91335   0.83330   0.25028   0.00000  Uiso   1.00
O567   O     0.83333   0.87156   0.18392   0.00000  Uiso   1.00
O568   O     0.83334   0.79511   0.31607   0.00000  Uiso   1.00
O569   O     0.83334   0.87156   0.31607   0.00000  Uiso   1.00
O570   O     0.83333   0.79511   0.18392   0.00000  Uiso   1.00
C571   C     0.83387   0.83334   0.16363   0.00000  Uiso   1.00
C572   C     0.83279   0.83333   0.33637   0.00000  Uiso   1.00
Zn573  Zn    0.83333   0.88437   0.25000   0.00000  Uiso   1.00
Zn574  Zn    0.83333   0.78229   0.25000   0.00000  Uiso   1.00
C575   C     0.86871   0.83963   0.40587   0.00000  Uiso   1.00
C576   C     0.79795   0.82703   0.09413   0.00000  Uiso   1.00
C577   C     0.83115   0.83334   0.38392   0.00000  Uiso   1.00
C578   C     0.83551   0.83333   0.11608   0.00000  Uiso   1.00
C579   C     0.79334   0.82718   0.40682   0.00000  Uiso   1.00
C580   C     0.87333   0.83948   0.09318   0.00000  Uiso   1.00
C581   C     0.79425   0.82714   0.45390   0.00000  Uiso   1.00
C582   C     0.87242   0.83953   0.04610   0.00000  Uiso   1.00
C583   C     0.83283   0.83336   0.47654   0.00000  Uiso   1.00
C584   C     0.83384   0.83330   0.02346   0.00000  Uiso   1.00
C585   C     0.87038   0.83966   0.45225   0.00000  Uiso   1.00
C586   C     0.79629   0.82700   0.04775   0.00000  Uiso   1.00
C587   C     0.75747   0.82104   0.47874   0.00000  Uiso   1.00
C588   C     0.90920   0.84563   0.02126   0.00000  Uiso   1.00
C589   C     0.75796   0.82090   0.02527   0.00000  Uiso   1.00
C590   C     0.90870   0.84577   0.47473   0.00000  Uiso   1.00
H591   H     0.89664   0.84424   0.38594   0.00000  Uiso   1.00
H592   H     0.77003   0.82243   0.11406   0.00000  Uiso   1.00
H593   H     0.72779   0.81626   0.46223   0.00000  Uiso   1.00
H594   H     0.93887   0.85041   0.03776   0.00000  Uiso   1.00
C595   C     0.68807   0.79438   0.23636   0.00000  Uiso   1.00
C596   C     0.97860   0.87229   0.26364   0.00000  Uiso   1.00
C597   C     0.97868   0.79431   0.23659   0.00000  Uiso   1.00
C598   C     0.68798   0.87235   0.26341   0.00000  Uiso   1.00
H599   H     0.70448   0.76424   0.22539   0.00000  Uiso   1.00
H600   H     0.96219   0.90242   0.27461   0.00000  Uiso   1.00
H601   H     0.96235   0.76415   0.22576   0.00000  Uiso   1.00
H602   H     0.70432   0.90251   0.27424   0.00000  Uiso   1.00
C603   C     0.95749   0.83327   0.25023   0.00000  Uiso   1.00
C604   C     0.70918   0.83339   0.24977   0.00000  Uiso   1.00
C605   C     0.86060   0.69057   0.27626   0.00000  Uiso   1.00
C606   C     0.80606   0.97609   0.22374   0.00000  Uiso   1.00
C607   C     0.80606   0.69071   0.22374   0.00000  Uiso   1.00
C608   C     0.86060   0.97596   0.27626   0.00000  Uiso   1.00
H609   H     0.88241   0.70867   0.29727   0.00000  Uiso   1.00
H610   H     0.78426   0.95800   0.20272   0.00000  Uiso   1.00
H611   H     0.78426   0.70891   0.20273   0.00000  Uiso   1.00
H612   H     0.88241   0.95775   0.29727   0.00000  Uiso   1.00
N613   N     0.83333   0.95240   0.25000   0.00000  Uiso   1.00
N614   N     0.83333   0.71427   0.25000   0.00000  Uiso   1.00
C615   C     0.75253   0.82121   0.38150   0.00000  Uiso   1.00
H616   H     0.75593   0.82254   0.34469   0.00000  Uiso   1.00
H617   H     0.73868   0.78781   0.38976   0.00000  Uiso   1.00
H618   H     0.73042   0.84860   0.39082   0.00000  Uiso   1.00
C619   C     0.91414   0.84546   0.11850   0.00000  Uiso   1.00
H620   H     0.91074   0.84413   0.15531   0.00000  Uiso   1.00
H621   H     0.93625   0.81807   0.10918   0.00000  Uiso   1.00
H622   H     0.92799   0.87886   0.11023   0.00000  Uiso   1.00
C623   C     0.71721   0.81422   0.04995   0.00000  Uiso   1.00
H624   H     0.69046   0.80982   0.02674   0.00000  Uiso   1.00
H625   H     0.71906   0.78344   0.07120   0.00000  Uiso   1.00
H626   H     0.71050   0.84421   0.07118   0.00000  Uiso   1.00
C627   C     0.94946   0.85244   0.45005   0.00000  Uiso   1.00
H628   H     0.97621   0.85685   0.47326   0.00000  Uiso   1.00
H629   H     0.95616   0.82246   0.42882   0.00000  Uiso   1.00
H630   H     0.94760   0.88322   0.42880   0.00000  Uiso   1.00
O631   O     0.10559   0.20487   0.74999   0.00000  Uiso   1.00
O632   O     0.22774   0.12846   0.75000   0.00000  Uiso   1.00
O633   O     0.22774   0.20487   0.75000   0.00000  Uiso   1.00
O634   O     0.10559   0.12846   0.74999   0.00000  Uiso   1.00
C635   C     0.08665   0.16670   0.74971   0.00000  Uiso   1.00
C636   C     0.24668   0.16663   0.75028   0.00000  Uiso   1.00
O637   O     0.16666   0.20489   0.68392   0.00000  Uiso   1.00
O638   O     0.16667   0.12844   0.81607   0.00000  Uiso   1.00
O639   O     0.16667   0.20489   0.81607   0.00000  Uiso   1.00
O640   O     0.16666   0.12844   0.68392   0.00000  Uiso   1.00
C641   C     0.16721   0.16667   0.66363   0.00000  Uiso   1.00
C642   C     0.16613   0.16666   0.83637   0.00000  Uiso   1.00
Zn643  Zn    0.16667   0.21771   0.75000   0.00000  Uiso   1.00
Zn644  Zn    0.16667   0.11563   0.75000   0.00000  Uiso   1.00
C645   C     0.20205   0.17297   0.90587   0.00000  Uiso   1.00
C646   C     0.13129   0.16037   0.59413   0.00000  Uiso   1.00
C647   C     0.16449   0.16667   0.88392   0.00000  Uiso   1.00
C648   C     0.16884   0.16666   0.61608   0.00000  Uiso   1.00
C649   C     0.12667   0.16052   0.90682   0.00000  Uiso   1.00
C650   C     0.20666   0.17282   0.59318   0.00000  Uiso   1.00
C651   C     0.12758   0.16047   0.95390   0.00000  Uiso   1.00
C652   C     0.20575   0.17286   0.54610   0.00000  Uiso   1.00
C653   C     0.16616   0.16670   0.97654   0.00000  Uiso   1.00
C654   C     0.16717   0.16664   0.52346   0.00000  Uiso   1.00
C655   C     0.20371   0.17300   0.95225   0.00000  Uiso   1.00
C656   C     0.12962   0.16034   0.54775   0.00000  Uiso   1.00
C657   C     0.09080   0.15437   0.97874   0.00000  Uiso   1.00
C658   C     0.24253   0.17896   0.52126   0.00000  Uiso   1.00
C659   C     0.09130   0.15423   0.52527   0.00000  Uiso   1.00
C660   C     0.24204   0.17910   0.97473   0.00000  Uiso   1.00
H661   H     0.22997   0.17757   0.88594   0.00000  Uiso   1.00
H662   H     0.10336   0.15576   0.61406   0.00000  Uiso   1.00
H663   H     0.06112   0.14959   0.96223   0.00000  Uiso   1.00
H664   H     0.27221   0.18374   0.53776   0.00000  Uiso   1.00
C665   C     0.02140   0.12771   0.73636   0.00000  Uiso   1.00
C666   C     0.31193   0.20562   0.76364   0.00000  Uiso   1.00
C667   C     0.31202   0.12765   0.73659   0.00000  Uiso   1.00
C668   C     0.02132   0.20569   0.76341   0.00000  Uiso   1.00
H669   H     0.03781   0.09758   0.72539   0.00000  Uiso   1.00
H670   H     0.29552   0.23576   0.77461   0.00000  Uiso   1.00
H671   H     0.29568   0.09749   0.72576   0.00000  Uiso   1.00
H672   H     0.03765   0.23585   0.77424   0.00000  Uiso   1.00
C673   C     0.29082   0.16661   0.75023   0.00000  Uiso   1.00
C674   C     0.04251   0.16673   0.74977   0.00000  Uiso   1.00
C675   C     0.19394   0.02391   0.77626   0.00000  Uiso   1.00
C676   C     0.13940   0.30943   0.72374   0.00000  Uiso   1.00
C677   C     0.13940   0.02404   0.72374   0.00000  Uiso   1.00
C678   C     0.19394   0.30929   0.77626   0.00000  Uiso   1.00
H679   H     0.21574   0.04200   0.79727   0.00000  Uiso   1.00
H680   H     0.11759   0.29133   0.70272   0.00000  Uiso   1.00
H681   H     0.11759   0.04225   0.70273   0.00000  Uiso   1.00
H682   H     0.21574   0.29109   0.79727   0.00000  Uiso   1.00
N683   N     0.16667   0.28573   0.75000   0.00000  Uiso   1.00
N684   N     0.16667   0.04760   0.75000   0.00000  Uiso   1.00
C685   C     0.08586   0.15454   0.88150   0.00000  Uiso   1.00
H686   H     0.08926   0.15587   0.84469   0.00000  Uiso   1.00
H687   H     0.07201   0.12114   0.88976   0.00000  Uiso   1.00
H688   H     0.06375   0.18193   0.89082   0.00000  Uiso   1.00
C689   C     0.24747   0.17879   0.61850   0.00000  Uiso   1.00
H690   H     0.24407   0.17746   0.65531   0.00000  Uiso   1.00
H691   H     0.26958   0.15140   0.60918   0.00000  Uiso   1.00
H692   H     0.26132   0.21219   0.61023   0.00000  Uiso   1.00
C693   C     0.05054   0.14756   0.54995   0.00000  Uiso   1.00
H694   H     0.02379   0.14315   0.52674   0.00000  Uiso   1.00
H695   H     0.05240   0.11678   0.57120   0.00000  Uiso   1.00
H696   H     0.04384   0.17754   0.57118   0.00000  Uiso   1.00
C697   C     0.28279   0.18578   0.95005   0.00000  Uiso   1.00
H698   H     0.30954   0.19018   0.97326   0.00000  Uiso   1.00
H699   H     0.28949   0.15579   0.92882   0.00000  Uiso   1.00
H700   H     0.28094   0.21656   0.92880   0.00000  Uiso   1.00
O701   O     0.43892   0.20487   0.74999   0.00000  Uiso   1.00
O702   O     0.56108   0.12846   0.75000   0.00000  Uiso   1.00
O703   O     0.56108   0.20487   0.75000   0.00000  Uiso   1.00
O704   O     0.43892   0.12846   0.74999   0.00000  Uiso   1.00
C705   C     0.41999   0.16670   0.74971   0.00000  Uiso   1.00
C706   C     0.58001   0.16663   0.75028   0.00000  Uiso   1.00
O707   O     0.49999   0.20489   0.68392   0.00000  Uiso   1.00
O708   O     0.50001   0.12844   0.81607   0.00000  Uiso   1.00
O709   O     0.50001   0.20489   0.81607   0.00000  Uiso   1.00
O710   O     0.49999   0.12844   0.68392   0.00000  Uiso   1.00
C711   C     0.50054   0.16667   0.66363   0.00000  Uiso   1.00
C712   C     0.49946   0.16666   0.83637   0.00000  Uiso   1.00
Zn713  Zn    0.50000   0.21771   0.75000   0.00000  Uiso   1.00
Zn714  Zn    0.50000   0.11563   0.75000   0.00000  Uiso   1.00
C715   C     0.53538   0.17297   0.90587   0.00000  Uiso   1.00
C716   C     0.46462   0.16037   0.59413   0.00000  Uiso   1.00
C717   C     0.49782   0.16667   0.88392   0.00000  Uiso   1.00
C718   C     0.50218   0.16666   0.61608   0.00000  Uiso   1.00
C719   C     0.46001   0.16052   0.90682   0.00000  Uiso   1.00
C720   C     0.53999   0.17282   0.59318   0.00000  Uiso   1.00
C721   C     0.46092   0.16047   0.95390   0.00000  Uiso   1.00
C722   C     0.53908   0.17286   0.54610   0.00000  Uiso   1.00
C723   C     0.49950   0.16670   0.97654   0.00000  Uiso   1.00
C724   C     0.50050   0.16664   0.52346   0.00000  Uiso   1.00
C725   C     0.53705   0.17300   0.95225   0.00000  Uiso   1.00
C726   C     0.46295   0.16034   0.54775   0.00000  Uiso   1.00
C727   C     0.42413   0.15437   0.97874   0.00000  Uiso   1.00
C728   C     0.57587   0.17896   0.52126   0.00000  Uiso   1.00
C729   C     0.42463   0.15423   0.52527   0.00000  Uiso   1.00
C730   C     0.57537   0.17910   0.97473   0.00000  Uiso   1.00
H731   H     0.56331   0.17757   0.88594   0.00000  Uiso   1.00
H732   H     0.43669   0.15576   0.61406   0.00000  Uiso   1.00
H733   H     0.39446   0.14959   0.96223   0.00000  Uiso   1.00
H734   H     0.60554   0.18374   0.53776   0.00000  Uiso   1.00
C735   C     0.35474   0.12771   0.73636   0.00000  Uiso   1.00
C736   C     0.64526   0.20562   0.76364   0.00000  Uiso   1.00
C737   C     0.64535   0.12765   0.73659   0.00000  Uiso   1.00
C738   C     0.35465   0.20569   0.76341   0.00000  Uiso   1.00
H739   H     0.37114   0.09758   0.72539   0.00000  Uiso   1.00
H740   H     0.62886   0.23576   0.77461   0.00000  Uiso   1.00
H741   H     0.62902   0.09749   0.72576   0.00000  Uiso   1.00
H742   H     0.37098   0.23585   0.77424   0.00000  Uiso   1.00
C743   C     0.62416   0.16661   0.75023   0.00000  Uiso   1.00
C744   C     0.37584   0.16673   0.74977   0.00000  Uiso   1.00
C745   C     0.52727   0.02391   0.77626   0.00000  Uiso   1.00
C746   C     0.47273   0.30943   0.72374   0.00000  Uiso   1.00
C747   C     0.47273   0.02404   0.72374   0.00000  Uiso   1.00
C748   C     0.52727   0.30929   0.77626   0.00000  Uiso   1.00
H749   H     0.54907   0.04200   0.79727   0.00000  Uiso   1.00
H750   H     0.45093   0.29133   0.70272   0.00000  Uiso   1.00
H751   H     0.45092   0.04225   0.70273   0.00000  Uiso   1.00
H752   H     0.54908   0.29109   0.79727   0.00000  Uiso   1.00
N753   N     0.50000   0.28573   0.75000   0.00000  Uiso   1.00
N754   N     0.50000   0.04760   0.75000   0.00000  Uiso   1.00
C755   C     0.41919   0.15454   0.88150   0.00000  Uiso   1.00
H756   H     0.42260   0.15587   0.84469   0.00000  Uiso   1.00
H757   H     0.40535   0.12114   0.88976   0.00000  Uiso   1.00
H758   H     0.39709   0.18193   0.89082   0.00000  Uiso   1.00
C759   C     0.58081   0.17879   0.61850   0.00000  Uiso   1.00
H760   H     0.57740   0.17746   0.65531   0.00000  Uiso   1.00
H761   H     0.60291   0.15140   0.60918   0.00000  Uiso   1.00
H762   H     0.59465   0.21219   0.61023   0.00000  Uiso   1.00
C763   C     0.38388   0.14756   0.54995   0.00000  Uiso   1.00
H764   H     0.35712   0.14315   0.52674   0.00000  Uiso   1.00
H765   H     0.38573   0.11678   0.57120   0.00000  Uiso   1.00
H766   H     0.37717   0.17754   0.57118   0.00000  Uiso   1.00
C767   C     0.61612   0.18578   0.95005   0.00000  Uiso   1.00
H768   H     0.64288   0.19018   0.97326   0.00000  Uiso   1.00
H769   H     0.62283   0.15579   0.92882   0.00000  Uiso   1.00
H770   H     0.61427   0.21656   0.92880   0.00000  Uiso   1.00
O771   O     0.77226   0.20487   0.74999   0.00000  Uiso   1.00
O772   O     0.89441   0.12846   0.75000   0.00000  Uiso   1.00
O773   O     0.89441   0.20487   0.75000   0.00000  Uiso   1.00
O774   O     0.77226   0.12846   0.74999   0.00000  Uiso   1.00
C775   C     0.75332   0.16670   0.74971   0.00000  Uiso   1.00
C776   C     0.91335   0.16663   0.75028   0.00000  Uiso   1.00
O777   O     0.83333   0.20489   0.68392   0.00000  Uiso   1.00
O778   O     0.83334   0.12844   0.81607   0.00000  Uiso   1.00
O779   O     0.83334   0.20489   0.81607   0.00000  Uiso   1.00
O780   O     0.83333   0.12844   0.68392   0.00000  Uiso   1.00
C781   C     0.83387   0.16667   0.66363   0.00000  Uiso   1.00
C782   C     0.83279   0.16666   0.83637   0.00000  Uiso   1.00
Zn783  Zn    0.83333   0.21771   0.75000   0.00000  Uiso   1.00
Zn784  Zn    0.83333   0.11563   0.75000   0.00000  Uiso   1.00
C785   C     0.86871   0.17297   0.90587   0.00000  Uiso   1.00
C786   C     0.79795   0.16037   0.59413   0.00000  Uiso   1.00
C787   C     0.83115   0.16667   0.88392   0.00000  Uiso   1.00
C788   C     0.83551   0.16666   0.61608   0.00000  Uiso   1.00
C789   C     0.79334   0.16052   0.90682   0.00000  Uiso   1.00
C790   C     0.87333   0.17282   0.59318   0.00000  Uiso   1.00
C791   C     0.79425   0.16047   0.95390   0.00000  Uiso   1.00
C792   C     0.87242   0.17286   0.54610   0.00000  Uiso   1.00
C793   C     0.83283   0.16670   0.97654   0.00000  Uiso   1.00
C794   C     0.83384   0.16664   0.52346   0.00000  Uiso   1.00
C795   C     0.87038   0.17300   0.95225   0.00000  Uiso   1.00
C796   C     0.79629   0.16034   0.54775   0.00000  Uiso   1.00
C797   C     0.75747   0.15437   0.97874   0.00000  Uiso   1.00
C798   C     0.90920   0.17896   0.52126   0.00000  Uiso   1.00
C799   C     0.75796   0.15423   0.52527   0.00000  Uiso   1.00
C800   C     0.90870   0.17910   0.97473   0.00000  Uiso   1.00
H801   H     0.89664   0.17757   0.88594   0.00000  Uiso   1.00
H802   H     0.77003   0.15576   0.61406   0.00000  Uiso   1.00
H803   H     0.72779   0.14959   0.96223   0.00000  Uiso   1.00
H804   H     0.93887   0.18374   0.53776   0.00000  Uiso   1.00
C805   C     0.68807   0.12771   0.73636   0.00000  Uiso   1.00
C806   C     0.97860   0.20562   0.76364   0.00000  Uiso   1.00
C807   C     0.97868   0.12765   0.73659   0.00000  Uiso   1.00
C808   C     0.68798   0.20569   0.76341   0.00000  Uiso   1.00
H809   H     0.70448   0.09758   0.72539   0.00000  Uiso   1.00
H810   H     0.96219   0.23576   0.77461   0.00000  Uiso   1.00
H811   H     0.96235   0.09749   0.72576   0.00000  Uiso   1.00
H812   H     0.70432   0.23585   0.77424   0.00000  Uiso   1.00
C813   C     0.95749   0.16661   0.75023   0.00000  Uiso   1.00
C814   C     0.70918   0.16673   0.74977   0.00000  Uiso   1.00
C815   C     0.86060   0.02391   0.77626   0.00000  Uiso   1.00
C816   C     0.80606   0.30943   0.72374   0.00000  Uiso   1.00
C817   C     0.80606   0.02404   0.72374   0.00000  Uiso   1.00
C818   C     0.86060   0.30929   0.77626   0.00000  Uiso   1.00
H819   H     0.88241   0.04200   0.79727   0.00000  Uiso   1.00
H820   H     0.78426   0.29133   0.70272   0.00000  Uiso   1.00
H821   H     0.78426   0.04225   0.70273   0.00000  Uiso   1.00
H822   H     0.88241   0.29109   0.79727   0.00000  Uiso   1.00
N823   N     0.83333   0.28573   0.75000   0.00000  Uiso   1.00
N824   N     0.83333   0.04760   0.75000   0.00000  Uiso   1.00
C825   C     0.75253   0.15454   0.88150   0.00000  Uiso   1.00
H826   H     0.75593   0.15587   0.84469   0.00000  Uiso   1.00
H827   H     0.73868   0.12114   0.88976   0.00000  Uiso   1.00
H828   H     0.73042   0.18193   0.89082   0.00000  Uiso   1.00
C829   C     0.91414   0.17879   0.61850   0.00000  Uiso   1.00
H830   H     0.91074   0.17746   0.65531   0.00000  Uiso   1.00
H831   H     0.93625   0.15140   0.60918   0.00000  Uiso   1.00
H832   H     0.92799   0.21219   0.61023   0.00000  Uiso   1.00
C833   C     0.71721   0.14756   0.54995   0.00000  Uiso   1.00
H834   H     0.69046   0.14315   0.52674   0.00000  Uiso   1.00
H835   H     0.71906   0.11678   0.57120   0.00000  Uiso   1.00
H836   H     0.71050   0.17754   0.57118   0.00000  Uiso   1.00
C837   C     0.94946   0.18578   0.95005   0.00000  Uiso   1.00
H838   H     0.97621   0.19018   0.97326   0.00000  Uiso   1.00
H839   H     0.95616   0.15579   0.92882   0.00000  Uiso   1.00
H840   H     0.94760   0.21656   0.92880   0.00000  Uiso   1.00
O841   O     0.10559   0.53821   0.74999   0.00000  Uiso   1.00
O842   O     0.22774   0.46179   0.75000   0.00000  Uiso   1.00
O843   O     0.22774   0.53821   0.75000   0.00000  Uiso   1.00
O844   O     0.10559   0.46179   0.74999   0.00000  Uiso   1.00
C845   C     0.08665   0.50003   0.74971   0.00000  Uiso   1.00
C846   C     0.24668   0.49997   0.75028   0.00000  Uiso   1.00
O847   O     0.16666   0.53823   0.68392   0.00000  Uiso   1.00
O848   O     0.16667   0.46177   0.81607   0.00000  Uiso   1.00
O849   O     0.16667   0.53823   0.81607   0.00000  Uiso   1.00
O850   O     0.16666   0.46177   0.68392   0.00000  Uiso   1.00
C851   C     0.16721   0.50001   0.66363   0.00000  Uiso   1.00
C852   C     0.16613   0.49999   0.83637   0.00000  Uiso   1.00
Zn853  Zn    0.16667   0.55104   0.75000   0.00000  Uiso   1.00
Zn854  Zn    0.16667   0.44896   0.75000   0.00000  Uiso   1.00
C855   C     0.20205   0.50630   0.90587   0.00000  Uiso   1.00
C856   C     0.13129   0.49370   0.59413   0.00000  Uiso   1.00
C857   C     0.16449   0.50000   0.88392   0.00000  Uiso   1.00
C858   C     0.16884   0.50000   0.61608   0.00000  Uiso   1.00
C859   C     0.12667   0.49385   0.90682   0.00000  Uiso   1.00
C860   C     0.20666   0.50615   0.59318   0.00000  Uiso   1.00
C861   C     0.12758   0.49381   0.95390   0.00000  Uiso   1.00
C862   C     0.20575   0.50619   0.54610   0.00000  Uiso   1.00
C863   C     0.16616   0.50003   0.97654   0.00000  Uiso   1.00
C864   C     0.16717   0.49997   0.52346   0.00000  Uiso   1.00
C865   C     0.20371   0.50633   0.95225   0.00000  Uiso   1.00
C866   C     0.12962   0.49367   0.54775   0.00000  Uiso   1.00
C867   C     0.09080   0.48770   0.97874   0.00000  Uiso   1.00
C868   C     0.24253   0.51230   0.52126   0.00000  Uiso   1.00
C869   C     0.09130   0.48757   0.52527   0.00000  Uiso   1.00
C870   C     0.24204   0.51243   0.97473   0.00000  Uiso   1.00
H871   H     0.22997   0.51091   0.88594   0.00000  Uiso   1.00
H872   H     0.10336   0.48909   0.61406   0.00000  Uiso   1.00
H873   H     0.06112   0.48292   0.96223   0.00000  Uiso   1.00
H874   H     0.27221   0.51708   0.53776   0.00000  Uiso   1.00
C875   C     0.02140   0.46104   0.73636   0.00000  Uiso   1.00
C876   C     0.31193   0.53896   0.76364   0.00000  Uiso   1.00
C877   C     0.31202   0.46098   0.73659   0.00000  Uiso   1.00
C878   C     0.02132   0.53902   0.76341   0.00000  Uiso   1.00
H879   H     0.03781   0.43091   0.72539   0.00000  Uiso   1.00
H880   H     0.29552   0.56909   0.77461   0.00000  Uiso   1.00
H881   H     0.29568   0.43082   0.72576   0.00000  Uiso   1.00
H882   H     0.03765   0.56918   0.77424   0.00000  Uiso   1.00
C883   C     0.29082   0.49994   0.75023   0.00000  Uiso   1.00
C884   C     0.04251   0.50006   0.74977   0.00000  Uiso   1.00
C885   C     0.19394   0.35724   0.77626   0.00000  Uiso   1.00
C886   C     0.13940   0.64276   0.72374   0.00000  Uiso   1.00
C887   C     0.13940   0.35738   0.72374   0.00000  Uiso   1.00
C888   C     0.19394   0.64262   0.77626   0.00000  Uiso   1.00
H889   H     0.21574   0.37534   0.79727   0.00000  Uiso   1.00
H890   H     0.11759   0.62466   0.70272   0.00000  Uiso   1.00
H891   H     0.11759   0.37558   0.70273   0.00000  Uiso   1.00
H892   H     0.21574   0.62442   0.79727   0.00000  Uiso   1.00
N893   N     0.16667   0.61907   0.75000   0.00000  Uiso   1.00
N894   N     0.16667   0.38093   0.75000   0.00000  Uiso   1.00
C895   C     0.08586   0.48787   0.88150   0.00000  Uiso   1.00
H896   H     0.08926   0.48921   0.84469   0.00000  Uiso   1.00
H897   H     0.07201   0.45448   0.88976   0.00000  Uiso   1.00
H898   H     0.06375   0.51527   0.89082   0.00000  Uiso   1.00
C899   C     0.24747   0.51213   0.61850   0.00000  Uiso   1.00
H900   H     0.24407   0.51079   0.65531   0.00000  Uiso   1.00
H901   H     0.26958   0.48473   0.60918   0.00000  Uiso   1.00
H902   H     0.26132   0.54552   0.61023   0.00000  Uiso   1.00
C903   C     0.05054   0.48089   0.54995   0.00000  Uiso   1.00
H904   H     0.02379   0.47648   0.52674   0.00000  Uiso   1.00
H905   H     0.05240   0.45011   0.57120   0.00000  Uiso   1.00
H906   H     0.04384   0.51087   0.57118   0.00000  Uiso   1.00
C907   C     0.28279   0.51911   0.95005   0.00000  Uiso   1.00
H908   H     0.30954   0.52352   0.97326   0.00000  Uiso   1.00
H909   H     0.28949   0.48913   0.92882   0.00000  Uiso   1.00
H910   H     0.28094   0.54989   0.92880   0.00000  Uiso   1.00
O911   O     0.43892   0.53821   0.74999   0.00000  Uiso   1.00
O912   O     0.56108   0.46179   0.75000   0.00000  Uiso   1.00
O913   O     0.56108   0.53821   0.75000   0.00000  Uiso   1.00
O914   O     0.43892   0.46179   0.74999   0.00000  Uiso   1.00
C915   C     0.41999   0.50003   0.74971   0.00000  Uiso   1.00
C916   C     0.58001   0.49997   0.75028   0.00000  Uiso   1.00
O917   O     0.49999   0.53823   0.68392   0.00000  Uiso   1.00
O918   O     0.50001   0.46177   0.81607   0.00000  Uiso   1.00
O919   O     0.50001   0.53823   0.81607   0.00000  Uiso   1.00
O920   O     0.49999   0.46177   0.68392   0.00000  Uiso   1.00
C921   C     0.50054   0.50001   0.66363   0.00000  Uiso   1.00
C922   C     0.49946   0.49999   0.83637   0.00000  Uiso   1.00
Zn923  Zn    0.50000   0.55104   0.75000   0.00000  Uiso   1.00
Zn924  Zn    0.50000   0.44896   0.75000   0.00000  Uiso   1.00
C925   C     0.53538   0.50630   0.90587   0.00000  Uiso   1.00
C926   C     0.46462   0.49370   0.59413   0.00000  Uiso   1.00
C927   C     0.49782   0.50000   0.88392   0.00000  Uiso   1.00
C928   C     0.50218   0.50000   0.61608   0.00000  Uiso   1.00
C929   C     0.46001   0.49385   0.90682   0.00000  Uiso   1.00
C930   C     0.53999   0.50615   0.59318   0.00000  Uiso   1.00
C931   C     0.46092   0.49381   0.95390   0.00000  Uiso   1.00
C932   C     0.53908   0.50619   0.54610   0.00000  Uiso   1.00
C933   C     0.49950   0.50003   0.97654   0.00000  Uiso   1.00
C934   C     0.50050   0.49997   0.52346   0.00000  Uiso   1.00
C935   C     0.53705   0.50633   0.95225   0.00000  Uiso   1.00
C936   C     0.46295   0.49367   0.54775   0.00000  Uiso   1.00
C937   C     0.42413   0.48770   0.97874   0.00000  Uiso   1.00
C938   C     0.57587   0.51230   0.52126   0.00000  Uiso   1.00
C939   C     0.42463   0.48757   0.52527   0.00000  Uiso   1.00
C940   C     0.57537   0.51243   0.97473   0.00000  Uiso   1.00
H941   H     0.56331   0.51091   0.88594   0.00000  Uiso   1.00
H942   H     0.43669   0.48909   0.61406   0.00000  Uiso   1.00
H943   H     0.39446   0.48292   0.96223   0.00000  Uiso   1.00
H944   H     0.60554   0.51708   0.53776   0.00000  Uiso   1.00
C945   C     0.35474   0.46104   0.73636   0.00000  Uiso   1.00
C946   C     0.64526   0.53896   0.76364   0.00000  Uiso   1.00
C947   C     0.64535   0.46098   0.73659   0.00000  Uiso   1.00
C948   C     0.35465   0.53902   0.76341   0.00000  Uiso   1.00
H949   H     0.37114   0.43091   0.72539   0.00000  Uiso   1.00
H950   H     0.62886   0.56909   0.77461   0.00000  Uiso   1.00
H951   H     0.62902   0.43082   0.72576   0.00000  Uiso   1.00
H952   H     0.37098   0.56918   0.77424   0.00000  Uiso   1.00
C953   C     0.62416   0.49994   0.75023   0.00000  Uiso   1.00
C954   C     0.37584   0.50006   0.74977   0.00000  Uiso   1.00
C955   C     0.52727   0.35724   0.77626   0.00000  Uiso   1.00
C956   C     0.47273   0.64276   0.72374   0.00000  Uiso   1.00
C957   C     0.47273   0.35738   0.72374   0.00000  Uiso   1.00
C958   C     0.52727   0.64262   0.77626   0.00000  Uiso   1.00
H959   H     0.54907   0.37534   0.79727   0.00000  Uiso   1.00
H960   H     0.45093   0.62466   0.70272   0.00000  Uiso   1.00
H961   H     0.45092   0.37558   0.70273   0.00000  Uiso   1.00
H962   H     0.54908   0.62442   0.79727   0.00000  Uiso   1.00
N963   N     0.50000   0.61907   0.75000   0.00000  Uiso   1.00
N964   N     0.50000   0.38093   0.75000   0.00000  Uiso   1.00
C965   C     0.41919   0.48787   0.88150   0.00000  Uiso   1.00
H966   H     0.42260   0.48921   0.84469   0.00000  Uiso   1.00
H967   H     0.40535   0.45448   0.88976   0.00000  Uiso   1.00
H968   H     0.39709   0.51527   0.89082   0.00000  Uiso   1.00
C969   C     0.58081   0.51213   0.61850   0.00000  Uiso   1.00
H970   H     0.57740   0.51079   0.65531   0.00000  Uiso   1.00
H971   H     0.60291   0.48473   0.60918   0.00000  Uiso   1.00
H972   H     0.59465   0.54552   0.61023   0.00000  Uiso   1.00
C973   C     0.38388   0.48089   0.54995   0.00000  Uiso   1.00
H974   H     0.35712   0.47648   0.52674   0.00000  Uiso   1.00
H975   H     0.38573   0.45011   0.57120   0.00000  Uiso   1.00
H976   H     0.37717   0.51087   0.57118   0.00000  Uiso   1.00
C977   C     0.61612   0.51911   0.95005   0.00000  Uiso   1.00
H978   H     0.64288   0.52352   0.97326   0.00000  Uiso   1.00
H979   H     0.62283   0.48913   0.92882   0.00000  Uiso   1.00
H980   H     0.61427   0.54989   0.92880   0.00000  Uiso   1.00
O981   O     0.77226   0.53821   0.74999   0.00000  Uiso   1.00
O982   O     0.89441   0.46179   0.75000   0.00000  Uiso   1.00
O983   O     0.89441   0.53821   0.75000   0.00000  Uiso   1.00
O984   O     0.77226   0.46179   0.74999   0.00000  Uiso   1.00
C985   C     0.75332   0.50003   0.74971   0.00000  Uiso   1.00
C986   C     0.91335   0.49997   0.75028   0.00000  Uiso   1.00
O987   O     0.83333   0.53823   0.68392   0.00000  Uiso   1.00
O988   O     0.83334   0.46177   0.81607   0.00000  Uiso   1.00
O989   O     0.83334   0.53823   0.81607   0.00000  Uiso   1.00
O990   O     0.83333   0.46177   0.68392   0.00000  Uiso   1.00
C991   C     0.83387   0.50001   0.66363   0.00000  Uiso   1.00
C992   C     0.83279   0.49999   0.83637   0.00000  Uiso   1.00
Zn993  Zn    0.83333   0.55104   0.75000   0.00000  Uiso   1.00
Zn994  Zn    0.83333   0.44896   0.75000   0.00000  Uiso   1.00
C995   C     0.86871   0.50630   0.90587   0.00000  Uiso   1.00
C996   C     0.79795   0.49370   0.59413   0.00000  Uiso   1.00
C997   C     0.83115   0.50000   0.88392   0.00000  Uiso   1.00
C998   C     0.83551   0.50000   0.61608   0.00000  Uiso   1.00
C999   C     0.79334   0.49385   0.90682   0.00000  Uiso   1.00
C1000  C     0.87333   0.50615   0.59318   0.00000  Uiso   1.00
C1001  C     0.79425   0.49381   0.95390   0.00000  Uiso   1.00
C1002  C     0.87242   0.50619   0.54610   0.00000  Uiso   1.00
C1003  C     0.83283   0.50003   0.97654   0.00000  Uiso   1.00
C1004  C     0.83384   0.49997   0.52346   0.00000  Uiso   1.00
C1005  C     0.87038   0.50633   0.95225   0.00000  Uiso   1.00
C1006  C     0.79629   0.49367   0.54775   0.00000  Uiso   1.00
C1007  C     0.75747   0.48770   0.97874   0.00000  Uiso   1.00
C1008  C     0.90920   0.51230   0.52126   0.00000  Uiso   1.00
C1009  C     0.75796   0.48757   0.52527   0.00000  Uiso   1.00
C1010  C     0.90870   0.51243   0.97473   0.00000  Uiso   1.00
H1011  H     0.89664   0.51091   0.88594   0.00000  Uiso   1.00
H1012  H     0.77003   0.48909   0.61406   0.00000  Uiso   1.00
H1013  H     0.72779   0.48292   0.96223   0.00000  Uiso   1.00
H1014  H     0.93887   0.51708   0.53776   0.00000  Uiso   1.00
C1015  C     0.68807   0.46104   0.73636   0.00000  Uiso   1.00
C1016  C     0.97860   0.53896   0.76364   0.00000  Uiso   1.00
C1017  C     0.97868   0.46098   0.73659   0.00000  Uiso   1.00
C1018  C     0.68798   0.53902   0.76341   0.00000  Uiso   1.00
H1019  H     0.70448   0.43091   0.72539   0.00000  Uiso   1.00
H1020  H     0.96219   0.56909   0.77461   0.00000  Uiso   1.00
H1021  H     0.96235   0.43082   0.72576   0.00000  Uiso   1.00
H1022  H     0.70432   0.56918   0.77424   0.00000  Uiso   1.00
C1023  C     0.95749   0.49994   0.75023   0.00000  Uiso   1.00
C1024  C     0.70918   0.50006   0.74977   0.00000  Uiso   1.00
C1025  C     0.86060   0.35724   0.77626   0.00000  Uiso   1.00
C1026  C     0.80606   0.64276   0.72374   0.00000  Uiso   1.00
C1027  C     0.80606   0.35738   0.72374   0.00000  Uiso   1.00
C1028  C     0.86060   0.64262   0.77626   0.00000  Uiso   1.00
H1029  H     0.88241   0.37534   0.79727   0.00000  Uiso   1.00
H1030  H     0.78426   0.62466   0.70272   0.00000  Uiso   1.00
H1031  H     0.78426   0.37558   0.70273   0.00000  Uiso   1.00
H1032  H     0.88241   0.62442   0.79727   0.00000  Uiso   1.00
N1033  N     0.83333   0.61907   0.75000   0.00000  Uiso   1.00
N1034  N     0.83333   0.38093   0.75000   0.00000  Uiso   1.00
C1035  C     0.75253   0.48787   0.88150   0.00000  Uiso   1.00
H1036  H     0.75593   0.48921   0.84469   0.00000  Uiso   1.00
H1037  H     0.73868   0.45448   0.88976   0.00000  Uiso   1.00
H1038  H     0.73042   0.51527   0.89082   0.00000  Uiso   1.00
C1039  C     0.91414   0.51213   0.61850   0.00000  Uiso   1.00
H1040  H     0.91074   0.51079   0.65531   0.00000  Uiso   1.00
H1041  H     0.93625   0.48473   0.60918   0.00000  Uiso   1.00
H1042  H     0.92799   0.54552   0.61023   0.00000  Uiso   1.00
C1043  C     0.71721   0.48089   0.54995   0.00000  Uiso   1.00
H1044  H     0.69046   0.47648   0.52674   0.00000  Uiso   1.00
H1045  H     0.71906   0.45011   0.57120   0.00000  Uiso   1.00
H1046  H     0.71050   0.51087   0.57118   0.00000  Uiso   1.00
C1047  C     0.94946   0.51911   0.95005   0.00000  Uiso   1.00
H1048  H     0.97621   0.52352   0.97326   0.00000  Uiso   1.00
H1049  H     0.95616   0.48913   0.92882   0.00000  Uiso   1.00
H1050  H     0.94760   0.54989   0.92880   0.00000  Uiso   1.00
O1051  O     0.10559   0.87154   0.74999   0.00000  Uiso   1.00
O1052  O     0.22774   0.79513   0.75000   0.00000  Uiso   1.00
O1053  O     0.22774   0.87154   0.75000   0.00000  Uiso   1.00
O1054  O     0.10559   0.79513   0.74999   0.00000  Uiso   1.00
C1055  C     0.08665   0.83337   0.74971   0.00000  Uiso   1.00
C1056  C     0.24668   0.83330   0.75028   0.00000  Uiso   1.00
O1057  O     0.16666   0.87156   0.68392   0.00000  Uiso   1.00
O1058  O     0.16667   0.79511   0.81607   0.00000  Uiso   1.00
O1059  O     0.16667   0.87156   0.81607   0.00000  Uiso   1.00
O1060  O     0.16666   0.79511   0.68392   0.00000  Uiso   1.00
C1061  C     0.16721   0.83334   0.66363   0.00000  Uiso   1.00
C1062  C     0.16613   0.83333   0.83637   0.00000  Uiso   1.00
Zn1063 Zn    0.16667   0.88437   0.75000   0.00000  Uiso   1.00
Zn1064 Zn    0.16667   0.78229   0.75000   0.00000  Uiso   1.00
C1065  C     0.20205   0.83963   0.90587   0.00000  Uiso   1.00
C1066  C     0.13129   0.82703   0.59413   0.00000  Uiso   1.00
C1067  C     0.16449   0.83334   0.88392   0.00000  Uiso   1.00
C1068  C     0.16884   0.83333   0.61608   0.00000  Uiso   1.00
C1069  C     0.12667   0.82718   0.90682   0.00000  Uiso   1.00
C1070  C     0.20666   0.83948   0.59318   0.00000  Uiso   1.00
C1071  C     0.12758   0.82714   0.95390   0.00000  Uiso   1.00
C1072  C     0.20575   0.83953   0.54610   0.00000  Uiso   1.00
C1073  C     0.16616   0.83336   0.97654   0.00000  Uiso   1.00
C1074  C     0.16717   0.83330   0.52346   0.00000  Uiso   1.00
C1075  C     0.20371   0.83966   0.95225   0.00000  Uiso   1.00
C1076  C     0.12962   0.82700   0.54775   0.00000  Uiso   1.00
C1077  C     0.09080   0.82104   0.97874   0.00000  Uiso   1.00
C1078  C     0.24253   0.84563   0.52126   0.00000  Uiso   1.00
C1079  C     0.09130   0.82090   0.52527   0.00000  Uiso   1.00
C1080  C     0.24204   0.84577   0.97473   0.00000  Uiso   1.00
H1081  H     0.22997   0.84424   0.88594   0.00000  Uiso   1.00
H1082  H     0.10336   0.82243   0.61406   0.00000  Uiso   1.00
H1083  H     0.06112   0.81626   0.96223   0.00000  Uiso   1.00
H1084  H     0.27221   0.85041   0.53776   0.00000  Uiso   1.00
C1085  C     0.02140   0.79438   0.73636   0.00000  Uiso   1.00
C1086  C     0.31193   0.87229   0.76364   0.00000  Uiso   1.00
C1087  C     0.31202   0.79431   0.73659   0.00000  Uiso   1.00
C1088  C     0.02132   0.87235   0.76341   0.00000  Uiso   1.00
H1089  H     0.03781   0.76424   0.72539   0.00000  Uiso   1.00
H1090  H     0.29552   0.90242   0.77461   0.00000  Uiso   1.00
H1091  H     0.29568   0.76415   0.72576   0.00000  Uiso   1.00
H1092  H     0.03765   0.90251   0.77424   0.00000  Uiso   1.00
C1093  C     0.29082   0.83327   0.75023   0.00000  Uiso   1.00
C1094  C     0.04251   0.83339   0.74977   0.00000  Uiso   1.00
C1095  C     0.19394   0.69057   0.77626   0.00000  Uiso   1.00
C1096  C     0.13940   0.97609   0.72374   0.00000  Uiso   1.00
C1097  C     0.13940   0.69071   0.72374   0.00000  Uiso   1.00
C1098  C     0.19394   0.97596   0.77626   0.00000  Uiso   1.00
H1099  H     0.21574   0.70867   0.79727   0.00000  Uiso   1.00
H1100  H     0.11759   0.95800   0.70272   0.00000  Uiso   1.00
H1101  H     0.11759   0.70891   0.70273   0.00000  Uiso   1.00
H1102  H     0.21574   0.95775   0.79727   0.00000  Uiso   1.00
N1103  N     0.16667   0.95240   0.75000   0.00000  Uiso   1.00
N1104  N     0.16667   0.71427   0.75000   0.00000  Uiso   1.00
C1105  C     0.08586   0.82121   0.88150   0.00000  Uiso   1.00
H1106  H     0.08926   0.82254   0.84469   0.00000  Uiso   1.00
H1107  H     0.07201   0.78781   0.88976   0.00000  Uiso   1.00
H1108  H     0.06375   0.84860   0.89082   0.00000  Uiso   1.00
C1109  C     0.24747   0.84546   0.61850   0.00000  Uiso   1.00
H1110  H     0.24407   0.84413   0.65531   0.00000  Uiso   1.00
H1111  H     0.26958   0.81807   0.60918   0.00000  Uiso   1.00
H1112  H     0.26132   0.87886   0.61023   0.00000  Uiso   1.00
C1113  C     0.05054   0.81422   0.54995   0.00000  Uiso   1.00
H1114  H     0.02379   0.80982   0.52674   0.00000  Uiso   1.00
H1115  H     0.05240   0.78344   0.57120   0.00000  Uiso   1.00
H1116  H     0.04384   0.84421   0.57118   0.00000  Uiso   1.00
C1117  C     0.28279   0.85244   0.95005   0.00000  Uiso   1.00
H1118  H     0.30954   0.85685   0.97326   0.00000  Uiso   1.00
H1119  H     0.28949   0.82246   0.92882   0.00000  Uiso   1.00
H1120  H     0.28094   0.88322   0.92880   0.00000  Uiso   1.00
O1121  O     0.43892   0.87154   0.74999   0.00000  Uiso   1.00
O1122  O     0.56108   0.79513   0.75000   0.00000  Uiso   1.00
O1123  O     0.56108   0.87154   0.75000   0.00000  Uiso   1.00
O1124  O     0.43892   0.79513   0.74999   0.00000  Uiso   1.00
C1125  C     0.41999   0.83337   0.74971   0.00000  Uiso   1.00
C1126  C     0.58001   0.83330   0.75028   0.00000  Uiso   1.00
O1127  O     0.49999   0.87156   0.68392   0.00000  Uiso   1.00
O1128  O     0.50001   0.79511   0.81607   0.00000  Uiso   1.00
O1129  O     0.50001   0.87156   0.81607   0.00000  Uiso   1.00
O1130  O     0.49999   0.79511   0.68392   0.00000  Uiso   1.00
C1131  C     0.50054   0.83334   0.66363   0.00000  Uiso   1.00
C1132  C     0.49946   0.83333   0.83637   0.00000  Uiso   1.00
Zn1133 Zn    0.50000   0.88437   0.75000   0.00000  Uiso   1.00
Zn1134 Zn    0.50000   0.78229   0.75000   0.00000  Uiso   1.00
C1135  C     0.53538   0.83963   0.90587   0.00000  Uiso   1.00
C1136  C     0.46462   0.82703   0.59413   0.00000  Uiso   1.00
C1137  C     0.49782   0.83334   0.88392   0.00000  Uiso   1.00
C1138  C     0.50218   0.83333   0.61608   0.00000  Uiso   1.00
C1139  C     0.46001   0.82718   0.90682   0.00000  Uiso   1.00
C1140  C     0.53999   0.83948   0.59318   0.00000  Uiso   1.00
C1141  C     0.46092   0.82714   0.95390   0.00000  Uiso   1.00
C1142  C     0.53908   0.83953   0.54610   0.00000  Uiso   1.00
C1143  C     0.49950   0.83336   0.97654   0.00000  Uiso   1.00
C1144  C     0.50050   0.83330   0.52346   0.00000  Uiso   1.00
C1145  C     0.53705   0.83966   0.95225   0.00000  Uiso   1.00
C1146  C     0.46295   0.82700   0.54775   0.00000  Uiso   1.00
C1147  C     0.42413   0.82104   0.97874   0.00000  Uiso   1.00
C1148  C     0.57587   0.84563   0.52126   0.00000  Uiso   1.00
C1149  C     0.42463   0.82090   0.52527   0.00000  Uiso   1.00
C1150  C     0.57537   0.84577   0.97473   0.00000  Uiso   1.00
H1151  H     0.56331   0.84424   0.88594   0.00000  Uiso   1.00
H1152  H     0.43669   0.82243   0.61406   0.00000  Uiso   1.00
H1153  H     0.39446   0.81626   0.96223   0.00000  Uiso   1.00
H1154  H     0.60554   0.85041   0.53776   0.00000  Uiso   1.00
C1155  C     0.35474   0.79438   0.73636   0.00000  Uiso   1.00
C1156  C     0.64526   0.87229   0.76364   0.00000  Uiso   1.00
C1157  C     0.64535   0.79431   0.73659   0.00000  Uiso   1.00
C1158  C     0.35465   0.87235   0.76341   0.00000  Uiso   1.00
H1159  H     0.37114   0.76424   0.72539   0.00000  Uiso   1.00
H1160  H     0.62886   0.90242   0.77461   0.00000  Uiso   1.00
H1161  H     0.62902   0.76415   0.72576   0.00000  Uiso   1.00
H1162  H     0.37098   0.90251   0.77424   0.00000  Uiso   1.00
C1163  C     0.62416   0.83327   0.75023   0.00000  Uiso   1.00
C1164  C     0.37584   0.83339   0.74977   0.00000  Uiso   1.00
C1165  C     0.52727   0.69057   0.77626   0.00000  Uiso   1.00
C1166  C     0.47273   0.97609   0.72374   0.00000  Uiso   1.00
C1167  C     0.47273   0.69071   0.72374   0.00000  Uiso   1.00
C1168  C     0.52727   0.97596   0.77626   0.00000  Uiso   1.00
H1169  H     0.54907   0.70867   0.79727   0.00000  Uiso   1.00
H1170  H     0.45093   0.95800   0.70272   0.00000  Uiso   1.00
H1171  H     0.45092   0.70891   0.70273   0.00000  Uiso   1.00
H1172  H     0.54908   0.95775   0.79727   0.00000  Uiso   1.00
N1173  N     0.50000   0.95240   0.75000   0.00000  Uiso   1.00
N1174  N     0.50000   0.71427   0.75000   0.00000  Uiso   1.00
C1175  C     0.41919   0.82121   0.88150   0.00000  Uiso   1.00
H1176  H     0.42260   0.82254   0.84469   0.00000  Uiso   1.00
H1177  H     0.40535   0.78781   0.88976   0.00000  Uiso   1.00
H1178  H     0.39709   0.84860   0.89082   0.00000  Uiso   1.00
C1179  C     0.58081   0.84546   0.61850   0.00000  Uiso   1.00
H1180  H     0.57740   0.84413   0.65531   0.00000  Uiso   1.00
H1181  H     0.60291   0.81807   0.60918   0.00000  Uiso   1.00
H1182  H     0.59465   0.87886   0.61023   0.00000  Uiso   1.00
C1183  C     0.38388   0.81422   0.54995   0.00000  Uiso   1.00
H1184  H     0.35712   0.80982   0.52674   0.00000  Uiso   1.00
H1185  H     0.38573   0.78344   0.57120   0.00000  Uiso   1.00
H1186  H     0.37717   0.84421   0.57118   0.00000  Uiso   1.00
C1187  C     0.61612   0.85244   0.95005   0.00000  Uiso   1.00
H1188  H     0.64288   0.85685   0.97326   0.00000  Uiso   1.00
H1189  H     0.62283   0.82246   0.92882   0.00000  Uiso   1.00
H1190  H     0.61427   0.88322   0.92880   0.00000  Uiso   1.00
O1191  O     0.77226   0.87154   0.74999   0.00000  Uiso   1.00
O1192  O     0.89441   0.79513   0.75000   0.00000  Uiso   1.00
O1193  O     0.89441   0.87154   0.75000   0.00000  Uiso   1.00
O1194  O     0.77226   0.79513   0.74999   0.00000  Uiso   1.00
C1195  C     0.75332   0.83337   0.74971   0.00000  Uiso   1.00
C1196  C     0.91335   0.83330   0.75028   0.00000  Uiso   1.00
O1197  O     0.83333   0.87156   0.68392   0.00000  Uiso   1.00
O1198  O     0.83334   0.79511   0.81607   0.00000  Uiso   1.00
O1199  O     0.83334   0.87156   0.81607   0.00000  Uiso   1.00
O1200  O     0.83333   0.79511   0.68392   0.00000  Uiso   1.00
C1201  C     0.83387   0.83334   0.66363   0.00000  Uiso   1.00
C1202  C     0.83279   0.83333   0.83637   0.00000  Uiso   1.00
Zn1203 Zn    0.83333   0.88437   0.75000   0.00000  Uiso   1.00
Zn1204 Zn    0.83333   0.78229   0.75000   0.00000  Uiso   1.00
C1205  C     0.86871   0.83963   0.90587   0.00000  Uiso   1.00
C1206  C     0.79795   0.82703   0.59413   0.00000  Uiso   1.00
C1207  C     0.83115   0.83334   0.88392   0.00000  Uiso   1.00
C1208  C     0.83551   0.83333   0.61608   0.00000  Uiso   1.00
C1209  C     0.79334   0.82718   0.90682   0.00000  Uiso   1.00
C1210  C     0.87333   0.83948   0.59318   0.00000  Uiso   1.00
C1211  C     0.79425   0.82714   0.95390   0.00000  Uiso   1.00
C1212  C     0.87242   0.83953   0.54610   0.00000  Uiso   1.00
C1213  C     0.83283   0.83336   0.97654   0.00000  Uiso   1.00
C1214  C     0.83384   0.83330   0.52346   0.00000  Uiso   1.00
C1215  C     0.87038   0.83966   0.95225   0.00000  Uiso   1.00
C1216  C     0.79629   0.82700   0.54775   0.00000  Uiso   1.00
C1217  C     0.75747   0.82104   0.97874   0.00000  Uiso   1.00
C1218  C     0.90920   0.84563   0.52126   0.00000  Uiso   1.00
C1219  C     0.75796   0.82090   0.52527   0.00000  Uiso   1.00
C1220  C     0.90870   0.84577   0.97473   0.00000  Uiso   1.00
H1221  H     0.89664   0.84424   0.88594   0.00000  Uiso   1.00
H1222  H     0.77003   0.82243   0.61406   0.00000  Uiso   1.00
H1223  H     0.72779   0.81626   0.96223   0.00000  Uiso   1.00
H1224  H     0.93887   0.85041   0.53776   0.00000  Uiso   1.00
C1225  C     0.68807   0.79438   0.73636   0.00000  Uiso   1.00
C1226  C     0.97860   0.87229   0.76364   0.00000  Uiso   1.00
C1227  C     0.97868   0.79431   0.73659   0.00000  Uiso   1.00
C1228  C     0.68798   0.87235   0.76341   0.00000  Uiso   1.00
H1229  H     0.70448   0.76424   0.72539   0.00000  Uiso   1.00
H1230  H     0.96219   0.90242   0.77461   0.00000  Uiso   1.00
H1231  H     0.96235   0.76415   0.72576   0.00000  Uiso   1.00
H1232  H     0.70432   0.90251   0.77424   0.00000  Uiso   1.00
C1233  C     0.95749   0.83327   0.75023   0.00000  Uiso   1.00
C1234  C     0.70918   0.83339   0.74977   0.00000  Uiso   1.00
C1235  C     0.86060   0.69057   0.77626   0.00000  Uiso   1.00
C1236  C     0.80606   0.97609   0.72374   0.00000  Uiso   1.00
C1237  C     0.80606   0.69071   0.72374   0.00000  Uiso   1.00
C1238  C     0.86060   0.97596   0.77626   0.00000  Uiso   1.00
H1239  H     0.88241   0.70867   0.79727   0.00000  Uiso   1.00
H1240  H     0.78426   0.95800   0.70272   0.00000  Uiso   1.00
H1241  H     0.78426   0.70891   0.70273   0.00000  Uiso   1.00
H1242  H     0.88241   0.95775   0.79727   0.00000  Uiso   1.00
N1243  N     0.83333   0.95240   0.75000   0.00000  Uiso   1.00
N1244  N     0.83333   0.71427   0.75000   0.00000  Uiso   1.00
C1245  C     0.75253   0.82121   0.88150   0.00000  Uiso   1.00
H1246  H     0.75593   0.82254   0.84469   0.00000  Uiso   1.00
H1247  H     0.73868   0.78781   0.88976   0.00000  Uiso   1.00
H1248  H     0.73042   0.84860   0.89082   0.00000  Uiso   1.00
C1249  C     0.91414   0.84546   0.61850   0.00000  Uiso   1.00
H1250  H     0.91074   0.84413   0.65531   0.00000  Uiso   1.00
H1251  H     0.93625   0.81807   0.60918   0.00000  Uiso   1.00
H1252  H     0.92799   0.87886   0.61023   0.00000  Uiso   1.00
C1253  C     0.71721   0.81422   0.54995   0.00000  Uiso   1.00
H1254  H     0.69046   0.80982   0.52674   0.00000  Uiso   1.00
H1255  H     0.71906   0.78344   0.57120   0.00000  Uiso   1.00
H1256  H     0.71050   0.84421   0.57118   0.00000  Uiso   1.00
C1257  C     0.94946   0.85244   0.95005   0.00000  Uiso   1.00
H1258  H     0.97621   0.85685   0.97326   0.00000  Uiso   1.00
H1259  H     0.95616   0.82246   0.92882   0.00000  Uiso   1.00
H1260  H     0.94760   0.88322   0.92880   0.00000  Uiso   1.00
loop_
_geom_bond_atom_site_label_1
_geom_bond_atom_site_label_2
_geom_bond_distance
_geom_bond_site_symmetry_2
_ccdc_geom_bond_type
O1     C5      1.282   .     A
O1     Zn13    1.995   .     S
O2     C6      1.282   .     A
O2     Zn14    1.995   .     S
O3     Zn13    1.994   .     S
O3     C6      1.282   .     A
O4     Zn14    1.994   .     S
O4     C5      1.282   .     A
C5     C44     1.415   .     S
C6     C43     1.415   .     S
O7     C11     1.282   .     A
O7     Zn13    2.010   .     S
O8     C12     1.282   .     A
O8     Zn14    2.010   .     S
O9     C12     1.282   .     A
O9     Zn13    2.010   .     S
O10    C11     1.282   .     A
O10    Zn14    2.010   .     S
C11    C18     1.421   .     S
C12    C17     1.421   .     S
Zn13   N53     2.010   .     S
Zn14   N54     2.010   .     S
C15    C25     1.386   .     A
C15    C17     1.384   .     A
C15    H31     1.084   .     S
C16    H32     1.084   .     S
C16    C18     1.384   .     A
C16    C26     1.386   .     A
C17    C19     1.404   .     A
C18    C20     1.404   .     A
C19    C21     1.407   .     A
C19    C55     1.522   .     S
C20    C59     1.522   .     S
C20    C22     1.407   .     A
C21    C27     1.405   .     A
C21    C23     1.422   .     A
C22    C28     1.405   .     A
C22    C24     1.422   .     A
C23    C25     1.418   .     A
C23    C654    1.402   .     S
C24    C26     1.418   .     A
C24    C653    1.402   1_554 S
C25    C30     1.412   .     A
C26    C29     1.412   .     A
C27    H33     1.081   .     S
C27    C659    1.390   .     S
C28    H34     1.081   .     S
C28    C660    1.390   1_554 S
C29    C63     1.513   .     S
C29    C657    1.390   1_554 S
C30    C67     1.513   .     S
C30    C658    1.390   .     S
C35    H39     1.084   .     S
C35    C44     1.397   .     A
C35    C177    1.369   1_455 S
C36    C43     1.397   .     A
C36    H40     1.084   .     S
C36    C108    1.369   .     S
C37    C43     1.397   .     A
C37    H41     1.084   .     S
C37    C105    1.369   .     S
C38    C44     1.397   .     A
C38    H42     1.084   .     S
C38    C176    1.369   1_455 S
C45    H49     1.082   .     S
C45    N54     1.366   .     A
C45    C468    1.417   1_545 S
C46    H50     1.082   .     S
C46    N53     1.366   .     A
C46    C257    1.417   .     S
C47    N54     1.366   .     A
C47    H51     1.082   .     S
C47    C466    1.417   1_545 S
C48    H52     1.082   .     S
C48    N53     1.366   .     A
C48    C255    1.417   .     S
C55    H56     1.106   .     S
C55    H57     1.110   .     S
C55    H58     1.111   .     S
C59    H60     1.106   .     S
C59    H62     1.110   .     S
C59    H61     1.111   .     S
C63    H65     1.110   .     S
C63    H66     1.110   .     S
C63    H64     1.111   .     S
C67    H70     1.110   .     S
C67    H69     1.110   .     S
C67    H68     1.111   .     S
O71    C75     1.282   .     A
O71    Zn83    1.995   .     S
O72    C76     1.282   .     A
O72    Zn84    1.995   .     S
O73    Zn83    1.994   .     S
O73    C76     1.282   .     A
O74    Zn84    1.994   .     S
O74    C75     1.282   .     A
C75    C114    1.415   .     S
C76    C113    1.415   .     S
O77    C81     1.282   .     A
O77    Zn83    2.010   .     S
O78    C82     1.282   .     A
O78    Zn84    2.010   .     S
O79    C82     1.282   .     A
O79    Zn83    2.010   .     S
O80    C81     1.282   .     A
O80    Zn84    2.010   .     S
C81    C88     1.421   .     S
C82    C87     1.421   .     S
Zn83   N123    2.010   .     S
Zn84   N124    2.010   .     S
C85    C95     1.386   .     A
C85    C87     1.384   .     A
C85    H101    1.084   .     S
C86    H102    1.084   .     S
C86    C88     1.384   .     A
C86    C96     1.386   .     A
C87    C89     1.404   .     A
C88    C90     1.404   .     A
C89    C91     1.407   .     A
C89    C125    1.522   .     S
C90    C129    1.522   .     S
C90    C92     1.407   .     A
C91    C97     1.405   .     A
C91    C93     1.422   .     A
C92    C98     1.405   .     A
C92    C94     1.422   .     A
C93    C95     1.418   .     A
C93    C724    1.402   .     S
C94    C96     1.418   .     A
C94    C723    1.402   1_554 S
C95    C100    1.412   .     A
C96    C99     1.412   .     A
C97    H103    1.081   .     S
C97    C729    1.390   .     S
C98    H104    1.081   .     S
C98    C730    1.390   1_554 S
C99    C133    1.513   .     S
C99    C727    1.390   1_554 S
C100   C137    1.513   .     S
C100   C728    1.390   .     S
C105   H109    1.084   .     S
C105   C114    1.397   .     A
C106   C113    1.397   .     A
C106   H110    1.084   .     S
C106   C178    1.369   .     S
C107   C113    1.397   .     A
C107   H111    1.084   .     S
C107   C175    1.369   .     S
C108   C114    1.397   .     A
C108   H112    1.084   .     S
C115   H119    1.082   .     S
C115   N124    1.366   .     A
C115   C538    1.417   1_545 S
C116   H120    1.082   .     S
C116   N123    1.366   .     A
C116   C327    1.417   .     S
C117   N124    1.366   .     A
C117   H121    1.082   .     S
C117   C536    1.417   1_545 S
C118   H122    1.082   .     S
C118   N123    1.366   .     A
C118   C325    1.417   .     S
C125   H126    1.106   .     S
C125   H127    1.110   .     S
C125   H128    1.111   .     S
C129   H130    1.106   .     S
C129   H132    1.110   .     S
C129   H131    1.111   .     S
C133   H135    1.110   .     S
C133   H136    1.110   .     S
C133   H134    1.111   .     S
C137   H140    1.110   .     S
C137   H139    1.110   .     S
C137   H138    1.111   .     S
O141   C145    1.282   .     A
O141   Zn153   1.995   .     S
O142   C146    1.282   .     A
O142   Zn154   1.995   .     S
O143   Zn153   1.994   .     S
O143   C146    1.282   .     A
O144   Zn154   1.994   .     S
O144   C145    1.282   .     A
C145   C184    1.415   .     S
C146   C183    1.415   .     S
O147   C151    1.282   .     A
O147   Zn153   2.010   .     S
O148   C152    1.282   .     A
O148   Zn154   2.010   .     S
O149   C152    1.282   .     A
O149   Zn153   2.010   .     S
O150   C151    1.282   .     A
O150   Zn154   2.010   .     S
C151   C158    1.421   .     S
C152   C157    1.421   .     S
Zn153  N193    2.010   .     S
Zn154  N194    2.010   .     S
C155   C165    1.386   .     A
C155   C157    1.384   .     A
C155   H171    1.084   .     S
C156   H172    1.084   .     S
C156   C158    1.384   .     A
C156   C166    1.386   .     A
C157   C159    1.404   .     A
C158   C160    1.404   .     A
C159   C161    1.407   .     A
C159   C195    1.522   .     S
C160   C199    1.522   .     S
C160   C162    1.407   .     A
C161   C167    1.405   .     A
C161   C163    1.422   .     A
C162   C168    1.405   .     A
C162   C164    1.422   .     A
C163   C165    1.418   .     A
C163   C794    1.402   .     S
C164   C166    1.418   .     A
C164   C793    1.402   1_554 S
C165   C170    1.412   .     A
C166   C169    1.412   .     A
C167   H173    1.081   .     S
C167   C799    1.390   .     S
C168   H174    1.081   .     S
C168   C800    1.390   1_554 S
C169   C203    1.513   .     S
C169   C797    1.390   1_554 S
C170   C207    1.513   .     S
C170   C798    1.390   .     S
C175   H179    1.084   .     S
C175   C184    1.397   .     A
C176   C183    1.397   .     A
C176   H180    1.084   .     S
C176   C38     1.369   1_655 S
C177   C183    1.397   .     A
C177   H181    1.084   .     S
C177   C35     1.369   1_655 S
C178   C184    1.397   .     A
C178   H182    1.084   .     S
C185   H189    1.082   .     S
C185   N194    1.366   .     A
C185   C608    1.417   1_545 S
C186   H190    1.082   .     S
C186   N193    1.366   .     A
C186   C397    1.417   .     S
C187   N194    1.366   .     A
C187   H191    1.082   .     S
C187   C606    1.417   1_545 S
C188   H192    1.082   .     S
C188   N193    1.366   .     A
C188   C395    1.417   .     S
C195   H196    1.106   .     S
C195   H197    1.110   .     S
C195   H198    1.111   .     S
C199   H200    1.106   .     S
C199   H202    1.110   .     S
C199   H201    1.111   .     S
C203   H205    1.110   .     S
C203   H206    1.110   .     S
C203   H204    1.111   .     S
C207   H210    1.110   .     S
C207   H209    1.110   .     S
C207   H208    1.111   .     S
O211   C215    1.282   .     A
O211   Zn223   1.995   .     S
O212   C216    1.282   .     A
O212   Zn224   1.995   .     S
O213   Zn223   1.994   .     S
O213   C216    1.282   .     A
O214   Zn224   1.994   .     S
O214   C215    1.282   .     A
C215   C254    1.415   .     S
C216   C253    1.415   .     S
O217   C221    1.282   .     A
O217   Zn223   2.010   .     S
O218   C222    1.282   .     A
O218   Zn224   2.010   .     S
O219   C222    1.282   .     A
O219   Zn223   2.010   .     S
O220   C221    1.282   .     A
O220   Zn224   2.010   .     S
C221   C228    1.421   .     S
C222   C227    1.421   .     S
Zn223  N263    2.010   .     S
Zn224  N264    2.010   .     S
C225   C235    1.386   .     A
C225   C227    1.384   .     A
C225   H241    1.084   .     S
C226   H242    1.084   .     S
C226   C228    1.384   .     A
C226   C236    1.386   .     A
C227   C229    1.404   .     A
C228   C230    1.404   .     A
C229   C231    1.407   .     A
C229   C265    1.522   .     S
C230   C269    1.522   .     S
C230   C232    1.407   .     A
C231   C237    1.405   .     A
C231   C233    1.422   .     A
C232   C238    1.405   .     A
C232   C234    1.422   .     A
C233   C235    1.418   .     A
C233   C864    1.402   .     S
C234   C236    1.418   .     A
C234   C863    1.402   1_554 S
C235   C240    1.412   .     A
C236   C239    1.412   .     A
C237   H243    1.081   .     S
C237   C869    1.390   .     S
C238   H244    1.081   .     S
C238   C870    1.390   1_554 S
C239   C273    1.513   .     S
C239   C867    1.390   1_554 S
C240   C277    1.513   .     S
C240   C868    1.390   .     S
C245   H249    1.084   .     S
C245   C254    1.397   .     A
C245   C387    1.369   1_455 S
C246   C253    1.397   .     A
C246   H250    1.084   .     S
C246   C318    1.369   .     S
C247   C253    1.397   .     A
C247   H251    1.084   .     S
C247   C315    1.369   .     S
C248   C254    1.397   .     A
C248   H252    1.084   .     S
C248   C386    1.369   1_455 S
C255   H259    1.082   .     S
C255   N264    1.366   .     A
C256   H260    1.082   .     S
C256   N263    1.366   .     A
C256   C467    1.417   .     S
C257   N264    1.366   .     A
C257   H261    1.082   .     S
C258   H262    1.082   .     S
C258   N263    1.366   .     A
C258   C465    1.417   .     S
C265   H266    1.106   .     S
C265   H267    1.110   .     S
C265   H268    1.111   .     S
C269   H270    1.106   .     S
C269   H272    1.110   .     S
C269   H271    1.111   .     S
C273   H275    1.110   .     S
C273   H276    1.110   .     S
C273   H274    1.111   .     S
C277   H280    1.110   .     S
C277   H279    1.110   .     S
C277   H278    1.111   .     S
O281   C285    1.282   .     A
O281   Zn293   1.995   .     S
O282   C286    1.282   .     A
O282   Zn294   1.995   .     S
O283   Zn293   1.994   .     S
O283   C286    1.282   .     A
O284   Zn294   1.994   .     S
O284   C285    1.282   .     A
C285   C324    1.415   .     S
C286   C323    1.415   .     S
O287   C291    1.282   .     A
O287   Zn293   2.010   .     S
O288   C292    1.282   .     A
O288   Zn294   2.010   .     S
O289   C292    1.282   .     A
O289   Zn293   2.010   .     S
O290   C291    1.282   .     A
O290   Zn294   2.010   .     S
C291   C298    1.421   .     S
C292   C297    1.421   .     S
Zn293  N333    2.010   .     S
Zn294  N334    2.010   .     S
C295   C305    1.386   .     A
C295   C297    1.384   .     A
C295   H311    1.084   .     S
C296   H312    1.084   .     S
C296   C298    1.384   .     A
C296   C306    1.386   .     A
C297   C299    1.404   .     A
C298   C300    1.404   .     A
C299   C301    1.407   .     A
C299   C335    1.522   .     S
C300   C339    1.522   .     S
C300   C302    1.407   .     A
C301   C307    1.405   .     A
C301   C303    1.422   .     A
C302   C308    1.405   .     A
C302   C304    1.422   .     A
C303   C305    1.418   .     A
C303   C934    1.402   .     S
C304   C306    1.418   .     A
C304   C933    1.402   1_554 S
C305   C310    1.412   .     A
C306   C309    1.412   .     A
C307   H313    1.081   .     S
C307   C939    1.390   .     S
C308   H314    1.081   .     S
C308   C940    1.390   1_554 S
C309   C343    1.513   .     S
C309   C937    1.390   1_554 S
C310   C347    1.513   .     S
C310   C938    1.390   .     S
C315   H319    1.084   .     S
C315   C324    1.397   .     A
C316   C323    1.397   .     A
C316   H320    1.084   .     S
C316   C388    1.369   .     S
C317   C323    1.397   .     A
C317   H321    1.084   .     S
C317   C385    1.369   .     S
C318   C324    1.397   .     A
C318   H322    1.084   .     S
C325   H329    1.082   .     S
C325   N334    1.366   .     A
C326   H330    1.082   .     S
C326   N333    1.366   .     A
C326   C537    1.417   .     S
C327   N334    1.366   .     A
C327   H331    1.082   .     S
C328   H332    1.082   .     S
C328   N333    1.366   .     A
C328   C535    1.417   .     S
C335   H336    1.106   .     S
C335   H337    1.110   .     S
C335   H338    1.111   .     S
C339   H340    1.106   .     S
C339   H342    1.110   .     S
C339   H341    1.111   .     S
C343   H345    1.110   .     S
C343   H346    1.110   .     S
C343   H344    1.111   .     S
C347   H350    1.110   .     S
C347   H349    1.110   .     S
C347   H348    1.111   .     S
O351   C355    1.282   .     A
O351   Zn363   1.995   .     S
O352   C356    1.282   .     A
O352   Zn364   1.995   .     S
O353   Zn363   1.994   .     S
O353   C356    1.282   .     A
O354   Zn364   1.994   .     S
O354   C355    1.282   .     A
C355   C394    1.415   .     S
C356   C393    1.415   .     S
O357   C361    1.282   .     A
O357   Zn363   2.010   .     S
O358   C362    1.282   .     A
O358   Zn364   2.010   .     S
O359   C362    1.282   .     A
O359   Zn363   2.010   .     S
O360   C361    1.282   .     A
O360   Zn364   2.010   .     S
C361   C368    1.421   .     S
C362   C367    1.421   .     S
Zn363  N403    2.010   .     S
Zn364  N404    2.010   .     S
C365   C375    1.386   .     A
C365   C367    1.384   .     A
C365   H381    1.084   .     S
C366   H382    1.084   .     S
C366   C368    1.384   .     A
C366   C376    1.386   .     A
C367   C369    1.404   .     A
C368   C370    1.404   .     A
C369   C371    1.407   .     A
C369   C405    1.522   .     S
C370   C409    1.522   .     S
C370   C372    1.407   .     A
C371   C377    1.405   .     A
C371   C373    1.422   .     A
C372   C378    1.405   .     A
C372   C374    1.422   .     A
C373   C375    1.418   .     A
C373   C1004   1.402   .     S
C374   C376    1.418   .     A
C374   C1003   1.402   1_554 S
C375   C380    1.412   .     A
C376   C379    1.412   .     A
C377   H383    1.081   .     S
C377   C1009   1.390   .     S
C378   H384    1.081   .     S
C378   C1010   1.390   1_554 S
C379   C413    1.513   .     S
C379   C1007   1.390   1_554 S
C380   C417    1.513   .     S
C380   C1008   1.390   .     S
C385   H389    1.084   .     S
C385   C394    1.397   .     A
C386   C393    1.397   .     A
C386   H390    1.084   .     S
C386   C248    1.369   1_655 S
C387   C393    1.397   .     A
C387   H391    1.084   .     S
C387   C245    1.369   1_655 S
C388   C394    1.397   .     A
C388   H392    1.084   .     S
C395   H399    1.082   .     S
C395   N404    1.366   .     A
C396   H400    1.082   .     S
C396   N403    1.366   .     A
C396   C607    1.417   .     S
C397   N404    1.366   .     A
C397   H401    1.082   .     S
C398   H402    1.082   .     S
C398   N403    1.366   .     A
C398   C605    1.417   .     S
C405   H406    1.106   .     S
C405   H407    1.110   .     S
C405   H408    1.111   .     S
C409   H410    1.106   .     S
C409   H412    1.110   .     S
C409   H411    1.111   .     S
C413   H415    1.110   .     S
C413   H416    1.110   .     S
C413   H414    1.111   .     S
C417   H420    1.110   .     S
C417   H419    1.110   .     S
C417   H418    1.111   .     S
O421   C425    1.282   .     A
O421   Zn433   1.995   .     S
O422   C426    1.282   .     A
O422   Zn434   1.995   .     S
O423   Zn433   1.994   .     S
O423   C426    1.282   .     A
O424   Zn434   1.994   .     S
O424   C425    1.282   .     A
C425   C464    1.415   .     S
C426   C463    1.415   .     S
O427   C431    1.282   .     A
O427   Zn433   2.010   .     S
O428   C432    1.282   .     A
O428   Zn434   2.010   .     S
O429   C432    1.282   .     A
O429   Zn433   2.010   .     S
O430   C431    1.282   .     A
O430   Zn434   2.010   .     S
C431   C438    1.421   .     S
C432   C437    1.421   .     S
Zn433  N473    2.010   .     S
Zn434  N474    2.010   .     S
C435   C445    1.386   .     A
C435   C437    1.384   .     A
C435   H451    1.084   .     S
C436   H452    1.084   .     S
C436   C438    1.384   .     A
C436   C446    1.386   .     A
C437   C439    1.404   .     A
C438   C440    1.404   .     A
C439   C441    1.407   .     A
C439   C475    1.522   .     S
C440   C479    1.522   .     S
C440   C442    1.407   .     A
C441   C447    1.405   .     A
C441   C443    1.422   .     A
C442   C448    1.405   .     A
C442   C444    1.422   .     A
C443   C445    1.418   .     A
C443   C1074   1.402   .     S
C444   C446    1.418   .     A
C444   C1073   1.402   1_554 S
C445   C450    1.412   .     A
C446   C449    1.412   .     A
C447   H453    1.081   .     S
C447   C1079   1.390   .     S
C448   H454    1.081   .     S
C448   C1080   1.390   1_554 S
C449   C483    1.513   .     S
C449   C1077   1.390   1_554 S
C450   C487    1.513   .     S
C450   C1078   1.390   .     S
C455   H459    1.084   .     S
C455   C464    1.397   .     A
C455   C597    1.369   1_455 S
C456   C463    1.397   .     A
C456   H460    1.084   .     S
C456   C528    1.369   .     S
C457   C463    1.397   .     A
C457   H461    1.084   .     S
C457   C525    1.369   .     S
C458   C464    1.397   .     A
C458   H462    1.084   .     S
C458   C596    1.369   1_455 S
C465   H469    1.082   .     S
C465   N474    1.366   .     A
C466   H470    1.082   .     S
C466   N473    1.366   .     A
C466   C47     1.417   1_565 S
C467   N474    1.366   .     A
C467   H471    1.082   .     S
C468   H472    1.082   .     S
C468   N473    1.366   .     A
C468   C45     1.417   1_565 S
C475   H476    1.106   .     S
C475   H477    1.110   .     S
C475   H478    1.111   .     S
C479   H480    1.106   .     S
C479   H482    1.110   .     S
C479   H481    1.111   .     S
C483   H485    1.110   .     S
C483   H486    1.110   .     S
C483   H484    1.111   .     S
C487   H490    1.110   .     S
C487   H489    1.110   .     S
C487   H488    1.111   .     S
O491   C495    1.282   .     A
O491   Zn503   1.995   .     S
O492   C496    1.282   .     A
O492   Zn504   1.995   .     S
O493   Zn503   1.994   .     S
O493   C496    1.282   .     A
O494   Zn504   1.994   .     S
O494   C495    1.282   .     A
C495   C534    1.415   .     S
C496   C533    1.415   .     S
O497   C501    1.282   .     A
O497   Zn503   2.010   .     S
O498   C502    1.282   .     A
O498   Zn504   2.010   .     S
O499   C502    1.282   .     A
O499   Zn503   2.010   .     S
O500   C501    1.282   .     A
O500   Zn504   2.010   .     S
C501   C508    1.421   .     S
C502   C507    1.421   .     S
Zn503  N543    2.010   .     S
Zn504  N544    2.010   .     S
C505   C515    1.386   .     A
C505   C507    1.384   .     A
C505   H521    1.084   .     S
C506   H522    1.084   .     S
C506   C508    1.384   .     A
C506   C516    1.386   .     A
C507   C509    1.404   .     A
C508   C510    1.404   .     A
C509   C511    1.407   .     A
C509   C545    1.522   .     S
C510   C549    1.522   .     S
C510   C512    1.407   .     A
C511   C517    1.405   .     A
C511   C513    1.422   .     A
C512   C518    1.405   .     A
C512   C514    1.422   .     A
C513   C515    1.418   .     A
C513   C1144   1.402   .     S
C514   C516    1.418   .     A
C514   C1143   1.402   1_554 S
C515   C520    1.412   .     A
C516   C519    1.412   .     A
C517   H523    1.081   .     S
C517   C1149   1.390   .     S
C518   H524    1.081   .     S
C518   C1150   1.390   1_554 S
C519   C553    1.513   .     S
C519   C1147   1.390   1_554 S
C520   C557    1.513   .     S
C520   C1148   1.390   .     S
C525   H529    1.084   .     S
C525   C534    1.397   .     A
C526   C533    1.397   .     A
C526   H530    1.084   .     S
C526   C598    1.369   .     S
C527   C533    1.397   .     A
C527   H531    1.084   .     S
C527   C595    1.369   .     S
C528   C534    1.397   .     A
C528   H532    1.084   .     S
C535   H539    1.082   .     S
C535   N544    1.366   .     A
C536   H540    1.082   .     S
C536   N543    1.366   .     A
C536   C117    1.417   1_565 S
C537   N544    1.366   .     A
C537   H541    1.082   .     S
C538   H542    1.082   .     S
C538   N543    1.366   .     A
C538   C115    1.417   1_565 S
C545   H546    1.106   .     S
C545   H547    1.110   .     S
C545   H548    1.111   .     S
C549   H550    1.106   .     S
C549   H552    1.110   .     S
C549   H551    1.111   .     S
C553   H555    1.110   .     S
C553   H556    1.110   .     S
C553   H554    1.111   .     S
C557   H560    1.110   .     S
C557   H559    1.110   .     S
C557   H558    1.111   .     S
O561   C565    1.282   .     A
O561   Zn573   1.995   .     S
O562   C566    1.282   .     A
O562   Zn574   1.995   .     S
O563   Zn573   1.994   .     S
O563   C566    1.282   .     A
O564   Zn574   1.994   .     S
O564   C565    1.282   .     A
C565   C604    1.415   .     S
C566   C603    1.415   .     S
O567   C571    1.282   .     A
O567   Zn573   2.010   .     S
O568   C572    1.282   .     A
O568   Zn574   2.010   .     S
O569   C572    1.282   .     A
O569   Zn573   2.010   .     S
O570   C571    1.282   .     A
O570   Zn574   2.010   .     S
C571   C578    1.421   .     S
C572   C577    1.421   .     S
Zn573  N613    2.010   .     S
Zn574  N614    2.010   .     S
C575   C585    1.386   .     A
C575   C577    1.384   .     A
C575   H591    1.084   .     S
C576   H592    1.084   .     S
C576   C578    1.384   .     A
C576   C586    1.386   .     A
C577   C579    1.404   .     A
C578   C580    1.404   .     A
C579   C581    1.407   .     A
C579   C615    1.522   .     S
C580   C619    1.522   .     S
C580   C582    1.407   .     A
C581   C587    1.405   .     A
C581   C583    1.422   .     A
C582   C588    1.405   .     A
C582   C584    1.422   .     A
C583   C585    1.418   .     A
C583   C1214   1.402   .     S
C584   C586    1.418   .     A
C584   C1213   1.402   1_554 S
C585   C590    1.412   .     A
C586   C589    1.412   .     A
C587   H593    1.081   .     S
C587   C1219   1.390   .     S
C588   H594    1.081   .     S
C588   C1220   1.390   1_554 S
C589   C623    1.513   .     S
C589   C1217   1.390   1_554 S
C590   C627    1.513   .     S
C590   C1218   1.390   .     S
C595   H599    1.084   .     S
C595   C604    1.397   .     A
C596   C603    1.397   .     A
C596   H600    1.084   .     S
C596   C458    1.369   1_655 S
C597   C603    1.397   .     A
C597   H601    1.084   .     S
C597   C455    1.369   1_655 S
C598   C604    1.397   .     A
C598   H602    1.084   .     S
C605   H609    1.082   .     S
C605   N614    1.366   .     A
C606   H610    1.082   .     S
C606   N613    1.366   .     A
C606   C187    1.417   1_565 S
C607   N614    1.366   .     A
C607   H611    1.082   .     S
C608   H612    1.082   .     S
C608   N613    1.366   .     A
C608   C185    1.417   1_565 S
C615   H616    1.106   .     S
C615   H617    1.110   .     S
C615   H618    1.111   .     S
C619   H620    1.106   .     S
C619   H622    1.110   .     S
C619   H621    1.111   .     S
C623   H625    1.110   .     S
C623   H626    1.110   .     S
C623   H624    1.111   .     S
C627   H630    1.110   .     S
C627   H629    1.110   .     S
C627   H628    1.111   .     S
O631   C635    1.282   .     A
O631   Zn643   1.995   .     S
O632   C636    1.282   .     A
O632   Zn644   1.995   .     S
O633   Zn643   1.994   .     S
O633   C636    1.282   .     A
O634   Zn644   1.994   .     S
O634   C635    1.282   .     A
C635   C674    1.415   .     S
C636   C673    1.415   .     S
O637   C641    1.282   .     A
O637   Zn643   2.010   .     S
O638   C642    1.282   .     A
O638   Zn644   2.010   .     S
O639   C642    1.282   .     A
O639   Zn643   2.010   .     S
O640   C641    1.282   .     A
O640   Zn644   2.010   .     S
C641   C648    1.421   .     S
C642   C647    1.421   .     S
Zn643  N683    2.010   .     S
Zn644  N684    2.010   .     S
C645   C655    1.386   .     A
C645   C647    1.384   .     A
C645   H661    1.084   .     S
C646   H662    1.084   .     S
C646   C648    1.384   .     A
C646   C656    1.386   .     A
C647   C649    1.404   .     A
C648   C650    1.404   .     A
C649   C651    1.407   .     A
C649   C685    1.522   .     S
C650   C689    1.522   .     S
C650   C652    1.407   .     A
C651   C657    1.405   .     A
C651   C653    1.422   .     A
C652   C658    1.405   .     A
C652   C654    1.422   .     A
C653   C655    1.418   .     A
C653   C24     1.402   1_556 S
C654   C656    1.418   .     A
C655   C660    1.412   .     A
C656   C659    1.412   .     A
C657   H663    1.081   .     S
C657   C29     1.390   1_556 S
C658   H664    1.081   .     S
C659   C693    1.513   .     S
C660   C697    1.513   .     S
C660   C28     1.390   1_556 S
C665   H669    1.084   .     S
C665   C674    1.397   .     A
C665   C807    1.369   1_455 S
C666   C673    1.397   .     A
C666   H670    1.084   .     S
C666   C738    1.369   .     S
C667   C673    1.397   .     A
C667   H671    1.084   .     S
C667   C735    1.369   .     S
C668   C674    1.397   .     A
C668   H672    1.084   .     S
C668   C806    1.369   1_455 S
C675   H679    1.082   .     S
C675   N684    1.366   .     A
C675   C1098   1.417   1_545 S
C676   H680    1.082   .     S
C676   N683    1.366   .     A
C676   C887    1.417   .     S
C677   N684    1.366   .     A
C677   H681    1.082   .     S
C677   C1096   1.417   1_545 S
C678   H682    1.082   .     S
C678   N683    1.366   .     A
C678   C885    1.417   .     S
C685   H686    1.106   .     S
C685   H687    1.110   .     S
C685   H688    1.111   .     S
C689   H690    1.106   .     S
C689   H692    1.110   .     S
C689   H691    1.111   .     S
C693   H695    1.110   .     S
C693   H696    1.110   .     S
C693   H694    1.111   .     S
C697   H700    1.110   .     S
C697   H699    1.110   .     S
C697   H698    1.111   .     S
O701   C705    1.282   .     A
O701   Zn713   1.995   .     S
O702   C706    1.282   .     A
O702   Zn714   1.995   .     S
O703   Zn713   1.994   .     S
O703   C706    1.282   .     A
O704   Zn714   1.994   .     S
O704   C705    1.282   .     A
C705   C744    1.415   .     S
C706   C743    1.415   .     S
O707   C711    1.282   .     A
O707   Zn713   2.010   .     S
O708   C712    1.282   .     A
O708   Zn714   2.010   .     S
O709   C712    1.282   .     A
O709   Zn713   2.010   .     S
O710   C711    1.282   .     A
O710   Zn714   2.010   .     S
C711   C718    1.421   .     S
C712   C717    1.421   .     S
Zn713  N753    2.010   .     S
Zn714  N754    2.010   .     S
C715   C725    1.386   .     A
C715   C717    1.384   .     A
C715   H731    1.084   .     S
C716   H732    1.084   .     S
C716   C718    1.384   .     A
C716   C726    1.386   .     A
C717   C719    1.404   .     A
C718   C720    1.404   .     A
C719   C721    1.407   .     A
C719   C755    1.522   .     S
C720   C759    1.522   .     S
C720   C722    1.407   .     A
C721   C727    1.405   .     A
C721   C723    1.422   .     A
C722   C728    1.405   .     A
C722   C724    1.422   .     A
C723   C725    1.418   .     A
C723   C94     1.402   1_556 S
C724   C726    1.418   .     A
C725   C730    1.412   .     A
C726   C729    1.412   .     A
C727   H733    1.081   .     S
C727   C99     1.390   1_556 S
C728   H734    1.081   .     S
C729   C763    1.513   .     S
C730   C767    1.513   .     S
C730   C98     1.390   1_556 S
C735   H739    1.084   .     S
C735   C744    1.397   .     A
C736   C743    1.397   .     A
C736   H740    1.084   .     S
C736   C808    1.369   .     S
C737   C743    1.397   .     A
C737   H741    1.084   .     S
C737   C805    1.369   .     S
C738   C744    1.397   .     A
C738   H742    1.084   .     S
C745   H749    1.082   .     S
C745   N754    1.366   .     A
C745   C1168   1.417   1_545 S
C746   H750    1.082   .     S
C746   N753    1.366   .     A
C746   C957    1.417   .     S
C747   N754    1.366   .     A
C747   H751    1.082   .     S
C747   C1166   1.417   1_545 S
C748   H752    1.082   .     S
C748   N753    1.366   .     A
C748   C955    1.417   .     S
C755   H756    1.106   .     S
C755   H757    1.110   .     S
C755   H758    1.111   .     S
C759   H760    1.106   .     S
C759   H762    1.110   .     S
C759   H761    1.111   .     S
C763   H765    1.110   .     S
C763   H766    1.110   .     S
C763   H764    1.111   .     S
C767   H770    1.110   .     S
C767   H769    1.110   .     S
C767   H768    1.111   .     S
O771   C775    1.282   .     A
O771   Zn783   1.995   .     S
O772   C776    1.282   .     A
O772   Zn784   1.995   .     S
O773   Zn783   1.994   .     S
O773   C776    1.282   .     A
O774   Zn784   1.994   .     S
O774   C775    1.282   .     A
C775   C814    1.415   .     S
C776   C813    1.415   .     S
O777   C781    1.282   .     A
O777   Zn783   2.010   .     S
O778   C782    1.282   .     A
O778   Zn784   2.010   .     S
O779   C782    1.282   .     A
O779   Zn783   2.010   .     S
O780   C781    1.282   .     A
O780   Zn784   2.010   .     S
C781   C788    1.421   .     S
C782   C787    1.421   .     S
Zn783  N823    2.010   .     S
Zn784  N824    2.010   .     S
C785   C795    1.386   .     A
C785   C787    1.384   .     A
C785   H801    1.084   .     S
C786   H802    1.084   .     S
C786   C788    1.384   .     A
C786   C796    1.386   .     A
C787   C789    1.404   .     A
C788   C790    1.404   .     A
C789   C791    1.407   .     A
C789   C825    1.522   .     S
C790   C829    1.522   .     S
C790   C792    1.407   .     A
C791   C797    1.405   .     A
C791   C793    1.422   .     A
C792   C798    1.405   .     A
C792   C794    1.422   .     A
C793   C795    1.418   .     A
C793   C164    1.402   1_556 S
C794   C796    1.418   .     A
C795   C800    1.412   .     A
C796   C799    1.412   .     A
C797   H803    1.081   .     S
C797   C169    1.390   1_556 S
C798   H804    1.081   .     S
C799   C833    1.513   .     S
C800   C837    1.513   .     S
C800   C168    1.390   1_556 S
C805   H809    1.084   .     S
C805   C814    1.397   .     A
C806   C813    1.397   .     A
C806   H810    1.084   .     S
C806   C668    1.369   1_655 S
C807   C813    1.397   .     A
C807   H811    1.084   .     S
C807   C665    1.369   1_655 S
C808   C814    1.397   .     A
C808   H812    1.084   .     S
C815   H819    1.082   .     S
C815   N824    1.366   .     A
C815   C1238   1.417   1_545 S
C816   H820    1.082   .     S
C816   N823    1.366   .     A
C816   C1027   1.417   .     S
C817   N824    1.366   .     A
C817   H821    1.082   .     S
C817   C1236   1.417   1_545 S
C818   H822    1.082   .     S
C818   N823    1.366   .     A
C818   C1025   1.417   .     S
C825   H826    1.106   .     S
C825   H827    1.110   .     S
C825   H828    1.111   .     S
C829   H830    1.106   .     S
C829   H832    1.110   .     S
C829   H831    1.111   .     S
C833   H835    1.110   .     S
C833   H836    1.110   .     S
C833   H834    1.111   .     S
C837   H840    1.110   .     S
C837   H839    1.110   .     S
C837   H838    1.111   .     S
O841   C845    1.282   .     A
O841   Zn853   1.995   .     S
O842   C846    1.282   .     A
O842   Zn854   1.995   .     S
O843   Zn853   1.994   .     S
O843   C846    1.282   .     A
O844   Zn854   1.994   .     S
O844   C845    1.282   .     A
C845   C884    1.415   .     S
C846   C883    1.415   .     S
O847   C851    1.282   .     A
O847   Zn853   2.010   .     S
O848   C852    1.282   .     A
O848   Zn854   2.010   .     S
O849   C852    1.282   .     A
O849   Zn853   2.010   .     S
O850   C851    1.282   .     A
O850   Zn854   2.010   .     S
C851   C858    1.421   .     S
C852   C857    1.421   .     S
Zn853  N893    2.010   .     S
Zn854  N894    2.010   .     S
C855   C865    1.386   .     A
C855   C857    1.384   .     A
C855   H871    1.084   .     S
C856   H872    1.084   .     S
C856   C858    1.384   .     A
C856   C866    1.386   .     A
C857   C859    1.404   .     A
C858   C860    1.404   .     A
C859   C861    1.407   .     A
C859   C895    1.522   .     S
C860   C899    1.522   .     S
C860   C862    1.407   .     A
C861   C867    1.405   .     A
C861   C863    1.422   .     A
C862   C868    1.405   .     A
C862   C864    1.422   .     A
C863   C865    1.418   .     A
C863   C234    1.402   1_556 S
C864   C866    1.418   .     A
C865   C870    1.412   .     A
C866   C869    1.412   .     A
C867   H873    1.081   .     S
C867   C239    1.390   1_556 S
C868   H874    1.081   .     S
C869   C903    1.513   .     S
C870   C907    1.513   .     S
C870   C238    1.390   1_556 S
C875   H879    1.084   .     S
C875   C884    1.397   .     A
C875   C1017   1.369   1_455 S
C876   C883    1.397   .     A
C876   H880    1.084   .     S
C876   C948    1.369   .     S
C877   C883    1.397   .     A
C877   H881    1.084   .     S
C877   C945    1.369   .     S
C878   C884    1.397   .     A
C878   H882    1.084   .     S
C878   C1016   1.369   1_455 S
C885   H889    1.082   .     S
C885   N894    1.366   .     A
C886   H890    1.082   .     S
C886   N893    1.366   .     A
C886   C1097   1.417   .     S
C887   N894    1.366   .     A
C887   H891    1.082   .     S
C888   H892    1.082   .     S
C888   N893    1.366   .     A
C888   C1095   1.417   .     S
C895   H896    1.106   .     S
C895   H897    1.110   .     S
C895   H898    1.111   .     S
C899   H900    1.106   .     S
C899   H902    1.110   .     S
C899   H901    1.111   .     S
C903   H905    1.110   .     S
C903   H906    1.110   .     S
C903   H904    1.111   .     S
C907   H910    1.110   .     S
C907   H909    1.110   .     S
C907   H908    1.111   .     S
O911   C915    1.282   .     A
O911   Zn923   1.995   .     S
O912   C916    1.282   .     A
O912   Zn924   1.995   .     S
O913   Zn923   1.994   .     S
O913   C916    1.282   .     A
O914   Zn924   1.994   .     S
O914   C915    1.282   .     A
C915   C954    1.415   .     S
C916   C953    1.415   .     S
O917   C921    1.282   .     A
O917   Zn923   2.010   .     S
O918   C922    1.282   .     A
O918   Zn924   2.010   .     S
O919   C922    1.282   .     A
O919   Zn923   2.010   .     S
O920   C921    1.282   .     A
O920   Zn924   2.010   .     S
C921   C928    1.421   .     S
C922   C927    1.421   .     S
Zn923  N963    2.010   .     S
Zn924  N964    2.010   .     S
C925   C935    1.386   .     A
C925   C927    1.384   .     A
C925   H941    1.084   .     S
C926   H942    1.084   .     S
C926   C928    1.384   .     A
C926   C936    1.386   .     A
C927   C929    1.404   .     A
C928   C930    1.404   .     A
C929   C931    1.407   .     A
C929   C965    1.522   .     S
C930   C969    1.522   .     S
C930   C932    1.407   .     A
C931   C937    1.405   .     A
C931   C933    1.422   .     A
C932   C938    1.405   .     A
C932   C934    1.422   .     A
C933   C935    1.418   .     A
C933   C304    1.402   1_556 S
C934   C936    1.418   .     A
C935   C940    1.412   .     A
C936   C939    1.412   .     A
C937   H943    1.081   .     S
C937   C309    1.390   1_556 S
C938   H944    1.081   .     S
C939   C973    1.513   .     S
C940   C977    1.513   .     S
C940   C308    1.390   1_556 S
C945   H949    1.084   .     S
C945   C954    1.397   .     A
C946   C953    1.397   .     A
C946   H950    1.084   .     S
C946   C1018   1.369   .     S
C947   C953    1.397   .     A
C947   H951    1.084   .     S
C947   C1015   1.369   .     S
C948   C954    1.397   .     A
C948   H952    1.084   .     S
C955   H959    1.082   .     S
C955   N964    1.366   .     A
C956   H960    1.082   .     S
C956   N963    1.366   .     A
C956   C1167   1.417   .     S
C957   N964    1.366   .     A
C957   H961    1.082   .     S
C958   H962    1.082   .     S
C958   N963    1.366   .     A
C958   C1165   1.417   .     S
C965   H966    1.106   .     S
C965   H967    1.110   .     S
C965   H968    1.111   .     S
C969   H970    1.106   .     S
C969   H972    1.110   .     S
C969   H971    1.111   .     S
C973   H975    1.110   .     S
C973   H976    1.110   .     S
C973   H974    1.111   .     S
C977   H980    1.110   .     S
C977   H979    1.110   .     S
C977   H978    1.111   .     S
O981   C985    1.282   .     A
O981   Zn993   1.995   .     S
O982   C986    1.282   .     A
O982   Zn994   1.995   .     S
O983   Zn993   1.994   .     S
O983   C986    1.282   .     A
O984   Zn994   1.994   .     S
O984   C985    1.282   .     A
C985   C1024   1.415   .     S
C986   C1023   1.415   .     S
O987   C991    1.282   .     A
O987   Zn993   2.010   .     S
O988   C992    1.282   .     A
O988   Zn994   2.010   .     S
O989   C992    1.282   .     A
O989   Zn993   2.010   .     S
O990   C991    1.282   .     A
O990   Zn994   2.010   .     S
C991   C998    1.421   .     S
C992   C997    1.421   .     S
Zn993  N1033   2.010   .     S
Zn994  N1034   2.010   .     S
C995   C1005   1.386   .     A
C995   C997    1.384   .     A
C995   H1011   1.084   .     S
C996   H1012   1.084   .     S
C996   C998    1.384   .     A
C996   C1006   1.386   .     A
C997   C999    1.404   .     A
C998   C1000   1.404   .     A
C999   C1001   1.407   .     A
C999   C1035   1.522   .     S
C1000  C1039   1.522   .     S
C1000  C1002   1.407   .     A
C1001  C1007   1.405   .     A
C1001  C1003   1.422   .     A
C1002  C1008   1.405   .     A
C1002  C1004   1.422   .     A
C1003  C1005   1.418   .     A
C1003  C374    1.402   1_556 S
C1004  C1006   1.418   .     A
C1005  C1010   1.412   .     A
C1006  C1009   1.412   .     A
C1007  H1013   1.081   .     S
C1007  C379    1.390   1_556 S
C1008  H1014   1.081   .     S
C1009  C1043   1.513   .     S
C1010  C1047   1.513   .     S
C1010  C378    1.390   1_556 S
C1015  H1019   1.084   .     S
C1015  C1024   1.397   .     A
C1016  C1023   1.397   .     A
C1016  H1020   1.084   .     S
C1016  C878    1.369   1_655 S
C1017  C1023   1.397   .     A
C1017  H1021   1.084   .     S
C1017  C875    1.369   1_655 S
C1018  C1024   1.397   .     A
C1018  H1022   1.084   .     S
C1025  H1029   1.082   .     S
C1025  N1034   1.366   .     A
C1026  H1030   1.082   .     S
C1026  N1033   1.366   .     A
C1026  C1237   1.417   .     S
C1027  N1034   1.366   .     A
C1027  H1031   1.082   .     S
C1028  H1032   1.082   .     S
C1028  N1033   1.366   .     A
C1028  C1235   1.417   .     S
C1035  H1036   1.106   .     S
C1035  H1037   1.110   .     S
C1035  H1038   1.111   .     S
C1039  H1040   1.106   .     S
C1039  H1042   1.110   .     S
C1039  H1041   1.111   .     S
C1043  H1045   1.110   .     S
C1043  H1046   1.110   .     S
C1043  H1044   1.111   .     S
C1047  H1050   1.110   .     S
C1047  H1049   1.110   .     S
C1047  H1048   1.111   .     S
O1051  C1055   1.282   .     A
O1051  Zn1063  1.995   .     S
O1052  C1056   1.282   .     A
O1052  Zn1064  1.995   .     S
O1053  Zn1063  1.994   .     S
O1053  C1056   1.282   .     A
O1054  Zn1064  1.994   .     S
O1054  C1055   1.282   .     A
C1055  C1094   1.415   .     S
C1056  C1093   1.415   .     S
O1057  C1061   1.282   .     A
O1057  Zn1063  2.010   .     S
O1058  C1062   1.282   .     A
O1058  Zn1064  2.010   .     S
O1059  C1062   1.282   .     A
O1059  Zn1063  2.010   .     S
O1060  C1061   1.282   .     A
O1060  Zn1064  2.010   .     S
C1061  C1068   1.421   .     S
C1062  C1067   1.421   .     S
Zn1063 N1103   2.010   .     S
Zn1064 N1104   2.010   .     S
C1065  C1075   1.386   .     A
C1065  C1067   1.384   .     A
C1065  H1081   1.084   .     S
C1066  H1082   1.084   .     S
C1066  C1068   1.384   .     A
C1066  C1076   1.386   .     A
C1067  C1069   1.404   .     A
C1068  C1070   1.404   .     A
C1069  C1071   1.407   .     A
C1069  C1105   1.522   .     S
C1070  C1109   1.522   .     S
C1070  C1072   1.407   .     A
C1071  C1077   1.405   .     A
C1071  C1073   1.422   .     A
C1072  C1078   1.405   .     A
C1072  C1074   1.422   .     A
C1073  C1075   1.418   .     A
C1073  C444    1.402   1_556 S
C1074  C1076   1.418   .     A
C1075  C1080   1.412   .     A
C1076  C1079   1.412   .     A
C1077  H1083   1.081   .     S
C1077  C449    1.390   1_556 S
C1078  H1084   1.081   .     S
C1079  C1113   1.513   .     S
C1080  C1117   1.513   .     S
C1080  C448    1.390   1_556 S
C1085  H1089   1.084   .     S
C1085  C1094   1.397   .     A
C1085  C1227   1.369   1_455 S
C1086  C1093   1.397   .     A
C1086  H1090   1.084   .     S
C1086  C1158   1.369   .     S
C1087  C1093   1.397   .     A
C1087  H1091   1.084   .     S
C1087  C1155   1.369   .     S
C1088  C1094   1.397   .     A
C1088  H1092   1.084   .     S
C1088  C1226   1.369   1_455 S
C1095  H1099   1.082   .     S
C1095  N1104   1.366   .     A
C1096  H1100   1.082   .     S
C1096  N1103   1.366   .     A
C1096  C677    1.417   1_565 S
C1097  N1104   1.366   .     A
C1097  H1101   1.082   .     S
C1098  H1102   1.082   .     S
C1098  N1103   1.366   .     A
C1098  C675    1.417   1_565 S
C1105  H1106   1.106   .     S
C1105  H1107   1.110   .     S
C1105  H1108   1.111   .     S
C1109  H1110   1.106   .     S
C1109  H1112   1.110   .     S
C1109  H1111   1.111   .     S
C1113  H1115   1.110   .     S
C1113  H1116   1.110   .     S
C1113  H1114   1.111   .     S
C1117  H1120   1.110   .     S
C1117  H1119   1.110   .     S
C1117  H1118   1.111   .     S
O1121  C1125   1.282   .     A
O1121  Zn1133  1.995   .     S
O1122  C1126   1.282   .     A
O1122  Zn1134  1.995   .     S
O1123  Zn1133  1.994   .     S
O1123  C1126   1.282   .     A
O1124  Zn1134  1.994   .     S
O1124  C1125   1.282   .     A
C1125  C1164   1.415   .     S
C1126  C1163   1.415   .     S
O1127  C1131   1.282   .     A
O1127  Zn1133  2.010   .     S
O1128  C1132   1.282   .     A
O1128  Zn1134  2.010   .     S
O1129  C1132   1.282   .     A
O1129  Zn1133  2.010   .     S
O1130  C1131   1.282   .     A
O1130  Zn1134  2.010   .     S
C1131  C1138   1.421   .     S
C1132  C1137   1.421   .     S
Zn1133 N1173   2.010   .     S
Zn1134 N1174   2.010   .     S
C1135  C1145   1.386   .     A
C1135  C1137   1.384   .     A
C1135  H1151   1.084   .     S
C1136  H1152   1.084   .     S
C1136  C1138   1.384   .     A
C1136  C1146   1.386   .     A
C1137  C1139   1.404   .     A
C1138  C1140   1.404   .     A
C1139  C1141   1.407   .     A
C1139  C1175   1.522   .     S
C1140  C1179   1.522   .     S
C1140  C1142   1.407   .     A
C1141  C1147   1.405   .     A
C1141  C1143   1.422   .     A
C1142  C1148   1.405   .     A
C1142  C1144   1.422   .     A
C1143  C1145   1.418   .     A
C1143  C514    1.402   1_556 S
C1144  C1146   1.418   .     A
C1145  C1150   1.412   .     A
C1146  C1149   1.412   .     A
C1147  H1153   1.081   .     S
C1147  C519    1.390   1_556 S
C1148  H1154   1.081   .     S
C1149  C1183   1.513   .     S
C1150  C1187   1.513   .     S
C1150  C518    1.390   1_556 S
C1155  H1159   1.084   .     S
C1155  C1164   1.397   .     A
C1156  C1163   1.397   .     A
C1156  H1160   1.084   .     S
C1156  C1228   1.369   .     S
C1157  C1163   1.397   .     A
C1157  H1161   1.084   .     S
C1157  C1225   1.369   .     S
C1158  C1164   1.397   .     A
C1158  H1162   1.084   .     S
C1165  H1169   1.082   .     S
C1165  N1174   1.366   .     A
C1166  H1170   1.082   .     S
C1166  N1173   1.366   .     A
C1166  C747    1.417   1_565 S
C1167  N1174   1.366   .     A
C1167  H1171   1.082   .     S
C1168  H1172   1.082   .     S
C1168  N1173   1.366   .     A
C1168  C745    1.417   1_565 S
C1175  H1176   1.106   .     S
C1175  H1177   1.110   .     S
C1175  H1178   1.111   .     S
C1179  H1180   1.106   .     S
C1179  H1182   1.110   .     S
C1179  H1181   1.111   .     S
C1183  H1185   1.110   .     S
C1183  H1186   1.110   .     S
C1183  H1184   1.111   .     S
C1187  H1190   1.110   .     S
C1187  H1189   1.110   .     S
C1187  H1188   1.111   .     S
O1191  C1195   1.282   .     A
O1191  Zn1203  1.995   .     S
O1192  C1196   1.282   .     A
O1192  Zn1204  1.995   .     S
O1193  Zn1203  1.994   .     S
O1193  C1196   1.282   .     A
O1194  Zn1204  1.994   .     S
O1194  C1195   1.282   .     A
C1195  C1234   1.415   .     S
C1196  C1233   1.415   .     S
O1197  C1201   1.282   .     A
O1197  Zn1203  2.010   .     S
O1198  C1202   1.282   .     A
O1198  Zn1204  2.010   .     S
O1199  C1202   1.282   .     A
O1199  Zn1203  2.010   .     S
O1200  C1201   1.282   .     A
O1200  Zn1204  2.010   .     S
C1201  C1208   1.421   .     S
C1202  C1207   1.421   .     S
Zn1203 N1243   2.010   .     S
Zn1204 N1244   2.010   .     S
C1205  C1215   1.386   .     A
C1205  C1207   1.384   .     A
C1205  H1221   1.084   .     S
C1206  H1222   1.084   .     S
C1206  C1208   1.384   .     A
C1206  C1216   1.386   .     A
C1207  C1209   1.404   .     A
C1208  C1210   1.404   .     A
C1209  C1211   1.407   .     A
C1209  C1245   1.522   .     S
C1210  C1249   1.522   .     S
C1210  C1212   1.407   .     A
C1211  C1217   1.405   .     A
C1211  C1213   1.422   .     A
C1212  C1218   1.405   .     A
C1212  C1214   1.422   .     A
C1213  C1215   1.418   .     A
C1213  C584    1.402   1_556 S
C1214  C1216   1.418   .     A
C1215  C1220   1.412   .     A
C1216  C1219   1.412   .     A
C1217  H1223   1.081   .     S
C1217  C589    1.390   1_556 S
C1218  H1224   1.081   .     S
C1219  C1253   1.513   .     S
C1220  C1257   1.513   .     S
C1220  C588    1.390   1_556 S
C1225  H1229   1.084   .     S
C1225  C1234   1.397   .     A
C1226  C1233   1.397   .     A
C1226  H1230   1.084   .     S
C1226  C1088   1.369   1_655 S
C1227  C1233   1.397   .     A
C1227  H1231   1.084   .     S
C1227  C1085   1.369   1_655 S
C1228  C1234   1.397   .     A
C1228  H1232   1.084   .     S
C1235  H1239   1.082   .     S
C1235  N1244   1.366   .     A
C1236  H1240   1.082   .     S
C1236  N1243   1.366   .     A
C1236  C817    1.417   1_565 S
C1237  N1244   1.366   .     A
C1237  H1241   1.082   .     S
C1238  H1242   1.082   .     S
C1238  N1243   1.366   .     A
C1238  C815    1.417   1_565 S
C1245  H1246   1.106   .     S
C1245  H1247   1.110   .     S
C1245  H1248   1.111   .     S
C1249  H1250   1.106   .     S
C1249  H1252   1.110   .     S
C1249  H1251   1.111   .     S
C1253  H1255   1.110   .     S
C1253  H1256   1.110   .     S
C1253  H1254   1.111   .     S
C1257  H1260   1.110   .     S
C1257  H1259   1.110   .     S
C1257  H1258   1.111   .     S
