data_str_m3_o2_o5_pcu_sym.58
_audit_creation_date              2020-01-03
_audit_creation_method            'Materials Studio'
_symmetry_space_group_name_H-M    'P1'
_symmetry_Int_Tables_number       1
_symmetry_cell_setting            triclinic
loop_
_symmetry_equiv_pos_as_xyz
  x,y,z
_cell_length_a                    29.9720
_cell_length_b                    28.6308
_cell_length_c                    26.6510
_cell_angle_alpha                 89.9939
_cell_angle_beta                  91.3924
_cell_angle_gamma                 89.9789
loop_
_atom_site_label
_atom_site_type_symbol
_atom_site_fract_x
_atom_site_fract_y
_atom_site_fract_z
_atom_site_U_iso_or_equiv
_atom_site_adp_type
_atom_site_occupancy
C1     C     0.16410   0.25013   0.16658   0.00000  Uiso   1.00
C2     C     0.21912   0.44716   0.13723   0.00000  Uiso   1.00
C3     C     0.24991   0.25000   0.07297   0.00000  Uiso   1.00
C4     C     0.25009   0.25000   0.26036   0.00000  Uiso   1.00
C5     C     0.25000   0.02626   0.16664   0.00000  Uiso   1.00
C6     C     0.25001   0.47308   0.16664   0.00000  Uiso   1.00
C7     C     0.24997   0.25000   0.02183   0.00000  Uiso   1.00
C8     C     0.25003   0.25000   0.31150   0.00000  Uiso   1.00
C9     C     0.04832   0.27909   0.20304   0.00000  Uiso   1.00
C10    C     0.45455   0.22806   0.20372   0.00000  Uiso   1.00
C11    C     0.45160   0.27937   0.13013   0.00000  Uiso   1.00
C12    C     0.33591   0.25012   0.16672   0.00000  Uiso   1.00
C13    C     0.04559   0.22858   0.12881   0.00000  Uiso   1.00
C14    C     0.09463   0.27634   0.20429   0.00000  Uiso   1.00
C15    C     0.40827   0.22806   0.20471   0.00000  Uiso   1.00
C16    C     0.40528   0.27663   0.12901   0.00000  Uiso   1.00
C17    C     0.09188   0.22857   0.12800   0.00000  Uiso   1.00
C18    C     0.11618   0.25102   0.16669   0.00000  Uiso   1.00
C19    C     0.38384   0.25096   0.16642   0.00000  Uiso   1.00
C20    C     0.02411   0.25426   0.16602   0.00000  Uiso   1.00
C21    C     0.47592   0.25417   0.16678   0.00000  Uiso   1.00
C22    C     0.22970   0.10142   0.12824   0.00000  Uiso   1.00
C23    C     0.27993   0.39798   0.19633   0.00000  Uiso   1.00
C24    C     0.27027   0.10137   0.20511   0.00000  Uiso   1.00
C25    C     0.22008   0.39800   0.13699   0.00000  Uiso   1.00
C26    C     0.23023   0.05222   0.12727   0.00000  Uiso   1.00
C27    C     0.28089   0.44714   0.19606   0.00000  Uiso   1.00
C28    C     0.26976   0.05219   0.20604   0.00000  Uiso   1.00
Cl29   Cl    0.20147   0.12889   0.07825   0.00000  Uiso   1.00
Cl30   Cl    0.38149   0.20259   0.25622   0.00000  Uiso   1.00
Cl31   Cl    0.37446   0.30447   0.07994   0.00000  Uiso   1.00
Cl32   Cl    0.11885   0.20364   0.07631   0.00000  Uiso   1.00
Cl33   Cl    0.31804   0.36864   0.23616   0.00000  Uiso   1.00
Cl34   Cl    0.29833   0.12879   0.25523   0.00000  Uiso   1.00
Cl35   Cl    0.18195   0.36869   0.09718   0.00000  Uiso   1.00
Cl36   Cl    0.02060   0.31346   0.24791   0.00000  Uiso   1.00
Cl37   Cl    0.48571   0.19520   0.24871   0.00000  Uiso   1.00
Cl38   Cl    0.47918   0.31425   0.08561   0.00000  Uiso   1.00
Cl39   Cl    0.01457   0.19624   0.08329   0.00000  Uiso   1.00
Cl40   Cl    0.12534   0.30371   0.25372   0.00000  Uiso   1.00
H41    H     0.21522   0.03487   0.09506   0.00000  Uiso   1.00
H42    H     0.30628   0.46440   0.21875   0.00000  Uiso   1.00
H43    H     0.28474   0.03480   0.23825   0.00000  Uiso   1.00
H44    H     0.19374   0.46445   0.11453   0.00000  Uiso   1.00
N45    N     0.25000   0.12623   0.16667   0.00000  Uiso   1.00
N46    N     0.25000   0.37377   0.16667   0.00000  Uiso   1.00
O47    O     0.18453   0.28974   0.16667   0.00000  Uiso   1.00
O48    O     0.31547   0.21026   0.16666   0.00000  Uiso   1.00
O49    O     0.31547   0.28974   0.16666   0.00000  Uiso   1.00
O50    O     0.18453   0.21026   0.16667   0.00000  Uiso   1.00
O51    O     0.25000   0.28973   0.09511   0.00000  Uiso   1.00
O52    O     0.25000   0.21027   0.23822   0.00000  Uiso   1.00
O53    O     0.25000   0.28973   0.23822   0.00000  Uiso   1.00
O54    O     0.25000   0.21027   0.09511   0.00000  Uiso   1.00
Zn55   Zn    0.25000   0.30307   0.16667   0.00000  Uiso   1.00
Zn56   Zn    0.25000   0.19693   0.16667   0.00000  Uiso   1.00
C57    C     0.66410   0.25013   0.16658   0.00000  Uiso   1.00
C58    C     0.71912   0.44716   0.13723   0.00000  Uiso   1.00
C59    C     0.74991   0.25000   0.07297   0.00000  Uiso   1.00
C60    C     0.75009   0.25000   0.26036   0.00000  Uiso   1.00
C61    C     0.75000   0.02626   0.16664   0.00000  Uiso   1.00
C62    C     0.75001   0.47308   0.16664   0.00000  Uiso   1.00
C63    C     0.74997   0.25000   0.02183   0.00000  Uiso   1.00
C64    C     0.75003   0.25000   0.31150   0.00000  Uiso   1.00
C65    C     0.54832   0.27909   0.20304   0.00000  Uiso   1.00
C66    C     0.95455   0.22806   0.20372   0.00000  Uiso   1.00
C67    C     0.95160   0.27937   0.13013   0.00000  Uiso   1.00
C68    C     0.83591   0.25012   0.16672   0.00000  Uiso   1.00
C69    C     0.54559   0.22858   0.12881   0.00000  Uiso   1.00
C70    C     0.59463   0.27634   0.20429   0.00000  Uiso   1.00
C71    C     0.90827   0.22806   0.20471   0.00000  Uiso   1.00
C72    C     0.90528   0.27663   0.12901   0.00000  Uiso   1.00
C73    C     0.59188   0.22857   0.12800   0.00000  Uiso   1.00
C74    C     0.61618   0.25102   0.16669   0.00000  Uiso   1.00
C75    C     0.88384   0.25096   0.16642   0.00000  Uiso   1.00
C76    C     0.52411   0.25426   0.16602   0.00000  Uiso   1.00
C77    C     0.97592   0.25417   0.16678   0.00000  Uiso   1.00
C78    C     0.72970   0.10142   0.12824   0.00000  Uiso   1.00
C79    C     0.77993   0.39798   0.19633   0.00000  Uiso   1.00
C80    C     0.77027   0.10137   0.20511   0.00000  Uiso   1.00
C81    C     0.72008   0.39800   0.13699   0.00000  Uiso   1.00
C82    C     0.73023   0.05222   0.12727   0.00000  Uiso   1.00
C83    C     0.78089   0.44714   0.19606   0.00000  Uiso   1.00
C84    C     0.76976   0.05219   0.20604   0.00000  Uiso   1.00
Cl85   Cl    0.70147   0.12889   0.07825   0.00000  Uiso   1.00
Cl86   Cl    0.88149   0.20259   0.25622   0.00000  Uiso   1.00
Cl87   Cl    0.87446   0.30447   0.07994   0.00000  Uiso   1.00
Cl88   Cl    0.61885   0.20364   0.07631   0.00000  Uiso   1.00
Cl89   Cl    0.81804   0.36864   0.23616   0.00000  Uiso   1.00
Cl90   Cl    0.79833   0.12879   0.25523   0.00000  Uiso   1.00
Cl91   Cl    0.68195   0.36869   0.09718   0.00000  Uiso   1.00
Cl92   Cl    0.52060   0.31346   0.24791   0.00000  Uiso   1.00
Cl93   Cl    0.98571   0.19520   0.24871   0.00000  Uiso   1.00
Cl94   Cl    0.97918   0.31425   0.08561   0.00000  Uiso   1.00
Cl95   Cl    0.51457   0.19624   0.08329   0.00000  Uiso   1.00
Cl96   Cl    0.62534   0.30371   0.25372   0.00000  Uiso   1.00
H97    H     0.71522   0.03487   0.09506   0.00000  Uiso   1.00
H98    H     0.80628   0.46440   0.21875   0.00000  Uiso   1.00
H99    H     0.78474   0.03480   0.23825   0.00000  Uiso   1.00
H100   H     0.69374   0.46445   0.11453   0.00000  Uiso   1.00
N101   N     0.75000   0.12623   0.16667   0.00000  Uiso   1.00
N102   N     0.75000   0.37377   0.16667   0.00000  Uiso   1.00
O103   O     0.68453   0.28974   0.16667   0.00000  Uiso   1.00
O104   O     0.81547   0.21026   0.16666   0.00000  Uiso   1.00
O105   O     0.81547   0.28974   0.16666   0.00000  Uiso   1.00
O106   O     0.68453   0.21026   0.16667   0.00000  Uiso   1.00
O107   O     0.75000   0.28973   0.09511   0.00000  Uiso   1.00
O108   O     0.75000   0.21027   0.23822   0.00000  Uiso   1.00
O109   O     0.75000   0.28973   0.23822   0.00000  Uiso   1.00
O110   O     0.75000   0.21027   0.09511   0.00000  Uiso   1.00
Zn111  Zn    0.75000   0.30307   0.16667   0.00000  Uiso   1.00
Zn112  Zn    0.75000   0.19693   0.16667   0.00000  Uiso   1.00
C113   C     0.16410   0.75013   0.16658   0.00000  Uiso   1.00
C114   C     0.21912   0.94716   0.13723   0.00000  Uiso   1.00
C115   C     0.24991   0.75000   0.07297   0.00000  Uiso   1.00
C116   C     0.25009   0.75000   0.26036   0.00000  Uiso   1.00
C117   C     0.25000   0.52626   0.16664   0.00000  Uiso   1.00
C118   C     0.25001   0.97308   0.16664   0.00000  Uiso   1.00
C119   C     0.24997   0.75000   0.02183   0.00000  Uiso   1.00
C120   C     0.25003   0.75000   0.31150   0.00000  Uiso   1.00
C121   C     0.04832   0.77909   0.20304   0.00000  Uiso   1.00
C122   C     0.45455   0.72806   0.20372   0.00000  Uiso   1.00
C123   C     0.45160   0.77937   0.13013   0.00000  Uiso   1.00
C124   C     0.33591   0.75012   0.16672   0.00000  Uiso   1.00
C125   C     0.04559   0.72858   0.12881   0.00000  Uiso   1.00
C126   C     0.09463   0.77634   0.20429   0.00000  Uiso   1.00
C127   C     0.40827   0.72806   0.20471   0.00000  Uiso   1.00
C128   C     0.40528   0.77663   0.12901   0.00000  Uiso   1.00
C129   C     0.09188   0.72857   0.12800   0.00000  Uiso   1.00
C130   C     0.11618   0.75102   0.16669   0.00000  Uiso   1.00
C131   C     0.38384   0.75096   0.16642   0.00000  Uiso   1.00
C132   C     0.02411   0.75426   0.16602   0.00000  Uiso   1.00
C133   C     0.47592   0.75417   0.16678   0.00000  Uiso   1.00
C134   C     0.22970   0.60142   0.12824   0.00000  Uiso   1.00
C135   C     0.27993   0.89798   0.19633   0.00000  Uiso   1.00
C136   C     0.27027   0.60137   0.20511   0.00000  Uiso   1.00
C137   C     0.22008   0.89800   0.13699   0.00000  Uiso   1.00
C138   C     0.23023   0.55222   0.12727   0.00000  Uiso   1.00
C139   C     0.28089   0.94714   0.19606   0.00000  Uiso   1.00
C140   C     0.26976   0.55219   0.20604   0.00000  Uiso   1.00
Cl141  Cl    0.20147   0.62889   0.07825   0.00000  Uiso   1.00
Cl142  Cl    0.38149   0.70259   0.25622   0.00000  Uiso   1.00
Cl143  Cl    0.37446   0.80447   0.07994   0.00000  Uiso   1.00
Cl144  Cl    0.11885   0.70364   0.07631   0.00000  Uiso   1.00
Cl145  Cl    0.31804   0.86864   0.23616   0.00000  Uiso   1.00
Cl146  Cl    0.29833   0.62879   0.25523   0.00000  Uiso   1.00
Cl147  Cl    0.18195   0.86869   0.09718   0.00000  Uiso   1.00
Cl148  Cl    0.02060   0.81346   0.24791   0.00000  Uiso   1.00
Cl149  Cl    0.48571   0.69520   0.24871   0.00000  Uiso   1.00
Cl150  Cl    0.47918   0.81425   0.08561   0.00000  Uiso   1.00
Cl151  Cl    0.01457   0.69624   0.08329   0.00000  Uiso   1.00
Cl152  Cl    0.12534   0.80371   0.25372   0.00000  Uiso   1.00
H153   H     0.21522   0.53487   0.09506   0.00000  Uiso   1.00
H154   H     0.30628   0.96440   0.21875   0.00000  Uiso   1.00
H155   H     0.28474   0.53480   0.23825   0.00000  Uiso   1.00
H156   H     0.19374   0.96445   0.11453   0.00000  Uiso   1.00
N157   N     0.25000   0.62623   0.16667   0.00000  Uiso   1.00
N158   N     0.25000   0.87377   0.16667   0.00000  Uiso   1.00
O159   O     0.18453   0.78974   0.16667   0.00000  Uiso   1.00
O160   O     0.31547   0.71026   0.16666   0.00000  Uiso   1.00
O161   O     0.31547   0.78974   0.16666   0.00000  Uiso   1.00
O162   O     0.18453   0.71026   0.16667   0.00000  Uiso   1.00
O163   O     0.25000   0.78973   0.09511   0.00000  Uiso   1.00
O164   O     0.25000   0.71027   0.23822   0.00000  Uiso   1.00
O165   O     0.25000   0.78973   0.23822   0.00000  Uiso   1.00
O166   O     0.25000   0.71027   0.09511   0.00000  Uiso   1.00
Zn167  Zn    0.25000   0.80307   0.16667   0.00000  Uiso   1.00
Zn168  Zn    0.25000   0.69693   0.16667   0.00000  Uiso   1.00
C169   C     0.66410   0.75013   0.16658   0.00000  Uiso   1.00
C170   C     0.71912   0.94716   0.13723   0.00000  Uiso   1.00
C171   C     0.74991   0.75000   0.07297   0.00000  Uiso   1.00
C172   C     0.75009   0.75000   0.26036   0.00000  Uiso   1.00
C173   C     0.75000   0.52626   0.16664   0.00000  Uiso   1.00
C174   C     0.75001   0.97308   0.16664   0.00000  Uiso   1.00
C175   C     0.74997   0.75000   0.02183   0.00000  Uiso   1.00
C176   C     0.75003   0.75000   0.31150   0.00000  Uiso   1.00
C177   C     0.54832   0.77909   0.20304   0.00000  Uiso   1.00
C178   C     0.95455   0.72806   0.20372   0.00000  Uiso   1.00
C179   C     0.95160   0.77937   0.13013   0.00000  Uiso   1.00
C180   C     0.83591   0.75012   0.16672   0.00000  Uiso   1.00
C181   C     0.54559   0.72858   0.12881   0.00000  Uiso   1.00
C182   C     0.59463   0.77634   0.20429   0.00000  Uiso   1.00
C183   C     0.90827   0.72806   0.20471   0.00000  Uiso   1.00
C184   C     0.90528   0.77663   0.12901   0.00000  Uiso   1.00
C185   C     0.59188   0.72857   0.12800   0.00000  Uiso   1.00
C186   C     0.61618   0.75102   0.16669   0.00000  Uiso   1.00
C187   C     0.88384   0.75096   0.16642   0.00000  Uiso   1.00
C188   C     0.52411   0.75426   0.16602   0.00000  Uiso   1.00
C189   C     0.97592   0.75417   0.16678   0.00000  Uiso   1.00
C190   C     0.72970   0.60142   0.12824   0.00000  Uiso   1.00
C191   C     0.77993   0.89798   0.19633   0.00000  Uiso   1.00
C192   C     0.77027   0.60137   0.20511   0.00000  Uiso   1.00
C193   C     0.72008   0.89800   0.13699   0.00000  Uiso   1.00
C194   C     0.73023   0.55222   0.12727   0.00000  Uiso   1.00
C195   C     0.78089   0.94714   0.19606   0.00000  Uiso   1.00
C196   C     0.76976   0.55219   0.20604   0.00000  Uiso   1.00
Cl197  Cl    0.70147   0.62889   0.07825   0.00000  Uiso   1.00
Cl198  Cl    0.88149   0.70259   0.25622   0.00000  Uiso   1.00
Cl199  Cl    0.87446   0.80447   0.07994   0.00000  Uiso   1.00
Cl200  Cl    0.61885   0.70364   0.07631   0.00000  Uiso   1.00
Cl201  Cl    0.81804   0.86864   0.23616   0.00000  Uiso   1.00
Cl202  Cl    0.79833   0.62879   0.25523   0.00000  Uiso   1.00
Cl203  Cl    0.68195   0.86869   0.09718   0.00000  Uiso   1.00
Cl204  Cl    0.52060   0.81346   0.24791   0.00000  Uiso   1.00
Cl205  Cl    0.98571   0.69520   0.24871   0.00000  Uiso   1.00
Cl206  Cl    0.97918   0.81425   0.08561   0.00000  Uiso   1.00
Cl207  Cl    0.51457   0.69624   0.08329   0.00000  Uiso   1.00
Cl208  Cl    0.62534   0.80371   0.25372   0.00000  Uiso   1.00
H209   H     0.71522   0.53487   0.09506   0.00000  Uiso   1.00
H210   H     0.80628   0.96440   0.21875   0.00000  Uiso   1.00
H211   H     0.78474   0.53480   0.23825   0.00000  Uiso   1.00
H212   H     0.69374   0.96445   0.11453   0.00000  Uiso   1.00
N213   N     0.75000   0.62623   0.16667   0.00000  Uiso   1.00
N214   N     0.75000   0.87377   0.16667   0.00000  Uiso   1.00
O215   O     0.68453   0.78974   0.16667   0.00000  Uiso   1.00
O216   O     0.81547   0.71026   0.16666   0.00000  Uiso   1.00
O217   O     0.81547   0.78974   0.16666   0.00000  Uiso   1.00
O218   O     0.68453   0.71026   0.16667   0.00000  Uiso   1.00
O219   O     0.75000   0.78973   0.09511   0.00000  Uiso   1.00
O220   O     0.75000   0.71027   0.23822   0.00000  Uiso   1.00
O221   O     0.75000   0.78973   0.23822   0.00000  Uiso   1.00
O222   O     0.75000   0.71027   0.09511   0.00000  Uiso   1.00
Zn223  Zn    0.75000   0.80307   0.16667   0.00000  Uiso   1.00
Zn224  Zn    0.75000   0.69693   0.16667   0.00000  Uiso   1.00
C225   C     0.16410   0.25013   0.49991   0.00000  Uiso   1.00
C226   C     0.21912   0.44716   0.47056   0.00000  Uiso   1.00
C227   C     0.24991   0.25000   0.40631   0.00000  Uiso   1.00
C228   C     0.25009   0.25000   0.59369   0.00000  Uiso   1.00
C229   C     0.25000   0.02626   0.49998   0.00000  Uiso   1.00
C230   C     0.25001   0.47308   0.49998   0.00000  Uiso   1.00
C231   C     0.24997   0.25000   0.35516   0.00000  Uiso   1.00
C232   C     0.25003   0.25000   0.64484   0.00000  Uiso   1.00
C233   C     0.04832   0.27909   0.53638   0.00000  Uiso   1.00
C234   C     0.45455   0.22806   0.53705   0.00000  Uiso   1.00
C235   C     0.45160   0.27937   0.46346   0.00000  Uiso   1.00
C236   C     0.33591   0.25012   0.50005   0.00000  Uiso   1.00
C237   C     0.04559   0.22858   0.46214   0.00000  Uiso   1.00
C238   C     0.09463   0.27634   0.53762   0.00000  Uiso   1.00
C239   C     0.40827   0.22806   0.53804   0.00000  Uiso   1.00
C240   C     0.40528   0.27663   0.46234   0.00000  Uiso   1.00
C241   C     0.09188   0.22857   0.46134   0.00000  Uiso   1.00
C242   C     0.11618   0.25102   0.50002   0.00000  Uiso   1.00
C243   C     0.38384   0.25096   0.49975   0.00000  Uiso   1.00
C244   C     0.02411   0.25426   0.49935   0.00000  Uiso   1.00
C245   C     0.47592   0.25417   0.50012   0.00000  Uiso   1.00
C246   C     0.22970   0.10142   0.46157   0.00000  Uiso   1.00
C247   C     0.27993   0.39798   0.52966   0.00000  Uiso   1.00
C248   C     0.27027   0.10137   0.53844   0.00000  Uiso   1.00
C249   C     0.22008   0.39800   0.47033   0.00000  Uiso   1.00
C250   C     0.23023   0.05222   0.46060   0.00000  Uiso   1.00
C251   C     0.28089   0.44714   0.52940   0.00000  Uiso   1.00
C252   C     0.26976   0.05219   0.53937   0.00000  Uiso   1.00
Cl253  Cl    0.20147   0.12889   0.41158   0.00000  Uiso   1.00
Cl254  Cl    0.38149   0.20259   0.58956   0.00000  Uiso   1.00
Cl255  Cl    0.37446   0.30447   0.41327   0.00000  Uiso   1.00
Cl256  Cl    0.11885   0.20364   0.40965   0.00000  Uiso   1.00
Cl257  Cl    0.31804   0.36864   0.56949   0.00000  Uiso   1.00
Cl258  Cl    0.29833   0.12879   0.58857   0.00000  Uiso   1.00
Cl259  Cl    0.18195   0.36869   0.43052   0.00000  Uiso   1.00
Cl260  Cl    0.02060   0.31346   0.58124   0.00000  Uiso   1.00
Cl261  Cl    0.48571   0.19520   0.58205   0.00000  Uiso   1.00
Cl262  Cl    0.47918   0.31425   0.41895   0.00000  Uiso   1.00
Cl263  Cl    0.01457   0.19624   0.41662   0.00000  Uiso   1.00
Cl264  Cl    0.12534   0.30371   0.58705   0.00000  Uiso   1.00
H265   H     0.21522   0.03487   0.42840   0.00000  Uiso   1.00
H266   H     0.30628   0.46440   0.55208   0.00000  Uiso   1.00
H267   H     0.28474   0.03480   0.57159   0.00000  Uiso   1.00
H268   H     0.19374   0.46445   0.44787   0.00000  Uiso   1.00
N269   N     0.25000   0.12623   0.50000   0.00000  Uiso   1.00
N270   N     0.25000   0.37377   0.50000   0.00000  Uiso   1.00
O271   O     0.18453   0.28974   0.50000   0.00000  Uiso   1.00
O272   O     0.31547   0.21026   0.50000   0.00000  Uiso   1.00
O273   O     0.31547   0.28974   0.50000   0.00000  Uiso   1.00
O274   O     0.18453   0.21026   0.50000   0.00000  Uiso   1.00
O275   O     0.25000   0.28973   0.42845   0.00000  Uiso   1.00
O276   O     0.25000   0.21027   0.57155   0.00000  Uiso   1.00
O277   O     0.25000   0.28973   0.57155   0.00000  Uiso   1.00
O278   O     0.25000   0.21027   0.42845   0.00000  Uiso   1.00
Zn279  Zn    0.25000   0.30307   0.50000   0.00000  Uiso   1.00
Zn280  Zn    0.25000   0.19693   0.50000   0.00000  Uiso   1.00
C281   C     0.66410   0.25013   0.49991   0.00000  Uiso   1.00
C282   C     0.71912   0.44716   0.47056   0.00000  Uiso   1.00
C283   C     0.74991   0.25000   0.40631   0.00000  Uiso   1.00
C284   C     0.75009   0.25000   0.59369   0.00000  Uiso   1.00
C285   C     0.75000   0.02626   0.49998   0.00000  Uiso   1.00
C286   C     0.75001   0.47308   0.49998   0.00000  Uiso   1.00
C287   C     0.74997   0.25000   0.35516   0.00000  Uiso   1.00
C288   C     0.75003   0.25000   0.64484   0.00000  Uiso   1.00
C289   C     0.54832   0.27909   0.53638   0.00000  Uiso   1.00
C290   C     0.95455   0.22806   0.53705   0.00000  Uiso   1.00
C291   C     0.95160   0.27937   0.46346   0.00000  Uiso   1.00
C292   C     0.83591   0.25012   0.50005   0.00000  Uiso   1.00
C293   C     0.54559   0.22858   0.46214   0.00000  Uiso   1.00
C294   C     0.59463   0.27634   0.53762   0.00000  Uiso   1.00
C295   C     0.90827   0.22806   0.53804   0.00000  Uiso   1.00
C296   C     0.90528   0.27663   0.46234   0.00000  Uiso   1.00
C297   C     0.59188   0.22857   0.46134   0.00000  Uiso   1.00
C298   C     0.61618   0.25102   0.50002   0.00000  Uiso   1.00
C299   C     0.88384   0.25096   0.49975   0.00000  Uiso   1.00
C300   C     0.52411   0.25426   0.49935   0.00000  Uiso   1.00
C301   C     0.97592   0.25417   0.50012   0.00000  Uiso   1.00
C302   C     0.72970   0.10142   0.46157   0.00000  Uiso   1.00
C303   C     0.77993   0.39798   0.52966   0.00000  Uiso   1.00
C304   C     0.77027   0.10137   0.53844   0.00000  Uiso   1.00
C305   C     0.72008   0.39800   0.47033   0.00000  Uiso   1.00
C306   C     0.73023   0.05222   0.46060   0.00000  Uiso   1.00
C307   C     0.78089   0.44714   0.52940   0.00000  Uiso   1.00
C308   C     0.76976   0.05219   0.53937   0.00000  Uiso   1.00
Cl309  Cl    0.70147   0.12889   0.41158   0.00000  Uiso   1.00
Cl310  Cl    0.88149   0.20259   0.58956   0.00000  Uiso   1.00
Cl311  Cl    0.87446   0.30447   0.41327   0.00000  Uiso   1.00
Cl312  Cl    0.61885   0.20364   0.40965   0.00000  Uiso   1.00
Cl313  Cl    0.81804   0.36864   0.56949   0.00000  Uiso   1.00
Cl314  Cl    0.79833   0.12879   0.58857   0.00000  Uiso   1.00
Cl315  Cl    0.68195   0.36869   0.43052   0.00000  Uiso   1.00
Cl316  Cl    0.52060   0.31346   0.58124   0.00000  Uiso   1.00
Cl317  Cl    0.98571   0.19520   0.58205   0.00000  Uiso   1.00
Cl318  Cl    0.97918   0.31425   0.41895   0.00000  Uiso   1.00
Cl319  Cl    0.51457   0.19624   0.41662   0.00000  Uiso   1.00
Cl320  Cl    0.62534   0.30371   0.58705   0.00000  Uiso   1.00
H321   H     0.71522   0.03487   0.42840   0.00000  Uiso   1.00
H322   H     0.80628   0.46440   0.55208   0.00000  Uiso   1.00
H323   H     0.78474   0.03480   0.57159   0.00000  Uiso   1.00
H324   H     0.69374   0.46445   0.44787   0.00000  Uiso   1.00
N325   N     0.75000   0.12623   0.50000   0.00000  Uiso   1.00
N326   N     0.75000   0.37377   0.50000   0.00000  Uiso   1.00
O327   O     0.68453   0.28974   0.50000   0.00000  Uiso   1.00
O328   O     0.81547   0.21026   0.50000   0.00000  Uiso   1.00
O329   O     0.81547   0.28974   0.50000   0.00000  Uiso   1.00
O330   O     0.68453   0.21026   0.50000   0.00000  Uiso   1.00
O331   O     0.75000   0.28973   0.42845   0.00000  Uiso   1.00
O332   O     0.75000   0.21027   0.57155   0.00000  Uiso   1.00
O333   O     0.75000   0.28973   0.57155   0.00000  Uiso   1.00
O334   O     0.75000   0.21027   0.42845   0.00000  Uiso   1.00
Zn335  Zn    0.75000   0.30307   0.50000   0.00000  Uiso   1.00
Zn336  Zn    0.75000   0.19693   0.50000   0.00000  Uiso   1.00
C337   C     0.16410   0.75013   0.49991   0.00000  Uiso   1.00
C338   C     0.21912   0.94716   0.47056   0.00000  Uiso   1.00
C339   C     0.24991   0.75000   0.40631   0.00000  Uiso   1.00
C340   C     0.25009   0.75000   0.59369   0.00000  Uiso   1.00
C341   C     0.25000   0.52626   0.49998   0.00000  Uiso   1.00
C342   C     0.25001   0.97308   0.49998   0.00000  Uiso   1.00
C343   C     0.24997   0.75000   0.35516   0.00000  Uiso   1.00
C344   C     0.25003   0.75000   0.64484   0.00000  Uiso   1.00
C345   C     0.04832   0.77909   0.53638   0.00000  Uiso   1.00
C346   C     0.45455   0.72806   0.53705   0.00000  Uiso   1.00
C347   C     0.45160   0.77937   0.46346   0.00000  Uiso   1.00
C348   C     0.33591   0.75012   0.50005   0.00000  Uiso   1.00
C349   C     0.04559   0.72858   0.46214   0.00000  Uiso   1.00
C350   C     0.09463   0.77634   0.53762   0.00000  Uiso   1.00
C351   C     0.40827   0.72806   0.53804   0.00000  Uiso   1.00
C352   C     0.40528   0.77663   0.46234   0.00000  Uiso   1.00
C353   C     0.09188   0.72857   0.46134   0.00000  Uiso   1.00
C354   C     0.11618   0.75102   0.50002   0.00000  Uiso   1.00
C355   C     0.38384   0.75096   0.49975   0.00000  Uiso   1.00
C356   C     0.02411   0.75426   0.49935   0.00000  Uiso   1.00
C357   C     0.47592   0.75417   0.50012   0.00000  Uiso   1.00
C358   C     0.22970   0.60142   0.46157   0.00000  Uiso   1.00
C359   C     0.27993   0.89798   0.52966   0.00000  Uiso   1.00
C360   C     0.27027   0.60137   0.53844   0.00000  Uiso   1.00
C361   C     0.22008   0.89800   0.47033   0.00000  Uiso   1.00
C362   C     0.23023   0.55222   0.46060   0.00000  Uiso   1.00
C363   C     0.28089   0.94714   0.52940   0.00000  Uiso   1.00
C364   C     0.26976   0.55219   0.53937   0.00000  Uiso   1.00
Cl365  Cl    0.20147   0.62889   0.41158   0.00000  Uiso   1.00
Cl366  Cl    0.38149   0.70259   0.58956   0.00000  Uiso   1.00
Cl367  Cl    0.37446   0.80447   0.41327   0.00000  Uiso   1.00
Cl368  Cl    0.11885   0.70364   0.40965   0.00000  Uiso   1.00
Cl369  Cl    0.31804   0.86864   0.56949   0.00000  Uiso   1.00
Cl370  Cl    0.29833   0.62879   0.58857   0.00000  Uiso   1.00
Cl371  Cl    0.18195   0.86869   0.43052   0.00000  Uiso   1.00
Cl372  Cl    0.02060   0.81346   0.58124   0.00000  Uiso   1.00
Cl373  Cl    0.48571   0.69520   0.58205   0.00000  Uiso   1.00
Cl374  Cl    0.47918   0.81425   0.41895   0.00000  Uiso   1.00
Cl375  Cl    0.01457   0.69624   0.41662   0.00000  Uiso   1.00
Cl376  Cl    0.12534   0.80371   0.58705   0.00000  Uiso   1.00
H377   H     0.21522   0.53487   0.42840   0.00000  Uiso   1.00
H378   H     0.30628   0.96440   0.55208   0.00000  Uiso   1.00
H379   H     0.28474   0.53480   0.57159   0.00000  Uiso   1.00
H380   H     0.19374   0.96445   0.44787   0.00000  Uiso   1.00
N381   N     0.25000   0.62623   0.50000   0.00000  Uiso   1.00
N382   N     0.25000   0.87377   0.50000   0.00000  Uiso   1.00
O383   O     0.18453   0.78974   0.50000   0.00000  Uiso   1.00
O384   O     0.31547   0.71026   0.50000   0.00000  Uiso   1.00
O385   O     0.31547   0.78974   0.50000   0.00000  Uiso   1.00
O386   O     0.18453   0.71026   0.50000   0.00000  Uiso   1.00
O387   O     0.25000   0.78973   0.42845   0.00000  Uiso   1.00
O388   O     0.25000   0.71027   0.57155   0.00000  Uiso   1.00
O389   O     0.25000   0.78973   0.57155   0.00000  Uiso   1.00
O390   O     0.25000   0.71027   0.42845   0.00000  Uiso   1.00
Zn391  Zn    0.25000   0.80307   0.50000   0.00000  Uiso   1.00
Zn392  Zn    0.25000   0.69693   0.50000   0.00000  Uiso   1.00
C393   C     0.66410   0.75013   0.49991   0.00000  Uiso   1.00
C394   C     0.71912   0.94716   0.47056   0.00000  Uiso   1.00
C395   C     0.74991   0.75000   0.40631   0.00000  Uiso   1.00
C396   C     0.75009   0.75000   0.59369   0.00000  Uiso   1.00
C397   C     0.75000   0.52626   0.49998   0.00000  Uiso   1.00
C398   C     0.75001   0.97308   0.49998   0.00000  Uiso   1.00
C399   C     0.74997   0.75000   0.35516   0.00000  Uiso   1.00
C400   C     0.75003   0.75000   0.64484   0.00000  Uiso   1.00
C401   C     0.54832   0.77909   0.53638   0.00000  Uiso   1.00
C402   C     0.95455   0.72806   0.53705   0.00000  Uiso   1.00
C403   C     0.95160   0.77937   0.46346   0.00000  Uiso   1.00
C404   C     0.83591   0.75012   0.50005   0.00000  Uiso   1.00
C405   C     0.54559   0.72858   0.46214   0.00000  Uiso   1.00
C406   C     0.59463   0.77634   0.53762   0.00000  Uiso   1.00
C407   C     0.90827   0.72806   0.53804   0.00000  Uiso   1.00
C408   C     0.90528   0.77663   0.46234   0.00000  Uiso   1.00
C409   C     0.59188   0.72857   0.46134   0.00000  Uiso   1.00
C410   C     0.61618   0.75102   0.50002   0.00000  Uiso   1.00
C411   C     0.88384   0.75096   0.49975   0.00000  Uiso   1.00
C412   C     0.52411   0.75426   0.49935   0.00000  Uiso   1.00
C413   C     0.97592   0.75417   0.50012   0.00000  Uiso   1.00
C414   C     0.72970   0.60142   0.46157   0.00000  Uiso   1.00
C415   C     0.77993   0.89798   0.52966   0.00000  Uiso   1.00
C416   C     0.77027   0.60137   0.53844   0.00000  Uiso   1.00
C417   C     0.72008   0.89800   0.47033   0.00000  Uiso   1.00
C418   C     0.73023   0.55222   0.46060   0.00000  Uiso   1.00
C419   C     0.78089   0.94714   0.52940   0.00000  Uiso   1.00
C420   C     0.76976   0.55219   0.53937   0.00000  Uiso   1.00
Cl421  Cl    0.70147   0.62889   0.41158   0.00000  Uiso   1.00
Cl422  Cl    0.88149   0.70259   0.58956   0.00000  Uiso   1.00
Cl423  Cl    0.87446   0.80447   0.41327   0.00000  Uiso   1.00
Cl424  Cl    0.61885   0.70364   0.40965   0.00000  Uiso   1.00
Cl425  Cl    0.81804   0.86864   0.56949   0.00000  Uiso   1.00
Cl426  Cl    0.79833   0.62879   0.58857   0.00000  Uiso   1.00
Cl427  Cl    0.68195   0.86869   0.43052   0.00000  Uiso   1.00
Cl428  Cl    0.52060   0.81346   0.58124   0.00000  Uiso   1.00
Cl429  Cl    0.98571   0.69520   0.58205   0.00000  Uiso   1.00
Cl430  Cl    0.97918   0.81425   0.41895   0.00000  Uiso   1.00
Cl431  Cl    0.51457   0.69624   0.41662   0.00000  Uiso   1.00
Cl432  Cl    0.62534   0.80371   0.58705   0.00000  Uiso   1.00
H433   H     0.71522   0.53487   0.42840   0.00000  Uiso   1.00
H434   H     0.80628   0.96440   0.55208   0.00000  Uiso   1.00
H435   H     0.78474   0.53480   0.57159   0.00000  Uiso   1.00
H436   H     0.69374   0.96445   0.44787   0.00000  Uiso   1.00
N437   N     0.75000   0.62623   0.50000   0.00000  Uiso   1.00
N438   N     0.75000   0.87377   0.50000   0.00000  Uiso   1.00
O439   O     0.68453   0.78974   0.50000   0.00000  Uiso   1.00
O440   O     0.81547   0.71026   0.50000   0.00000  Uiso   1.00
O441   O     0.81547   0.78974   0.50000   0.00000  Uiso   1.00
O442   O     0.68453   0.71026   0.50000   0.00000  Uiso   1.00
O443   O     0.75000   0.78973   0.42845   0.00000  Uiso   1.00
O444   O     0.75000   0.71027   0.57155   0.00000  Uiso   1.00
O445   O     0.75000   0.78973   0.57155   0.00000  Uiso   1.00
O446   O     0.75000   0.71027   0.42845   0.00000  Uiso   1.00
Zn447  Zn    0.75000   0.80307   0.50000   0.00000  Uiso   1.00
Zn448  Zn    0.75000   0.69693   0.50000   0.00000  Uiso   1.00
C449   C     0.16410   0.25013   0.83324   0.00000  Uiso   1.00
C450   C     0.21912   0.44716   0.80390   0.00000  Uiso   1.00
C451   C     0.24991   0.25000   0.73964   0.00000  Uiso   1.00
C452   C     0.25009   0.25000   0.92703   0.00000  Uiso   1.00
C453   C     0.25000   0.02626   0.83331   0.00000  Uiso   1.00
C454   C     0.25001   0.47308   0.83331   0.00000  Uiso   1.00
C455   C     0.24997   0.25000   0.68850   0.00000  Uiso   1.00
C456   C     0.25003   0.25000   0.97817   0.00000  Uiso   1.00
C457   C     0.04832   0.27909   0.86971   0.00000  Uiso   1.00
C458   C     0.45455   0.22806   0.87039   0.00000  Uiso   1.00
C459   C     0.45160   0.27937   0.79680   0.00000  Uiso   1.00
C460   C     0.33591   0.25012   0.83338   0.00000  Uiso   1.00
C461   C     0.04559   0.22858   0.79548   0.00000  Uiso   1.00
C462   C     0.09463   0.27634   0.87095   0.00000  Uiso   1.00
C463   C     0.40827   0.22806   0.87138   0.00000  Uiso   1.00
C464   C     0.40528   0.27663   0.79567   0.00000  Uiso   1.00
C465   C     0.09188   0.22857   0.79467   0.00000  Uiso   1.00
C466   C     0.11618   0.25102   0.83336   0.00000  Uiso   1.00
C467   C     0.38384   0.25096   0.83308   0.00000  Uiso   1.00
C468   C     0.02411   0.25426   0.83268   0.00000  Uiso   1.00
C469   C     0.47592   0.25417   0.83345   0.00000  Uiso   1.00
C470   C     0.22970   0.10142   0.79490   0.00000  Uiso   1.00
C471   C     0.27993   0.39798   0.86299   0.00000  Uiso   1.00
C472   C     0.27027   0.10137   0.87177   0.00000  Uiso   1.00
C473   C     0.22008   0.39800   0.80366   0.00000  Uiso   1.00
C474   C     0.23023   0.05222   0.79393   0.00000  Uiso   1.00
C475   C     0.28089   0.44714   0.86273   0.00000  Uiso   1.00
C476   C     0.26976   0.05219   0.87271   0.00000  Uiso   1.00
Cl477  Cl    0.20147   0.12889   0.74491   0.00000  Uiso   1.00
Cl478  Cl    0.38149   0.20259   0.92289   0.00000  Uiso   1.00
Cl479  Cl    0.37446   0.30447   0.74661   0.00000  Uiso   1.00
Cl480  Cl    0.11885   0.20364   0.74298   0.00000  Uiso   1.00
Cl481  Cl    0.31804   0.36864   0.90282   0.00000  Uiso   1.00
Cl482  Cl    0.29833   0.12879   0.92190   0.00000  Uiso   1.00
Cl483  Cl    0.18195   0.36869   0.76385   0.00000  Uiso   1.00
Cl484  Cl    0.02060   0.31346   0.91458   0.00000  Uiso   1.00
Cl485  Cl    0.48571   0.19520   0.91538   0.00000  Uiso   1.00
Cl486  Cl    0.47918   0.31425   0.75228   0.00000  Uiso   1.00
Cl487  Cl    0.01457   0.19624   0.74995   0.00000  Uiso   1.00
Cl488  Cl    0.12534   0.30371   0.92039   0.00000  Uiso   1.00
H489   H     0.21522   0.03487   0.76173   0.00000  Uiso   1.00
H490   H     0.30628   0.46440   0.88542   0.00000  Uiso   1.00
H491   H     0.28474   0.03480   0.90492   0.00000  Uiso   1.00
H492   H     0.19374   0.46445   0.78120   0.00000  Uiso   1.00
N493   N     0.25000   0.12623   0.83333   0.00000  Uiso   1.00
N494   N     0.25000   0.37377   0.83333   0.00000  Uiso   1.00
O495   O     0.18453   0.28974   0.83334   0.00000  Uiso   1.00
O496   O     0.31547   0.21026   0.83333   0.00000  Uiso   1.00
O497   O     0.31547   0.28974   0.83333   0.00000  Uiso   1.00
O498   O     0.18453   0.21026   0.83334   0.00000  Uiso   1.00
O499   O     0.25000   0.28973   0.76178   0.00000  Uiso   1.00
O500   O     0.25000   0.21027   0.90489   0.00000  Uiso   1.00
O501   O     0.25000   0.28973   0.90489   0.00000  Uiso   1.00
O502   O     0.25000   0.21027   0.76178   0.00000  Uiso   1.00
Zn503  Zn    0.25000   0.30307   0.83333   0.00000  Uiso   1.00
Zn504  Zn    0.25000   0.19693   0.83333   0.00000  Uiso   1.00
C505   C     0.66410   0.25013   0.83324   0.00000  Uiso   1.00
C506   C     0.71912   0.44716   0.80390   0.00000  Uiso   1.00
C507   C     0.74991   0.25000   0.73964   0.00000  Uiso   1.00
C508   C     0.75009   0.25000   0.92703   0.00000  Uiso   1.00
C509   C     0.75000   0.02626   0.83331   0.00000  Uiso   1.00
C510   C     0.75001   0.47308   0.83331   0.00000  Uiso   1.00
C511   C     0.74997   0.25000   0.68850   0.00000  Uiso   1.00
C512   C     0.75003   0.25000   0.97817   0.00000  Uiso   1.00
C513   C     0.54832   0.27909   0.86971   0.00000  Uiso   1.00
C514   C     0.95455   0.22806   0.87039   0.00000  Uiso   1.00
C515   C     0.95160   0.27937   0.79680   0.00000  Uiso   1.00
C516   C     0.83591   0.25012   0.83338   0.00000  Uiso   1.00
C517   C     0.54559   0.22858   0.79548   0.00000  Uiso   1.00
C518   C     0.59463   0.27634   0.87095   0.00000  Uiso   1.00
C519   C     0.90827   0.22806   0.87138   0.00000  Uiso   1.00
C520   C     0.90528   0.27663   0.79567   0.00000  Uiso   1.00
C521   C     0.59188   0.22857   0.79467   0.00000  Uiso   1.00
C522   C     0.61618   0.25102   0.83336   0.00000  Uiso   1.00
C523   C     0.88384   0.25096   0.83308   0.00000  Uiso   1.00
C524   C     0.52411   0.25426   0.83268   0.00000  Uiso   1.00
C525   C     0.97592   0.25417   0.83345   0.00000  Uiso   1.00
C526   C     0.72970   0.10142   0.79490   0.00000  Uiso   1.00
C527   C     0.77993   0.39798   0.86299   0.00000  Uiso   1.00
C528   C     0.77027   0.10137   0.87177   0.00000  Uiso   1.00
C529   C     0.72008   0.39800   0.80366   0.00000  Uiso   1.00
C530   C     0.73023   0.05222   0.79393   0.00000  Uiso   1.00
C531   C     0.78089   0.44714   0.86273   0.00000  Uiso   1.00
C532   C     0.76976   0.05219   0.87271   0.00000  Uiso   1.00
Cl533  Cl    0.70147   0.12889   0.74491   0.00000  Uiso   1.00
Cl534  Cl    0.88149   0.20259   0.92289   0.00000  Uiso   1.00
Cl535  Cl    0.87446   0.30447   0.74661   0.00000  Uiso   1.00
Cl536  Cl    0.61885   0.20364   0.74298   0.00000  Uiso   1.00
Cl537  Cl    0.81804   0.36864   0.90282   0.00000  Uiso   1.00
Cl538  Cl    0.79833   0.12879   0.92190   0.00000  Uiso   1.00
Cl539  Cl    0.68195   0.36869   0.76385   0.00000  Uiso   1.00
Cl540  Cl    0.52060   0.31346   0.91458   0.00000  Uiso   1.00
Cl541  Cl    0.98571   0.19520   0.91538   0.00000  Uiso   1.00
Cl542  Cl    0.97918   0.31425   0.75228   0.00000  Uiso   1.00
Cl543  Cl    0.51457   0.19624   0.74995   0.00000  Uiso   1.00
Cl544  Cl    0.62534   0.30371   0.92039   0.00000  Uiso   1.00
H545   H     0.71522   0.03487   0.76173   0.00000  Uiso   1.00
H546   H     0.80628   0.46440   0.88542   0.00000  Uiso   1.00
H547   H     0.78474   0.03480   0.90492   0.00000  Uiso   1.00
H548   H     0.69374   0.46445   0.78120   0.00000  Uiso   1.00
N549   N     0.75000   0.12623   0.83333   0.00000  Uiso   1.00
N550   N     0.75000   0.37377   0.83333   0.00000  Uiso   1.00
O551   O     0.68453   0.28974   0.83334   0.00000  Uiso   1.00
O552   O     0.81547   0.21026   0.83333   0.00000  Uiso   1.00
O553   O     0.81547   0.28974   0.83333   0.00000  Uiso   1.00
O554   O     0.68453   0.21026   0.83334   0.00000  Uiso   1.00
O555   O     0.75000   0.28973   0.76178   0.00000  Uiso   1.00
O556   O     0.75000   0.21027   0.90489   0.00000  Uiso   1.00
O557   O     0.75000   0.28973   0.90489   0.00000  Uiso   1.00
O558   O     0.75000   0.21027   0.76178   0.00000  Uiso   1.00
Zn559  Zn    0.75000   0.30307   0.83333   0.00000  Uiso   1.00
Zn560  Zn    0.75000   0.19693   0.83333   0.00000  Uiso   1.00
C561   C     0.16410   0.75013   0.83324   0.00000  Uiso   1.00
C562   C     0.21912   0.94716   0.80390   0.00000  Uiso   1.00
C563   C     0.24991   0.75000   0.73964   0.00000  Uiso   1.00
C564   C     0.25009   0.75000   0.92703   0.00000  Uiso   1.00
C565   C     0.25000   0.52626   0.83331   0.00000  Uiso   1.00
C566   C     0.25001   0.97308   0.83331   0.00000  Uiso   1.00
C567   C     0.24997   0.75000   0.68850   0.00000  Uiso   1.00
C568   C     0.25003   0.75000   0.97817   0.00000  Uiso   1.00
C569   C     0.04832   0.77909   0.86971   0.00000  Uiso   1.00
C570   C     0.45455   0.72806   0.87039   0.00000  Uiso   1.00
C571   C     0.45160   0.77937   0.79680   0.00000  Uiso   1.00
C572   C     0.33591   0.75012   0.83338   0.00000  Uiso   1.00
C573   C     0.04559   0.72858   0.79548   0.00000  Uiso   1.00
C574   C     0.09463   0.77634   0.87095   0.00000  Uiso   1.00
C575   C     0.40827   0.72806   0.87138   0.00000  Uiso   1.00
C576   C     0.40528   0.77663   0.79567   0.00000  Uiso   1.00
C577   C     0.09188   0.72857   0.79467   0.00000  Uiso   1.00
C578   C     0.11618   0.75102   0.83336   0.00000  Uiso   1.00
C579   C     0.38384   0.75096   0.83308   0.00000  Uiso   1.00
C580   C     0.02411   0.75426   0.83268   0.00000  Uiso   1.00
C581   C     0.47592   0.75417   0.83345   0.00000  Uiso   1.00
C582   C     0.22970   0.60142   0.79490   0.00000  Uiso   1.00
C583   C     0.27993   0.89798   0.86299   0.00000  Uiso   1.00
C584   C     0.27027   0.60137   0.87177   0.00000  Uiso   1.00
C585   C     0.22008   0.89800   0.80366   0.00000  Uiso   1.00
C586   C     0.23023   0.55222   0.79393   0.00000  Uiso   1.00
C587   C     0.28089   0.94714   0.86273   0.00000  Uiso   1.00
C588   C     0.26976   0.55219   0.87271   0.00000  Uiso   1.00
Cl589  Cl    0.20147   0.62889   0.74491   0.00000  Uiso   1.00
Cl590  Cl    0.38149   0.70259   0.92289   0.00000  Uiso   1.00
Cl591  Cl    0.37446   0.80447   0.74661   0.00000  Uiso   1.00
Cl592  Cl    0.11885   0.70364   0.74298   0.00000  Uiso   1.00
Cl593  Cl    0.31804   0.86864   0.90282   0.00000  Uiso   1.00
Cl594  Cl    0.29833   0.62879   0.92190   0.00000  Uiso   1.00
Cl595  Cl    0.18195   0.86869   0.76385   0.00000  Uiso   1.00
Cl596  Cl    0.02060   0.81346   0.91458   0.00000  Uiso   1.00
Cl597  Cl    0.48571   0.69520   0.91538   0.00000  Uiso   1.00
Cl598  Cl    0.47918   0.81425   0.75228   0.00000  Uiso   1.00
Cl599  Cl    0.01457   0.69624   0.74995   0.00000  Uiso   1.00
Cl600  Cl    0.12534   0.80371   0.92039   0.00000  Uiso   1.00
H601   H     0.21522   0.53487   0.76173   0.00000  Uiso   1.00
H602   H     0.30628   0.96440   0.88542   0.00000  Uiso   1.00
H603   H     0.28474   0.53480   0.90492   0.00000  Uiso   1.00
H604   H     0.19374   0.96445   0.78120   0.00000  Uiso   1.00
N605   N     0.25000   0.62623   0.83333   0.00000  Uiso   1.00
N606   N     0.25000   0.87377   0.83333   0.00000  Uiso   1.00
O607   O     0.18453   0.78974   0.83334   0.00000  Uiso   1.00
O608   O     0.31547   0.71026   0.83333   0.00000  Uiso   1.00
O609   O     0.31547   0.78974   0.83333   0.00000  Uiso   1.00
O610   O     0.18453   0.71026   0.83334   0.00000  Uiso   1.00
O611   O     0.25000   0.78973   0.76178   0.00000  Uiso   1.00
O612   O     0.25000   0.71027   0.90489   0.00000  Uiso   1.00
O613   O     0.25000   0.78973   0.90489   0.00000  Uiso   1.00
O614   O     0.25000   0.71027   0.76178   0.00000  Uiso   1.00
Zn615  Zn    0.25000   0.80307   0.83333   0.00000  Uiso   1.00
Zn616  Zn    0.25000   0.69693   0.83333   0.00000  Uiso   1.00
C617   C     0.66410   0.75013   0.83324   0.00000  Uiso   1.00
C618   C     0.71912   0.94716   0.80390   0.00000  Uiso   1.00
C619   C     0.74991   0.75000   0.73964   0.00000  Uiso   1.00
C620   C     0.75009   0.75000   0.92703   0.00000  Uiso   1.00
C621   C     0.75000   0.52626   0.83331   0.00000  Uiso   1.00
C622   C     0.75001   0.97308   0.83331   0.00000  Uiso   1.00
C623   C     0.74997   0.75000   0.68850   0.00000  Uiso   1.00
C624   C     0.75003   0.75000   0.97817   0.00000  Uiso   1.00
C625   C     0.54832   0.77909   0.86971   0.00000  Uiso   1.00
C626   C     0.95455   0.72806   0.87039   0.00000  Uiso   1.00
C627   C     0.95160   0.77937   0.79680   0.00000  Uiso   1.00
C628   C     0.83591   0.75012   0.83338   0.00000  Uiso   1.00
C629   C     0.54559   0.72858   0.79548   0.00000  Uiso   1.00
C630   C     0.59463   0.77634   0.87095   0.00000  Uiso   1.00
C631   C     0.90827   0.72806   0.87138   0.00000  Uiso   1.00
C632   C     0.90528   0.77663   0.79567   0.00000  Uiso   1.00
C633   C     0.59188   0.72857   0.79467   0.00000  Uiso   1.00
C634   C     0.61618   0.75102   0.83336   0.00000  Uiso   1.00
C635   C     0.88384   0.75096   0.83308   0.00000  Uiso   1.00
C636   C     0.52411   0.75426   0.83268   0.00000  Uiso   1.00
C637   C     0.97592   0.75417   0.83345   0.00000  Uiso   1.00
C638   C     0.72970   0.60142   0.79490   0.00000  Uiso   1.00
C639   C     0.77993   0.89798   0.86299   0.00000  Uiso   1.00
C640   C     0.77027   0.60137   0.87177   0.00000  Uiso   1.00
C641   C     0.72008   0.89800   0.80366   0.00000  Uiso   1.00
C642   C     0.73023   0.55222   0.79393   0.00000  Uiso   1.00
C643   C     0.78089   0.94714   0.86273   0.00000  Uiso   1.00
C644   C     0.76976   0.55219   0.87271   0.00000  Uiso   1.00
Cl645  Cl    0.70147   0.62889   0.74491   0.00000  Uiso   1.00
Cl646  Cl    0.88149   0.70259   0.92289   0.00000  Uiso   1.00
Cl647  Cl    0.87446   0.80447   0.74661   0.00000  Uiso   1.00
Cl648  Cl    0.61885   0.70364   0.74298   0.00000  Uiso   1.00
Cl649  Cl    0.81804   0.86864   0.90282   0.00000  Uiso   1.00
Cl650  Cl    0.79833   0.62879   0.92190   0.00000  Uiso   1.00
Cl651  Cl    0.68195   0.86869   0.76385   0.00000  Uiso   1.00
Cl652  Cl    0.52060   0.81346   0.91458   0.00000  Uiso   1.00
Cl653  Cl    0.98571   0.69520   0.91538   0.00000  Uiso   1.00
Cl654  Cl    0.97918   0.81425   0.75228   0.00000  Uiso   1.00
Cl655  Cl    0.51457   0.69624   0.74995   0.00000  Uiso   1.00
Cl656  Cl    0.62534   0.80371   0.92039   0.00000  Uiso   1.00
H657   H     0.71522   0.53487   0.76173   0.00000  Uiso   1.00
H658   H     0.80628   0.96440   0.88542   0.00000  Uiso   1.00
H659   H     0.78474   0.53480   0.90492   0.00000  Uiso   1.00
H660   H     0.69374   0.96445   0.78120   0.00000  Uiso   1.00
N661   N     0.75000   0.62623   0.83333   0.00000  Uiso   1.00
N662   N     0.75000   0.87377   0.83333   0.00000  Uiso   1.00
O663   O     0.68453   0.78974   0.83334   0.00000  Uiso   1.00
O664   O     0.81547   0.71026   0.83333   0.00000  Uiso   1.00
O665   O     0.81547   0.78974   0.83333   0.00000  Uiso   1.00
O666   O     0.68453   0.71026   0.83334   0.00000  Uiso   1.00
O667   O     0.75000   0.78973   0.76178   0.00000  Uiso   1.00
O668   O     0.75000   0.71027   0.90489   0.00000  Uiso   1.00
O669   O     0.75000   0.78973   0.90489   0.00000  Uiso   1.00
O670   O     0.75000   0.71027   0.76178   0.00000  Uiso   1.00
Zn671  Zn    0.75000   0.80307   0.83333   0.00000  Uiso   1.00
Zn672  Zn    0.75000   0.69693   0.83333   0.00000  Uiso   1.00
loop_
_geom_bond_atom_site_label_1
_geom_bond_atom_site_label_2
_geom_bond_distance
_geom_bond_site_symmetry_2
_ccdc_geom_bond_type
C1     O50     1.295   .     A
C1     C18     1.437   .     S
C1     O47     1.289   .     A
C2     C6      1.410   .     A
C2     C25     1.408   .     A
C2     H44     1.080   .     S
C3     C7      1.363   .     S
C3     O54     1.281   .     A
C3     O51     1.281   .     A
C4     O53     1.281   .     A
C4     C8      1.363   .     S
C4     O52     1.282   .     A
C5     C28     1.405   .     A
C5     C26     1.405   .     A
C5     C118    1.523   1_545 S
C6     C27     1.410   .     A
C6     C117    1.523   .     S
C7     C456    1.164   1_554 S
C8     C231    1.164   .     S
C9     Cl36    1.771   .     S
C9     C14     1.390   .     A
C9     C20     1.404   .     A
C10    Cl37    1.772   .     S
C10    C15     1.388   .     A
C10    C21     1.403   .     A
C11    Cl38    1.771   .     S
C11    C16     1.390   .     A
C11    C21     1.404   .     A
C12    C19     1.437   .     S
C12    O48     1.295   .     A
C12    O49     1.289   .     A
C13    C17     1.388   .     A
C13    Cl39    1.772   .     S
C13    C20     1.403   .     A
C14    C18     1.406   .     A
C14    Cl40    1.772   .     S
C15    C19     1.404   .     A
C15    Cl30    1.765   .     S
C16    Cl31    1.772   .     S
C16    C19     1.407   .     A
C17    C18     1.404   .     A
C17    Cl32    1.765   .     S
C20    C77     1.445   1_455 S
C21    C76     1.445   .     S
C22    Cl29    1.748   .     S
C22    N45     1.376   .     A
C22    C26     1.409   .     A
C23    C27     1.408   .     A
C23    N46     1.370   .     A
C23    Cl33    1.754   .     S
C24    N45     1.376   .     A
C24    C28     1.409   .     A
C24    Cl34    1.748   .     S
C25    Cl35    1.754   .     S
C25    N46     1.370   .     A
C26    H41     1.080   .     S
C27    H42     1.080   .     S
C28    H43     1.080   .     S
N45    Zn56    2.024   .     S
N46    Zn55    2.024   .     S
O47    Zn55    1.999   .     S
O48    Zn56    1.999   .     S
O49    Zn55    1.999   .     S
O50    Zn56    1.999   .     S
O51    Zn55    1.945   .     S
O52    Zn56    1.945   .     S
O53    Zn55    1.945   .     S
O54    Zn56    1.945   .     S
C57    O106    1.295   .     A
C57    C74     1.437   .     S
C57    O103    1.289   .     A
C58    C62     1.410   .     A
C58    C81     1.408   .     A
C58    H100    1.080   .     S
C59    C63     1.363   .     S
C59    O110    1.281   .     A
C59    O107    1.281   .     A
C60    O109    1.281   .     A
C60    C64     1.363   .     S
C60    O108    1.282   .     A
C61    C84     1.405   .     A
C61    C82     1.405   .     A
C61    C174    1.523   1_545 S
C62    C83     1.410   .     A
C62    C173    1.523   .     S
C63    C512    1.164   1_554 S
C64    C287    1.164   .     S
C65    Cl92    1.771   .     S
C65    C70     1.390   .     A
C65    C76     1.404   .     A
C66    Cl93    1.772   .     S
C66    C71     1.388   .     A
C66    C77     1.403   .     A
C67    Cl94    1.771   .     S
C67    C72     1.390   .     A
C67    C77     1.404   .     A
C68    C75     1.437   .     S
C68    O104    1.295   .     A
C68    O105    1.289   .     A
C69    C73     1.388   .     A
C69    Cl95    1.772   .     S
C69    C76     1.403   .     A
C70    C74     1.406   .     A
C70    Cl96    1.772   .     S
C71    C75     1.404   .     A
C71    Cl86    1.765   .     S
C72    Cl87    1.772   .     S
C72    C75     1.407   .     A
C73    C74     1.404   .     A
C73    Cl88    1.765   .     S
C77    C20     1.445   1_655 S
C78    Cl85    1.748   .     S
C78    N101    1.376   .     A
C78    C82     1.409   .     A
C79    C83     1.408   .     A
C79    N102    1.370   .     A
C79    Cl89    1.754   .     S
C80    N101    1.376   .     A
C80    C84     1.409   .     A
C80    Cl90    1.748   .     S
C81    Cl91    1.754   .     S
C81    N102    1.370   .     A
C82    H97     1.080   .     S
C83    H98     1.080   .     S
C84    H99     1.080   .     S
N101   Zn112   2.024   .     S
N102   Zn111   2.024   .     S
O103   Zn111   1.999   .     S
O104   Zn112   1.999   .     S
O105   Zn111   1.999   .     S
O106   Zn112   1.999   .     S
O107   Zn111   1.945   .     S
O108   Zn112   1.945   .     S
O109   Zn111   1.945   .     S
O110   Zn112   1.945   .     S
C113   O162    1.295   .     A
C113   C130    1.437   .     S
C113   O159    1.289   .     A
C114   C118    1.410   .     A
C114   C137    1.408   .     A
C114   H156    1.080   .     S
C115   C119    1.363   .     S
C115   O166    1.281   .     A
C115   O163    1.281   .     A
C116   O165    1.281   .     A
C116   C120    1.363   .     S
C116   O164    1.282   .     A
C117   C140    1.405   .     A
C117   C138    1.405   .     A
C118   C139    1.410   .     A
C118   C5      1.523   1_565 S
C119   C568    1.164   1_554 S
C120   C343    1.164   .     S
C121   Cl148   1.771   .     S
C121   C126    1.390   .     A
C121   C132    1.404   .     A
C122   Cl149   1.772   .     S
C122   C127    1.388   .     A
C122   C133    1.403   .     A
C123   Cl150   1.771   .     S
C123   C128    1.390   .     A
C123   C133    1.404   .     A
C124   C131    1.437   .     S
C124   O160    1.295   .     A
C124   O161    1.289   .     A
C125   C129    1.388   .     A
C125   Cl151   1.772   .     S
C125   C132    1.403   .     A
C126   C130    1.406   .     A
C126   Cl152   1.772   .     S
C127   C131    1.404   .     A
C127   Cl142   1.765   .     S
C128   Cl143   1.772   .     S
C128   C131    1.407   .     A
C129   C130    1.404   .     A
C129   Cl144   1.765   .     S
C132   C189    1.445   1_455 S
C133   C188    1.445   .     S
C134   Cl141   1.748   .     S
C134   N157    1.376   .     A
C134   C138    1.409   .     A
C135   C139    1.408   .     A
C135   N158    1.370   .     A
C135   Cl145   1.754   .     S
C136   N157    1.376   .     A
C136   C140    1.409   .     A
C136   Cl146   1.748   .     S
C137   Cl147   1.754   .     S
C137   N158    1.370   .     A
C138   H153    1.080   .     S
C139   H154    1.080   .     S
C140   H155    1.080   .     S
N157   Zn168   2.024   .     S
N158   Zn167   2.024   .     S
O159   Zn167   1.999   .     S
O160   Zn168   1.999   .     S
O161   Zn167   1.999   .     S
O162   Zn168   1.999   .     S
O163   Zn167   1.945   .     S
O164   Zn168   1.945   .     S
O165   Zn167   1.945   .     S
O166   Zn168   1.945   .     S
C169   O218    1.295   .     A
C169   C186    1.437   .     S
C169   O215    1.289   .     A
C170   C174    1.410   .     A
C170   C193    1.408   .     A
C170   H212    1.080   .     S
C171   C175    1.363   .     S
C171   O222    1.281   .     A
C171   O219    1.281   .     A
C172   O221    1.281   .     A
C172   C176    1.363   .     S
C172   O220    1.282   .     A
C173   C196    1.405   .     A
C173   C194    1.405   .     A
C174   C195    1.410   .     A
C174   C61     1.523   1_565 S
C175   C624    1.164   1_554 S
C176   C399    1.164   .     S
C177   Cl204   1.771   .     S
C177   C182    1.390   .     A
C177   C188    1.404   .     A
C178   Cl205   1.772   .     S
C178   C183    1.388   .     A
C178   C189    1.403   .     A
C179   Cl206   1.771   .     S
C179   C184    1.390   .     A
C179   C189    1.404   .     A
C180   C187    1.437   .     S
C180   O216    1.295   .     A
C180   O217    1.289   .     A
C181   C185    1.388   .     A
C181   Cl207   1.772   .     S
C181   C188    1.403   .     A
C182   C186    1.406   .     A
C182   Cl208   1.772   .     S
C183   C187    1.404   .     A
C183   Cl198   1.765   .     S
C184   Cl199   1.772   .     S
C184   C187    1.407   .     A
C185   C186    1.404   .     A
C185   Cl200   1.765   .     S
C189   C132    1.445   1_655 S
C190   Cl197   1.748   .     S
C190   N213    1.376   .     A
C190   C194    1.409   .     A
C191   C195    1.408   .     A
C191   N214    1.370   .     A
C191   Cl201   1.754   .     S
C192   N213    1.376   .     A
C192   C196    1.409   .     A
C192   Cl202   1.748   .     S
C193   Cl203   1.754   .     S
C193   N214    1.370   .     A
C194   H209    1.080   .     S
C195   H210    1.080   .     S
C196   H211    1.080   .     S
N213   Zn224   2.024   .     S
N214   Zn223   2.024   .     S
O215   Zn223   1.999   .     S
O216   Zn224   1.999   .     S
O217   Zn223   1.999   .     S
O218   Zn224   1.999   .     S
O219   Zn223   1.945   .     S
O220   Zn224   1.945   .     S
O221   Zn223   1.945   .     S
O222   Zn224   1.945   .     S
C225   O274    1.295   .     A
C225   C242    1.437   .     S
C225   O271    1.289   .     A
C226   C230    1.410   .     A
C226   C249    1.408   .     A
C226   H268    1.080   .     S
C227   C231    1.363   .     S
C227   O278    1.281   .     A
C227   O275    1.281   .     A
C228   O277    1.281   .     A
C228   C232    1.363   .     S
C228   O276    1.282   .     A
C229   C252    1.405   .     A
C229   C250    1.405   .     A
C229   C342    1.523   1_545 S
C230   C251    1.410   .     A
C230   C341    1.523   .     S
C232   C455    1.164   .     S
C233   Cl260   1.771   .     S
C233   C238    1.390   .     A
C233   C244    1.404   .     A
C234   Cl261   1.772   .     S
C234   C239    1.388   .     A
C234   C245    1.403   .     A
C235   Cl262   1.771   .     S
C235   C240    1.390   .     A
C235   C245    1.404   .     A
C236   C243    1.437   .     S
C236   O272    1.295   .     A
C236   O273    1.289   .     A
C237   C241    1.388   .     A
C237   Cl263   1.772   .     S
C237   C244    1.403   .     A
C238   C242    1.406   .     A
C238   Cl264   1.772   .     S
C239   C243    1.404   .     A
C239   Cl254   1.765   .     S
C240   Cl255   1.772   .     S
C240   C243    1.407   .     A
C241   C242    1.404   .     A
C241   Cl256   1.765   .     S
C244   C301    1.445   1_455 S
C245   C300    1.445   .     S
C246   Cl253   1.748   .     S
C246   N269    1.376   .     A
C246   C250    1.409   .     A
C247   C251    1.408   .     A
C247   N270    1.370   .     A
C247   Cl257   1.754   .     S
C248   N269    1.376   .     A
C248   C252    1.409   .     A
C248   Cl258   1.748   .     S
C249   Cl259   1.754   .     S
C249   N270    1.370   .     A
C250   H265    1.080   .     S
C251   H266    1.080   .     S
C252   H267    1.080   .     S
N269   Zn280   2.024   .     S
N270   Zn279   2.024   .     S
O271   Zn279   1.999   .     S
O272   Zn280   1.999   .     S
O273   Zn279   1.999   .     S
O274   Zn280   1.999   .     S
O275   Zn279   1.945   .     S
O276   Zn280   1.945   .     S
O277   Zn279   1.945   .     S
O278   Zn280   1.945   .     S
C281   O330    1.295   .     A
C281   C298    1.437   .     S
C281   O327    1.289   .     A
C282   C286    1.410   .     A
C282   C305    1.408   .     A
C282   H324    1.080   .     S
C283   C287    1.363   .     S
C283   O334    1.281   .     A
C283   O331    1.281   .     A
C284   O333    1.281   .     A
C284   C288    1.363   .     S
C284   O332    1.282   .     A
C285   C308    1.405   .     A
C285   C306    1.405   .     A
C285   C398    1.523   1_545 S
C286   C307    1.410   .     A
C286   C397    1.523   .     S
C288   C511    1.164   .     S
C289   Cl316   1.771   .     S
C289   C294    1.390   .     A
C289   C300    1.404   .     A
C290   Cl317   1.772   .     S
C290   C295    1.388   .     A
C290   C301    1.403   .     A
C291   Cl318   1.771   .     S
C291   C296    1.390   .     A
C291   C301    1.404   .     A
C292   C299    1.437   .     S
C292   O328    1.295   .     A
C292   O329    1.289   .     A
C293   C297    1.388   .     A
C293   Cl319   1.772   .     S
C293   C300    1.403   .     A
C294   C298    1.406   .     A
C294   Cl320   1.772   .     S
C295   C299    1.404   .     A
C295   Cl310   1.765   .     S
C296   Cl311   1.772   .     S
C296   C299    1.407   .     A
C297   C298    1.404   .     A
C297   Cl312   1.765   .     S
C301   C244    1.445   1_655 S
C302   Cl309   1.748   .     S
C302   N325    1.376   .     A
C302   C306    1.409   .     A
C303   C307    1.408   .     A
C303   N326    1.370   .     A
C303   Cl313   1.754   .     S
C304   N325    1.376   .     A
C304   C308    1.409   .     A
C304   Cl314   1.748   .     S
C305   Cl315   1.754   .     S
C305   N326    1.370   .     A
C306   H321    1.080   .     S
C307   H322    1.080   .     S
C308   H323    1.080   .     S
N325   Zn336   2.024   .     S
N326   Zn335   2.024   .     S
O327   Zn335   1.999   .     S
O328   Zn336   1.999   .     S
O329   Zn335   1.999   .     S
O330   Zn336   1.999   .     S
O331   Zn335   1.945   .     S
O332   Zn336   1.945   .     S
O333   Zn335   1.945   .     S
O334   Zn336   1.945   .     S
C337   O386    1.295   .     A
C337   C354    1.437   .     S
C337   O383    1.289   .     A
C338   C342    1.410   .     A
C338   C361    1.408   .     A
C338   H380    1.080   .     S
C339   C343    1.363   .     S
C339   O390    1.281   .     A
C339   O387    1.281   .     A
C340   O389    1.281   .     A
C340   C344    1.363   .     S
C340   O388    1.282   .     A
C341   C364    1.405   .     A
C341   C362    1.405   .     A
C342   C363    1.410   .     A
C342   C229    1.523   1_565 S
C344   C567    1.164   .     S
C345   Cl372   1.771   .     S
C345   C350    1.390   .     A
C345   C356    1.404   .     A
C346   Cl373   1.772   .     S
C346   C351    1.388   .     A
C346   C357    1.403   .     A
C347   Cl374   1.771   .     S
C347   C352    1.390   .     A
C347   C357    1.404   .     A
C348   C355    1.437   .     S
C348   O384    1.295   .     A
C348   O385    1.289   .     A
C349   C353    1.388   .     A
C349   Cl375   1.772   .     S
C349   C356    1.403   .     A
C350   C354    1.406   .     A
C350   Cl376   1.772   .     S
C351   C355    1.404   .     A
C351   Cl366   1.765   .     S
C352   Cl367   1.772   .     S
C352   C355    1.407   .     A
C353   C354    1.404   .     A
C353   Cl368   1.765   .     S
C356   C413    1.445   1_455 S
C357   C412    1.445   .     S
C358   Cl365   1.748   .     S
C358   N381    1.376   .     A
C358   C362    1.409   .     A
C359   C363    1.408   .     A
C359   N382    1.370   .     A
C359   Cl369   1.754   .     S
C360   N381    1.376   .     A
C360   C364    1.409   .     A
C360   Cl370   1.748   .     S
C361   Cl371   1.754   .     S
C361   N382    1.370   .     A
C362   H377    1.080   .     S
C363   H378    1.080   .     S
C364   H379    1.080   .     S
N381   Zn392   2.024   .     S
N382   Zn391   2.024   .     S
O383   Zn391   1.999   .     S
O384   Zn392   1.999   .     S
O385   Zn391   1.999   .     S
O386   Zn392   1.999   .     S
O387   Zn391   1.945   .     S
O388   Zn392   1.945   .     S
O389   Zn391   1.945   .     S
O390   Zn392   1.945   .     S
C393   O442    1.295   .     A
C393   C410    1.437   .     S
C393   O439    1.289   .     A
C394   C398    1.410   .     A
C394   C417    1.408   .     A
C394   H436    1.080   .     S
C395   C399    1.363   .     S
C395   O446    1.281   .     A
C395   O443    1.281   .     A
C396   O445    1.281   .     A
C396   C400    1.363   .     S
C396   O444    1.282   .     A
C397   C420    1.405   .     A
C397   C418    1.405   .     A
C398   C419    1.410   .     A
C398   C285    1.523   1_565 S
C400   C623    1.164   .     S
C401   Cl428   1.771   .     S
C401   C406    1.390   .     A
C401   C412    1.404   .     A
C402   Cl429   1.772   .     S
C402   C407    1.388   .     A
C402   C413    1.403   .     A
C403   Cl430   1.771   .     S
C403   C408    1.390   .     A
C403   C413    1.404   .     A
C404   C411    1.437   .     S
C404   O440    1.295   .     A
C404   O441    1.289   .     A
C405   C409    1.388   .     A
C405   Cl431   1.772   .     S
C405   C412    1.403   .     A
C406   C410    1.406   .     A
C406   Cl432   1.772   .     S
C407   C411    1.404   .     A
C407   Cl422   1.765   .     S
C408   Cl423   1.772   .     S
C408   C411    1.407   .     A
C409   C410    1.404   .     A
C409   Cl424   1.765   .     S
C413   C356    1.445   1_655 S
C414   Cl421   1.748   .     S
C414   N437    1.376   .     A
C414   C418    1.409   .     A
C415   C419    1.408   .     A
C415   N438    1.370   .     A
C415   Cl425   1.754   .     S
C416   N437    1.376   .     A
C416   C420    1.409   .     A
C416   Cl426   1.748   .     S
C417   Cl427   1.754   .     S
C417   N438    1.370   .     A
C418   H433    1.080   .     S
C419   H434    1.080   .     S
C420   H435    1.080   .     S
N437   Zn448   2.024   .     S
N438   Zn447   2.024   .     S
O439   Zn447   1.999   .     S
O440   Zn448   1.999   .     S
O441   Zn447   1.999   .     S
O442   Zn448   1.999   .     S
O443   Zn447   1.945   .     S
O444   Zn448   1.945   .     S
O445   Zn447   1.945   .     S
O446   Zn448   1.945   .     S
C449   O498    1.295   .     A
C449   C466    1.437   .     S
C449   O495    1.289   .     A
C450   C454    1.410   .     A
C450   C473    1.408   .     A
C450   H492    1.080   .     S
C451   C455    1.363   .     S
C451   O502    1.281   .     A
C451   O499    1.281   .     A
C452   O501    1.281   .     A
C452   C456    1.363   .     S
C452   O500    1.282   .     A
C453   C476    1.405   .     A
C453   C474    1.405   .     A
C453   C566    1.523   1_545 S
C454   C475    1.410   .     A
C454   C565    1.523   .     S
C456   C7      1.164   1_556 S
C457   Cl484   1.771   .     S
C457   C462    1.390   .     A
C457   C468    1.404   .     A
C458   Cl485   1.772   .     S
C458   C463    1.388   .     A
C458   C469    1.403   .     A
C459   Cl486   1.771   .     S
C459   C464    1.390   .     A
C459   C469    1.404   .     A
C460   C467    1.437   .     S
C460   O496    1.295   .     A
C460   O497    1.289   .     A
C461   C465    1.388   .     A
C461   Cl487   1.772   .     S
C461   C468    1.403   .     A
C462   C466    1.406   .     A
C462   Cl488   1.772   .     S
C463   C467    1.404   .     A
C463   Cl478   1.765   .     S
C464   Cl479   1.772   .     S
C464   C467    1.407   .     A
C465   C466    1.404   .     A
C465   Cl480   1.765   .     S
C468   C525    1.445   1_455 S
C469   C524    1.445   .     S
C470   Cl477   1.748   .     S
C470   N493    1.376   .     A
C470   C474    1.409   .     A
C471   C475    1.408   .     A
C471   N494    1.370   .     A
C471   Cl481   1.754   .     S
C472   N493    1.376   .     A
C472   C476    1.409   .     A
C472   Cl482   1.748   .     S
C473   Cl483   1.754   .     S
C473   N494    1.370   .     A
C474   H489    1.080   .     S
C475   H490    1.080   .     S
C476   H491    1.080   .     S
N493   Zn504   2.024   .     S
N494   Zn503   2.024   .     S
O495   Zn503   1.999   .     S
O496   Zn504   1.999   .     S
O497   Zn503   1.999   .     S
O498   Zn504   1.999   .     S
O499   Zn503   1.945   .     S
O500   Zn504   1.945   .     S
O501   Zn503   1.945   .     S
O502   Zn504   1.945   .     S
C505   O554    1.295   .     A
C505   C522    1.437   .     S
C505   O551    1.289   .     A
C506   C510    1.410   .     A
C506   C529    1.408   .     A
C506   H548    1.080   .     S
C507   C511    1.363   .     S
C507   O558    1.281   .     A
C507   O555    1.281   .     A
C508   O557    1.281   .     A
C508   C512    1.363   .     S
C508   O556    1.282   .     A
C509   C532    1.405   .     A
C509   C530    1.405   .     A
C509   C622    1.523   1_545 S
C510   C531    1.410   .     A
C510   C621    1.523   .     S
C512   C63     1.164   1_556 S
C513   Cl540   1.771   .     S
C513   C518    1.390   .     A
C513   C524    1.404   .     A
C514   Cl541   1.772   .     S
C514   C519    1.388   .     A
C514   C525    1.403   .     A
C515   Cl542   1.771   .     S
C515   C520    1.390   .     A
C515   C525    1.404   .     A
C516   C523    1.437   .     S
C516   O552    1.295   .     A
C516   O553    1.289   .     A
C517   C521    1.388   .     A
C517   Cl543   1.772   .     S
C517   C524    1.403   .     A
C518   C522    1.406   .     A
C518   Cl544   1.772   .     S
C519   C523    1.404   .     A
C519   Cl534   1.765   .     S
C520   Cl535   1.772   .     S
C520   C523    1.407   .     A
C521   C522    1.404   .     A
C521   Cl536   1.765   .     S
C525   C468    1.445   1_655 S
C526   Cl533   1.748   .     S
C526   N549    1.376   .     A
C526   C530    1.409   .     A
C527   C531    1.408   .     A
C527   N550    1.370   .     A
C527   Cl537   1.754   .     S
C528   N549    1.376   .     A
C528   C532    1.409   .     A
C528   Cl538   1.748   .     S
C529   Cl539   1.754   .     S
C529   N550    1.370   .     A
C530   H545    1.080   .     S
C531   H546    1.080   .     S
C532   H547    1.080   .     S
N549   Zn560   2.024   .     S
N550   Zn559   2.024   .     S
O551   Zn559   1.999   .     S
O552   Zn560   1.999   .     S
O553   Zn559   1.999   .     S
O554   Zn560   1.999   .     S
O555   Zn559   1.945   .     S
O556   Zn560   1.945   .     S
O557   Zn559   1.945   .     S
O558   Zn560   1.945   .     S
C561   O610    1.295   .     A
C561   C578    1.437   .     S
C561   O607    1.289   .     A
C562   C566    1.410   .     A
C562   C585    1.408   .     A
C562   H604    1.080   .     S
C563   C567    1.363   .     S
C563   O614    1.281   .     A
C563   O611    1.281   .     A
C564   O613    1.281   .     A
C564   C568    1.363   .     S
C564   O612    1.282   .     A
C565   C588    1.405   .     A
C565   C586    1.405   .     A
C566   C587    1.410   .     A
C566   C453    1.523   1_565 S
C568   C119    1.164   1_556 S
C569   Cl596   1.771   .     S
C569   C574    1.390   .     A
C569   C580    1.404   .     A
C570   Cl597   1.772   .     S
C570   C575    1.388   .     A
C570   C581    1.403   .     A
C571   Cl598   1.771   .     S
C571   C576    1.390   .     A
C571   C581    1.404   .     A
C572   C579    1.437   .     S
C572   O608    1.295   .     A
C572   O609    1.289   .     A
C573   C577    1.388   .     A
C573   Cl599   1.772   .     S
C573   C580    1.403   .     A
C574   C578    1.406   .     A
C574   Cl600   1.772   .     S
C575   C579    1.404   .     A
C575   Cl590   1.765   .     S
C576   Cl591   1.772   .     S
C576   C579    1.407   .     A
C577   C578    1.404   .     A
C577   Cl592   1.765   .     S
C580   C637    1.445   1_455 S
C581   C636    1.445   .     S
C582   Cl589   1.748   .     S
C582   N605    1.376   .     A
C582   C586    1.409   .     A
C583   C587    1.408   .     A
C583   N606    1.370   .     A
C583   Cl593   1.754   .     S
C584   N605    1.376   .     A
C584   C588    1.409   .     A
C584   Cl594   1.748   .     S
C585   Cl595   1.754   .     S
C585   N606    1.370   .     A
C586   H601    1.080   .     S
C587   H602    1.080   .     S
C588   H603    1.080   .     S
N605   Zn616   2.024   .     S
N606   Zn615   2.024   .     S
O607   Zn615   1.999   .     S
O608   Zn616   1.999   .     S
O609   Zn615   1.999   .     S
O610   Zn616   1.999   .     S
O611   Zn615   1.945   .     S
O612   Zn616   1.945   .     S
O613   Zn615   1.945   .     S
O614   Zn616   1.945   .     S
C617   O666    1.295   .     A
C617   C634    1.437   .     S
C617   O663    1.289   .     A
C618   C622    1.410   .     A
C618   C641    1.408   .     A
C618   H660    1.080   .     S
C619   C623    1.363   .     S
C619   O670    1.281   .     A
C619   O667    1.281   .     A
C620   O669    1.281   .     A
C620   C624    1.363   .     S
C620   O668    1.282   .     A
C621   C644    1.405   .     A
C621   C642    1.405   .     A
C622   C643    1.410   .     A
C622   C509    1.523   1_565 S
C624   C175    1.164   1_556 S
C625   Cl652   1.771   .     S
C625   C630    1.390   .     A
C625   C636    1.404   .     A
C626   Cl653   1.772   .     S
C626   C631    1.388   .     A
C626   C637    1.403   .     A
C627   Cl654   1.771   .     S
C627   C632    1.390   .     A
C627   C637    1.404   .     A
C628   C635    1.437   .     S
C628   O664    1.295   .     A
C628   O665    1.289   .     A
C629   C633    1.388   .     A
C629   Cl655   1.772   .     S
C629   C636    1.403   .     A
C630   C634    1.406   .     A
C630   Cl656   1.772   .     S
C631   C635    1.404   .     A
C631   Cl646   1.765   .     S
C632   Cl647   1.772   .     S
C632   C635    1.407   .     A
C633   C634    1.404   .     A
C633   Cl648   1.765   .     S
C637   C580    1.445   1_655 S
C638   Cl645   1.748   .     S
C638   N661    1.376   .     A
C638   C642    1.409   .     A
C639   C643    1.408   .     A
C639   N662    1.370   .     A
C639   Cl649   1.754   .     S
C640   N661    1.376   .     A
C640   C644    1.409   .     A
C640   Cl650   1.748   .     S
C641   Cl651   1.754   .     S
C641   N662    1.370   .     A
C642   H657    1.080   .     S
C643   H658    1.080   .     S
C644   H659    1.080   .     S
N661   Zn672   2.024   .     S
N662   Zn671   2.024   .     S
O663   Zn671   1.999   .     S
O664   Zn672   1.999   .     S
O665   Zn671   1.999   .     S
O666   Zn672   1.999   .     S
O667   Zn671   1.945   .     S
O668   Zn672   1.945   .     S
O669   Zn671   1.945   .     S
O670   Zn672   1.945   .     S
