data_str_m3_o1_o18_pcu_sym.46
_audit_creation_date              2020-01-03
_audit_creation_method            'Materials Studio'
_symmetry_space_group_name_H-M    'P1'
_symmetry_Int_Tables_number       1
_symmetry_cell_setting            triclinic
loop_
_symmetry_equiv_pos_as_xyz
  x,y,z
_cell_length_a                    29.5308
_cell_length_b                    32.1011
_cell_length_c                    30.9262
_cell_angle_alpha                 89.8974
_cell_angle_beta                  68.0611
_cell_angle_gamma                 90.0226
loop_
_atom_site_label
_atom_site_type_symbol
_atom_site_fract_x
_atom_site_fract_y
_atom_site_fract_z
_atom_site_U_iso_or_equiv
_atom_site_adp_type
_atom_site_occupancy
C1     C     0.16674   0.24670   0.24986   0.00000  Uiso   1.00
C2     C     0.12235   0.31196   0.26331   0.00000  Uiso   1.00
C3     C     0.16683   0.04250   0.24938   0.00000  Uiso   1.00
C4     C     0.16684   0.29084   0.24951   0.00000  Uiso   1.00
C5     C     0.32136   0.14253   0.21924   0.00000  Uiso   1.00
C6     C     0.01198   0.19083   0.28072   0.00000  Uiso   1.00
C7     C     0.03598   0.14253   0.21927   0.00000  Uiso   1.00
C8     C     0.29738   0.19084   0.28069   0.00000  Uiso   1.00
C9     C     0.13622   0.16615   0.33803   0.00000  Uiso   1.00
C10    C     0.19701   0.16596   0.16196   0.00000  Uiso   1.00
C11    C     0.11685   0.16344   0.38874   0.00000  Uiso   1.00
C12    C     0.16673   0.08664   0.24978   0.00000  Uiso   1.00
C13    C     0.21457   0.15734   0.11216   0.00000  Uiso   1.00
C14    C     0.05226   0.17513   0.46424   0.00000  Uiso   1.00
C15    C     0.26848   0.11977   0.04470   0.00000  Uiso   1.00
C16    C     0.06860   0.17419   0.41530   0.00000  Uiso   1.00
C17    C     0.25873   0.13682   0.08892   0.00000  Uiso   1.00
C18    C     0.14798   0.15025   0.41039   0.00000  Uiso   1.00
C19    C     0.18134   0.16259   0.09053   0.00000  Uiso   1.00
C20    C     0.13251   0.14862   0.45882   0.00000  Uiso   1.00
C21    C     0.18861   0.14411   0.04780   0.00000  Uiso   1.00
C22    C     0.08442   0.16226   0.48593   0.00000  Uiso   1.00
C23    C     0.10340   0.15721   0.05518   0.00000  Uiso   1.00
C24    C     0.23398   0.12455   0.02326   0.00000  Uiso   1.00
C25    C     0.16523   0.13713   0.48068   0.00000  Uiso   1.00
C26    C     0.15229   0.14634   0.02834   0.00000  Uiso   1.00
C27    C     0.32380   0.22368   0.47598   0.00000  Uiso   1.00
C28    C     0.28082   0.24253   0.01587   0.00000  Uiso   1.00
C29    C     0.26349   0.28291   0.00100   0.00000  Uiso   1.00
C30    C     0.30748   0.05670   0.03094   0.00000  Uiso   1.00
C31    C     0.32366   0.04523   0.07110   0.00000  Uiso   1.00
C32    C     0.32293   0.33150   0.07835   0.00000  Uiso   1.00
C33    C     0.21065   0.11746   0.45654   0.00000  Uiso   1.00
C34    C     0.06989   0.16430   0.03434   0.00000  Uiso   1.00
C35    C     0.24393   0.11051   0.47791   0.00000  Uiso   1.00
C36    C     0.21136   0.31203   0.23534   0.00000  Uiso   1.00
C37    C     0.12235   0.02130   0.26324   0.00000  Uiso   1.00
C38    C     0.21135   0.02140   0.23525   0.00000  Uiso   1.00
H39    H     0.03311   0.17330   0.05626   0.00000  Uiso   1.00
H40    H     0.08774   0.03759   0.27449   0.00000  Uiso   1.00
H41    H     0.24594   0.03780   0.22391   0.00000  Uiso   1.00
H42    H     0.08774   0.29560   0.27461   0.00000  Uiso   1.00
H43    H     0.31279   0.12325   0.19465   0.00000  Uiso   1.00
H44    H     0.02057   0.21013   0.30528   0.00000  Uiso   1.00
H45    H     0.06372   0.12321   0.19469   0.00000  Uiso   1.00
H46    H     0.26965   0.21021   0.30521   0.00000  Uiso   1.00
H47    H     0.31153   0.21666   0.44687   0.00000  Uiso   1.00
H48    H     0.02073   0.24700   0.46442   0.00000  Uiso   1.00
H49    H     0.25009   0.21998   0.02733   0.00000  Uiso   1.00
H50    H     0.27808   0.09516   0.45824   0.00000  Uiso   1.00
H51    H     0.29191   0.24884   0.04584   0.00000  Uiso   1.00
H52    H     0.29376   0.30589   0.48882   0.00000  Uiso   1.00
H53    H     0.23316   0.29634   0.03108   0.00000  Uiso   1.00
H54    H     0.25015   0.27676   0.47246   0.00000  Uiso   1.00
H55    H     0.33184   0.04062   0.49893   0.00000  Uiso   1.00
H56    H     0.26982   0.04473   0.03806   0.00000  Uiso   1.00
H57    H     0.02790   0.05713   0.06341   0.00000  Uiso   1.00
H58    H     0.29878   0.05975   0.10392   0.00000  Uiso   1.00
H59    H     0.28528   0.31927   0.08754   0.00000  Uiso   1.00
H60    H     0.00191   0.32421   0.10733   0.00000  Uiso   1.00
H61    H     0.14939   0.18136   0.10802   0.00000  Uiso   1.00
H62    H     0.01445   0.31587   0.04625   0.00000  Uiso   1.00
H63    H     0.18520   0.14313   0.38864   0.00000  Uiso   1.00
H64    H     0.28473   0.13269   0.10567   0.00000  Uiso   1.00
H65    H     0.04434   0.18279   0.39784   0.00000  Uiso   1.00
H66    H     0.08986   0.15957   0.09272   0.00000  Uiso   1.00
H67    H     0.22074   0.10581   0.42148   0.00000  Uiso   1.00
H68    H     0.24595   0.29571   0.22407   0.00000  Uiso   1.00
N69    N     0.04759   0.16668   0.25001   0.00000  Uiso   1.00
N70    N     0.28574   0.16666   0.24999   0.00000  Uiso   1.00
O71    O     0.12846   0.22775   0.25001   0.00000  Uiso   1.00
O72    O     0.31267   0.10006   0.02197   0.00000  Uiso   1.00
O73    O     0.20488   0.10558   0.25000   0.00000  Uiso   1.00
O74    O     0.20490   0.22774   0.25000   0.00000  Uiso   1.00
O75    O     0.12843   0.10559   0.25000   0.00000  Uiso   1.00
O76    O     0.10661   0.16667   0.31613   0.00000  Uiso   1.00
O77    O     0.22672   0.16666   0.18388   0.00000  Uiso   1.00
O78    O     0.18305   0.16666   0.31612   0.00000  Uiso   1.00
O79    O     0.15028   0.16667   0.18388   0.00000  Uiso   1.00
O80    O     0.00478   0.18651   0.49186   0.00000  Uiso   1.00
Zn81   Zn    0.11562   0.16667   0.25000   0.00000  Uiso   1.00
Zn82   Zn    0.21771   0.16666   0.25000   0.00000  Uiso   1.00
C83    C     0.50007   0.24670   0.24986   0.00000  Uiso   1.00
C84    C     0.45568   0.31196   0.26331   0.00000  Uiso   1.00
C85    C     0.50016   0.04250   0.24938   0.00000  Uiso   1.00
C86    C     0.50017   0.29084   0.24951   0.00000  Uiso   1.00
C87    C     0.65470   0.14253   0.21924   0.00000  Uiso   1.00
C88    C     0.34532   0.19083   0.28072   0.00000  Uiso   1.00
C89    C     0.36931   0.14253   0.21927   0.00000  Uiso   1.00
C90    C     0.63071   0.19084   0.28069   0.00000  Uiso   1.00
C91    C     0.46955   0.16615   0.33803   0.00000  Uiso   1.00
C92    C     0.53035   0.16596   0.16196   0.00000  Uiso   1.00
C93    C     0.45018   0.16344   0.38874   0.00000  Uiso   1.00
C94    C     0.50006   0.08664   0.24978   0.00000  Uiso   1.00
C95    C     0.54791   0.15734   0.11216   0.00000  Uiso   1.00
C96    C     0.38560   0.17513   0.46424   0.00000  Uiso   1.00
C97    C     0.60181   0.11977   0.04470   0.00000  Uiso   1.00
C98    C     0.40194   0.17419   0.41530   0.00000  Uiso   1.00
C99    C     0.59206   0.13682   0.08892   0.00000  Uiso   1.00
C100   C     0.48131   0.15025   0.41039   0.00000  Uiso   1.00
C101   C     0.51467   0.16259   0.09053   0.00000  Uiso   1.00
C102   C     0.46584   0.14862   0.45882   0.00000  Uiso   1.00
C103   C     0.52194   0.14411   0.04780   0.00000  Uiso   1.00
C104   C     0.41776   0.16226   0.48593   0.00000  Uiso   1.00
C105   C     0.43673   0.15721   0.05518   0.00000  Uiso   1.00
C106   C     0.56732   0.12455   0.02326   0.00000  Uiso   1.00
C107   C     0.49856   0.13713   0.48068   0.00000  Uiso   1.00
C108   C     0.48562   0.14634   0.02834   0.00000  Uiso   1.00
C109   C     0.65713   0.22368   0.47598   0.00000  Uiso   1.00
C110   C     0.61415   0.24253   0.01587   0.00000  Uiso   1.00
C111   C     0.59683   0.28291   0.00100   0.00000  Uiso   1.00
C112   C     0.64081   0.05670   0.03094   0.00000  Uiso   1.00
C113   C     0.65699   0.04523   0.07110   0.00000  Uiso   1.00
C114   C     0.65626   0.33150   0.07835   0.00000  Uiso   1.00
C115   C     0.54398   0.11746   0.45654   0.00000  Uiso   1.00
C116   C     0.40322   0.16430   0.03434   0.00000  Uiso   1.00
C117   C     0.57726   0.11051   0.47791   0.00000  Uiso   1.00
C118   C     0.54469   0.31203   0.23534   0.00000  Uiso   1.00
C119   C     0.45568   0.02130   0.26324   0.00000  Uiso   1.00
C120   C     0.54469   0.02140   0.23525   0.00000  Uiso   1.00
H121   H     0.36645   0.17330   0.05626   0.00000  Uiso   1.00
H122   H     0.42107   0.03759   0.27449   0.00000  Uiso   1.00
H123   H     0.57928   0.03780   0.22391   0.00000  Uiso   1.00
H124   H     0.42107   0.29560   0.27461   0.00000  Uiso   1.00
H125   H     0.64613   0.12325   0.19465   0.00000  Uiso   1.00
H126   H     0.35390   0.21013   0.30528   0.00000  Uiso   1.00
H127   H     0.39705   0.12321   0.19469   0.00000  Uiso   1.00
H128   H     0.60299   0.21021   0.30521   0.00000  Uiso   1.00
H129   H     0.64486   0.21666   0.44687   0.00000  Uiso   1.00
H130   H     0.35406   0.24700   0.46442   0.00000  Uiso   1.00
H131   H     0.58342   0.21998   0.02733   0.00000  Uiso   1.00
H132   H     0.61142   0.09516   0.45824   0.00000  Uiso   1.00
H133   H     0.62524   0.24884   0.04584   0.00000  Uiso   1.00
H134   H     0.62709   0.30589   0.48882   0.00000  Uiso   1.00
H135   H     0.56649   0.29634   0.03108   0.00000  Uiso   1.00
H136   H     0.58348   0.27676   0.47246   0.00000  Uiso   1.00
H137   H     0.66518   0.04062   0.49893   0.00000  Uiso   1.00
H138   H     0.60315   0.04473   0.03806   0.00000  Uiso   1.00
H139   H     0.36124   0.05713   0.06341   0.00000  Uiso   1.00
H140   H     0.63212   0.05975   0.10392   0.00000  Uiso   1.00
H141   H     0.61862   0.31927   0.08754   0.00000  Uiso   1.00
H142   H     0.33524   0.32421   0.10733   0.00000  Uiso   1.00
H143   H     0.48272   0.18136   0.10802   0.00000  Uiso   1.00
H144   H     0.34778   0.31587   0.04625   0.00000  Uiso   1.00
H145   H     0.51853   0.14313   0.38864   0.00000  Uiso   1.00
H146   H     0.61806   0.13269   0.10567   0.00000  Uiso   1.00
H147   H     0.37767   0.18279   0.39784   0.00000  Uiso   1.00
H148   H     0.42319   0.15957   0.09272   0.00000  Uiso   1.00
H149   H     0.55407   0.10581   0.42148   0.00000  Uiso   1.00
H150   H     0.57928   0.29571   0.22407   0.00000  Uiso   1.00
N151   N     0.38093   0.16668   0.25001   0.00000  Uiso   1.00
N152   N     0.61907   0.16666   0.24999   0.00000  Uiso   1.00
O153   O     0.46179   0.22775   0.25001   0.00000  Uiso   1.00
O154   O     0.64600   0.10006   0.02197   0.00000  Uiso   1.00
O155   O     0.53821   0.10558   0.25000   0.00000  Uiso   1.00
O156   O     0.53823   0.22774   0.25000   0.00000  Uiso   1.00
O157   O     0.46177   0.10559   0.25000   0.00000  Uiso   1.00
O158   O     0.43994   0.16667   0.31613   0.00000  Uiso   1.00
O159   O     0.56006   0.16666   0.18388   0.00000  Uiso   1.00
O160   O     0.51639   0.16666   0.31612   0.00000  Uiso   1.00
O161   O     0.48361   0.16667   0.18388   0.00000  Uiso   1.00
O162   O     0.33811   0.18651   0.49186   0.00000  Uiso   1.00
Zn163  Zn    0.44896   0.16667   0.25000   0.00000  Uiso   1.00
Zn164  Zn    0.55104   0.16666   0.25000   0.00000  Uiso   1.00
C165   C     0.83340   0.24670   0.24986   0.00000  Uiso   1.00
C166   C     0.78902   0.31196   0.26331   0.00000  Uiso   1.00
C167   C     0.83349   0.04250   0.24938   0.00000  Uiso   1.00
C168   C     0.83350   0.29084   0.24951   0.00000  Uiso   1.00
C169   C     0.98803   0.14253   0.21924   0.00000  Uiso   1.00
C170   C     0.67865   0.19083   0.28072   0.00000  Uiso   1.00
C171   C     0.70264   0.14253   0.21927   0.00000  Uiso   1.00
C172   C     0.96404   0.19084   0.28069   0.00000  Uiso   1.00
C173   C     0.80289   0.16615   0.33803   0.00000  Uiso   1.00
C174   C     0.86368   0.16596   0.16196   0.00000  Uiso   1.00
C175   C     0.78352   0.16344   0.38874   0.00000  Uiso   1.00
C176   C     0.83339   0.08664   0.24978   0.00000  Uiso   1.00
C177   C     0.88124   0.15734   0.11216   0.00000  Uiso   1.00
C178   C     0.71893   0.17513   0.46424   0.00000  Uiso   1.00
C179   C     0.93514   0.11977   0.04470   0.00000  Uiso   1.00
C180   C     0.73527   0.17419   0.41530   0.00000  Uiso   1.00
C181   C     0.92539   0.13682   0.08892   0.00000  Uiso   1.00
C182   C     0.81464   0.15025   0.41039   0.00000  Uiso   1.00
C183   C     0.84801   0.16259   0.09053   0.00000  Uiso   1.00
C184   C     0.79918   0.14862   0.45882   0.00000  Uiso   1.00
C185   C     0.85527   0.14411   0.04780   0.00000  Uiso   1.00
C186   C     0.75109   0.16226   0.48593   0.00000  Uiso   1.00
C187   C     0.77007   0.15721   0.05518   0.00000  Uiso   1.00
C188   C     0.90065   0.12455   0.02326   0.00000  Uiso   1.00
C189   C     0.83189   0.13713   0.48068   0.00000  Uiso   1.00
C190   C     0.81896   0.14634   0.02834   0.00000  Uiso   1.00
C191   C     0.99046   0.22368   0.47598   0.00000  Uiso   1.00
C192   C     0.94749   0.24253   0.01587   0.00000  Uiso   1.00
C193   C     0.93016   0.28291   0.00100   0.00000  Uiso   1.00
C194   C     0.97415   0.05670   0.03094   0.00000  Uiso   1.00
C195   C     0.99033   0.04523   0.07110   0.00000  Uiso   1.00
C196   C     0.98959   0.33150   0.07835   0.00000  Uiso   1.00
C197   C     0.87731   0.11746   0.45654   0.00000  Uiso   1.00
C198   C     0.73656   0.16430   0.03434   0.00000  Uiso   1.00
C199   C     0.91059   0.11051   0.47791   0.00000  Uiso   1.00
C200   C     0.87802   0.31203   0.23534   0.00000  Uiso   1.00
C201   C     0.78901   0.02130   0.26324   0.00000  Uiso   1.00
C202   C     0.87802   0.02140   0.23525   0.00000  Uiso   1.00
H203   H     0.69978   0.17330   0.05626   0.00000  Uiso   1.00
H204   H     0.75440   0.03759   0.27449   0.00000  Uiso   1.00
H205   H     0.91261   0.03780   0.22391   0.00000  Uiso   1.00
H206   H     0.75441   0.29560   0.27461   0.00000  Uiso   1.00
H207   H     0.97946   0.12325   0.19465   0.00000  Uiso   1.00
H208   H     0.68723   0.21013   0.30528   0.00000  Uiso   1.00
H209   H     0.73039   0.12321   0.19469   0.00000  Uiso   1.00
H210   H     0.93632   0.21021   0.30521   0.00000  Uiso   1.00
H211   H     0.97819   0.21666   0.44687   0.00000  Uiso   1.00
H212   H     0.68739   0.24700   0.46442   0.00000  Uiso   1.00
H213   H     0.91676   0.21998   0.02733   0.00000  Uiso   1.00
H214   H     0.94475   0.09516   0.45824   0.00000  Uiso   1.00
H215   H     0.95858   0.24884   0.04584   0.00000  Uiso   1.00
H216   H     0.96043   0.30589   0.48882   0.00000  Uiso   1.00
H217   H     0.89982   0.29634   0.03108   0.00000  Uiso   1.00
H218   H     0.91681   0.27676   0.47246   0.00000  Uiso   1.00
H219   H     0.99851   0.04062   0.49893   0.00000  Uiso   1.00
H220   H     0.93648   0.04473   0.03806   0.00000  Uiso   1.00
H221   H     0.69457   0.05713   0.06341   0.00000  Uiso   1.00
H222   H     0.96545   0.05975   0.10392   0.00000  Uiso   1.00
H223   H     0.95195   0.31927   0.08754   0.00000  Uiso   1.00
H224   H     0.66857   0.32421   0.10733   0.00000  Uiso   1.00
H225   H     0.81605   0.18136   0.10802   0.00000  Uiso   1.00
H226   H     0.68112   0.31587   0.04625   0.00000  Uiso   1.00
H227   H     0.85187   0.14313   0.38864   0.00000  Uiso   1.00
H228   H     0.95139   0.13269   0.10567   0.00000  Uiso   1.00
H229   H     0.71100   0.18279   0.39784   0.00000  Uiso   1.00
H230   H     0.75652   0.15957   0.09272   0.00000  Uiso   1.00
H231   H     0.88740   0.10581   0.42148   0.00000  Uiso   1.00
H232   H     0.91261   0.29571   0.22407   0.00000  Uiso   1.00
N233   N     0.71426   0.16668   0.25001   0.00000  Uiso   1.00
N234   N     0.95241   0.16666   0.24999   0.00000  Uiso   1.00
O235   O     0.79512   0.22775   0.25001   0.00000  Uiso   1.00
O236   O     0.97933   0.10006   0.02197   0.00000  Uiso   1.00
O237   O     0.87154   0.10558   0.25000   0.00000  Uiso   1.00
O238   O     0.87157   0.22774   0.25000   0.00000  Uiso   1.00
O239   O     0.79510   0.10559   0.25000   0.00000  Uiso   1.00
O240   O     0.77328   0.16667   0.31613   0.00000  Uiso   1.00
O241   O     0.89339   0.16666   0.18388   0.00000  Uiso   1.00
O242   O     0.84972   0.16666   0.31612   0.00000  Uiso   1.00
O243   O     0.81695   0.16667   0.18388   0.00000  Uiso   1.00
O244   O     0.67145   0.18651   0.49186   0.00000  Uiso   1.00
Zn245  Zn    0.78229   0.16667   0.25000   0.00000  Uiso   1.00
Zn246  Zn    0.88438   0.16666   0.25000   0.00000  Uiso   1.00
C247   C     0.16674   0.58003   0.24986   0.00000  Uiso   1.00
C248   C     0.12235   0.64529   0.26331   0.00000  Uiso   1.00
C249   C     0.16683   0.37584   0.24938   0.00000  Uiso   1.00
C250   C     0.16684   0.62418   0.24951   0.00000  Uiso   1.00
C251   C     0.32136   0.47587   0.21924   0.00000  Uiso   1.00
C252   C     0.01198   0.52416   0.28072   0.00000  Uiso   1.00
C253   C     0.03598   0.47586   0.21927   0.00000  Uiso   1.00
C254   C     0.29738   0.52417   0.28069   0.00000  Uiso   1.00
C255   C     0.13622   0.49948   0.33803   0.00000  Uiso   1.00
C256   C     0.19701   0.49929   0.16196   0.00000  Uiso   1.00
C257   C     0.11685   0.49677   0.38874   0.00000  Uiso   1.00
C258   C     0.16673   0.41997   0.24978   0.00000  Uiso   1.00
C259   C     0.21457   0.49068   0.11216   0.00000  Uiso   1.00
C260   C     0.05226   0.50846   0.46424   0.00000  Uiso   1.00
C261   C     0.26848   0.45311   0.04470   0.00000  Uiso   1.00
C262   C     0.06860   0.50753   0.41530   0.00000  Uiso   1.00
C263   C     0.25873   0.47015   0.08892   0.00000  Uiso   1.00
C264   C     0.14798   0.48358   0.41039   0.00000  Uiso   1.00
C265   C     0.18134   0.49593   0.09053   0.00000  Uiso   1.00
C266   C     0.13251   0.48195   0.45882   0.00000  Uiso   1.00
C267   C     0.18861   0.47744   0.04780   0.00000  Uiso   1.00
C268   C     0.08442   0.49559   0.48593   0.00000  Uiso   1.00
C269   C     0.10340   0.49054   0.05518   0.00000  Uiso   1.00
C270   C     0.23398   0.45789   0.02326   0.00000  Uiso   1.00
C271   C     0.16523   0.47047   0.48068   0.00000  Uiso   1.00
C272   C     0.15229   0.47968   0.02834   0.00000  Uiso   1.00
C273   C     0.32380   0.55702   0.47598   0.00000  Uiso   1.00
C274   C     0.28082   0.57587   0.01587   0.00000  Uiso   1.00
C275   C     0.26349   0.61624   0.00100   0.00000  Uiso   1.00
C276   C     0.30748   0.39003   0.03094   0.00000  Uiso   1.00
C277   C     0.32366   0.37856   0.07110   0.00000  Uiso   1.00
C278   C     0.32293   0.66484   0.07835   0.00000  Uiso   1.00
C279   C     0.21065   0.45079   0.45654   0.00000  Uiso   1.00
C280   C     0.06989   0.49764   0.03434   0.00000  Uiso   1.00
C281   C     0.24393   0.44384   0.47791   0.00000  Uiso   1.00
C282   C     0.21136   0.64537   0.23534   0.00000  Uiso   1.00
C283   C     0.12235   0.35463   0.26324   0.00000  Uiso   1.00
C284   C     0.21135   0.35474   0.23525   0.00000  Uiso   1.00
H285   H     0.03311   0.50663   0.05626   0.00000  Uiso   1.00
H286   H     0.08774   0.37092   0.27449   0.00000  Uiso   1.00
H287   H     0.24594   0.37114   0.22391   0.00000  Uiso   1.00
H288   H     0.08774   0.62893   0.27461   0.00000  Uiso   1.00
H289   H     0.31279   0.45659   0.19465   0.00000  Uiso   1.00
H290   H     0.02057   0.54347   0.30528   0.00000  Uiso   1.00
H291   H     0.06372   0.45654   0.19469   0.00000  Uiso   1.00
H292   H     0.26965   0.54354   0.30521   0.00000  Uiso   1.00
H293   H     0.31153   0.54999   0.44687   0.00000  Uiso   1.00
H294   H     0.02073   0.58033   0.46442   0.00000  Uiso   1.00
H295   H     0.25009   0.55332   0.02733   0.00000  Uiso   1.00
H296   H     0.27808   0.42850   0.45824   0.00000  Uiso   1.00
H297   H     0.29191   0.58218   0.04584   0.00000  Uiso   1.00
H298   H     0.29376   0.63922   0.48882   0.00000  Uiso   1.00
H299   H     0.23316   0.62967   0.03108   0.00000  Uiso   1.00
H300   H     0.25015   0.61009   0.47246   0.00000  Uiso   1.00
H301   H     0.33184   0.37395   0.49893   0.00000  Uiso   1.00
H302   H     0.26982   0.37807   0.03806   0.00000  Uiso   1.00
H303   H     0.02790   0.39047   0.06341   0.00000  Uiso   1.00
H304   H     0.29878   0.39308   0.10392   0.00000  Uiso   1.00
H305   H     0.28528   0.65260   0.08754   0.00000  Uiso   1.00
H306   H     0.00191   0.65755   0.10733   0.00000  Uiso   1.00
H307   H     0.14939   0.51469   0.10802   0.00000  Uiso   1.00
H308   H     0.01445   0.64920   0.04625   0.00000  Uiso   1.00
H309   H     0.18520   0.47647   0.38864   0.00000  Uiso   1.00
H310   H     0.28473   0.46602   0.10567   0.00000  Uiso   1.00
H311   H     0.04434   0.51612   0.39784   0.00000  Uiso   1.00
H312   H     0.08986   0.49290   0.09272   0.00000  Uiso   1.00
H313   H     0.22074   0.43915   0.42148   0.00000  Uiso   1.00
H314   H     0.24595   0.62904   0.22407   0.00000  Uiso   1.00
N315   N     0.04759   0.50001   0.25001   0.00000  Uiso   1.00
N316   N     0.28574   0.49999   0.24999   0.00000  Uiso   1.00
O317   O     0.12846   0.56108   0.25001   0.00000  Uiso   1.00
O318   O     0.31267   0.43339   0.02197   0.00000  Uiso   1.00
O319   O     0.20488   0.43892   0.25000   0.00000  Uiso   1.00
O320   O     0.20490   0.56107   0.25000   0.00000  Uiso   1.00
O321   O     0.12843   0.43893   0.25000   0.00000  Uiso   1.00
O322   O     0.10661   0.50001   0.31613   0.00000  Uiso   1.00
O323   O     0.22672   0.49999   0.18388   0.00000  Uiso   1.00
O324   O     0.18305   0.50000   0.31612   0.00000  Uiso   1.00
O325   O     0.15028   0.50000   0.18388   0.00000  Uiso   1.00
O326   O     0.00478   0.51984   0.49186   0.00000  Uiso   1.00
Zn327  Zn    0.11562   0.50001   0.25000   0.00000  Uiso   1.00
Zn328  Zn    0.21771   0.49999   0.25000   0.00000  Uiso   1.00
C329   C     0.50007   0.58003   0.24986   0.00000  Uiso   1.00
C330   C     0.45568   0.64529   0.26331   0.00000  Uiso   1.00
C331   C     0.50016   0.37584   0.24938   0.00000  Uiso   1.00
C332   C     0.50017   0.62418   0.24951   0.00000  Uiso   1.00
C333   C     0.65470   0.47587   0.21924   0.00000  Uiso   1.00
C334   C     0.34532   0.52416   0.28072   0.00000  Uiso   1.00
C335   C     0.36931   0.47586   0.21927   0.00000  Uiso   1.00
C336   C     0.63071   0.52417   0.28069   0.00000  Uiso   1.00
C337   C     0.46955   0.49948   0.33803   0.00000  Uiso   1.00
C338   C     0.53035   0.49929   0.16196   0.00000  Uiso   1.00
C339   C     0.45018   0.49677   0.38874   0.00000  Uiso   1.00
C340   C     0.50006   0.41997   0.24978   0.00000  Uiso   1.00
C341   C     0.54791   0.49068   0.11216   0.00000  Uiso   1.00
C342   C     0.38560   0.50846   0.46424   0.00000  Uiso   1.00
C343   C     0.60181   0.45311   0.04470   0.00000  Uiso   1.00
C344   C     0.40194   0.50753   0.41530   0.00000  Uiso   1.00
C345   C     0.59206   0.47015   0.08892   0.00000  Uiso   1.00
C346   C     0.48131   0.48358   0.41039   0.00000  Uiso   1.00
C347   C     0.51467   0.49593   0.09053   0.00000  Uiso   1.00
C348   C     0.46584   0.48195   0.45882   0.00000  Uiso   1.00
C349   C     0.52194   0.47744   0.04780   0.00000  Uiso   1.00
C350   C     0.41776   0.49559   0.48593   0.00000  Uiso   1.00
C351   C     0.43673   0.49054   0.05518   0.00000  Uiso   1.00
C352   C     0.56732   0.45789   0.02326   0.00000  Uiso   1.00
C353   C     0.49856   0.47047   0.48068   0.00000  Uiso   1.00
C354   C     0.48562   0.47968   0.02834   0.00000  Uiso   1.00
C355   C     0.65713   0.55702   0.47598   0.00000  Uiso   1.00
C356   C     0.61415   0.57587   0.01587   0.00000  Uiso   1.00
C357   C     0.59683   0.61624   0.00100   0.00000  Uiso   1.00
C358   C     0.64081   0.39003   0.03094   0.00000  Uiso   1.00
C359   C     0.65699   0.37856   0.07110   0.00000  Uiso   1.00
C360   C     0.65626   0.66484   0.07835   0.00000  Uiso   1.00
C361   C     0.54398   0.45079   0.45654   0.00000  Uiso   1.00
C362   C     0.40322   0.49764   0.03434   0.00000  Uiso   1.00
C363   C     0.57726   0.44384   0.47791   0.00000  Uiso   1.00
C364   C     0.54469   0.64537   0.23534   0.00000  Uiso   1.00
C365   C     0.45568   0.35463   0.26324   0.00000  Uiso   1.00
C366   C     0.54469   0.35474   0.23525   0.00000  Uiso   1.00
H367   H     0.36645   0.50663   0.05626   0.00000  Uiso   1.00
H368   H     0.42107   0.37092   0.27449   0.00000  Uiso   1.00
H369   H     0.57928   0.37114   0.22391   0.00000  Uiso   1.00
H370   H     0.42107   0.62893   0.27461   0.00000  Uiso   1.00
H371   H     0.64613   0.45659   0.19465   0.00000  Uiso   1.00
H372   H     0.35390   0.54347   0.30528   0.00000  Uiso   1.00
H373   H     0.39705   0.45654   0.19469   0.00000  Uiso   1.00
H374   H     0.60299   0.54354   0.30521   0.00000  Uiso   1.00
H375   H     0.64486   0.54999   0.44687   0.00000  Uiso   1.00
H376   H     0.35406   0.58033   0.46442   0.00000  Uiso   1.00
H377   H     0.58342   0.55332   0.02733   0.00000  Uiso   1.00
H378   H     0.61142   0.42850   0.45824   0.00000  Uiso   1.00
H379   H     0.62524   0.58218   0.04584   0.00000  Uiso   1.00
H380   H     0.62709   0.63922   0.48882   0.00000  Uiso   1.00
H381   H     0.56649   0.62967   0.03108   0.00000  Uiso   1.00
H382   H     0.58348   0.61009   0.47246   0.00000  Uiso   1.00
H383   H     0.66518   0.37395   0.49893   0.00000  Uiso   1.00
H384   H     0.60315   0.37807   0.03806   0.00000  Uiso   1.00
H385   H     0.36124   0.39047   0.06341   0.00000  Uiso   1.00
H386   H     0.63212   0.39308   0.10392   0.00000  Uiso   1.00
H387   H     0.61862   0.65260   0.08754   0.00000  Uiso   1.00
H388   H     0.33524   0.65755   0.10733   0.00000  Uiso   1.00
H389   H     0.48272   0.51469   0.10802   0.00000  Uiso   1.00
H390   H     0.34778   0.64920   0.04625   0.00000  Uiso   1.00
H391   H     0.51853   0.47647   0.38864   0.00000  Uiso   1.00
H392   H     0.61806   0.46602   0.10567   0.00000  Uiso   1.00
H393   H     0.37767   0.51612   0.39784   0.00000  Uiso   1.00
H394   H     0.42319   0.49290   0.09272   0.00000  Uiso   1.00
H395   H     0.55407   0.43915   0.42148   0.00000  Uiso   1.00
H396   H     0.57928   0.62904   0.22407   0.00000  Uiso   1.00
N397   N     0.38093   0.50001   0.25001   0.00000  Uiso   1.00
N398   N     0.61907   0.49999   0.24999   0.00000  Uiso   1.00
O399   O     0.46179   0.56108   0.25001   0.00000  Uiso   1.00
O400   O     0.64600   0.43339   0.02197   0.00000  Uiso   1.00
O401   O     0.53821   0.43892   0.25000   0.00000  Uiso   1.00
O402   O     0.53823   0.56107   0.25000   0.00000  Uiso   1.00
O403   O     0.46177   0.43893   0.25000   0.00000  Uiso   1.00
O404   O     0.43994   0.50001   0.31613   0.00000  Uiso   1.00
O405   O     0.56006   0.49999   0.18388   0.00000  Uiso   1.00
O406   O     0.51639   0.50000   0.31612   0.00000  Uiso   1.00
O407   O     0.48361   0.50000   0.18388   0.00000  Uiso   1.00
O408   O     0.33811   0.51984   0.49186   0.00000  Uiso   1.00
Zn409  Zn    0.44896   0.50001   0.25000   0.00000  Uiso   1.00
Zn410  Zn    0.55104   0.49999   0.25000   0.00000  Uiso   1.00
C411   C     0.83340   0.58003   0.24986   0.00000  Uiso   1.00
C412   C     0.78902   0.64529   0.26331   0.00000  Uiso   1.00
C413   C     0.83349   0.37584   0.24938   0.00000  Uiso   1.00
C414   C     0.83350   0.62418   0.24951   0.00000  Uiso   1.00
C415   C     0.98803   0.47587   0.21924   0.00000  Uiso   1.00
C416   C     0.67865   0.52416   0.28072   0.00000  Uiso   1.00
C417   C     0.70264   0.47586   0.21927   0.00000  Uiso   1.00
C418   C     0.96404   0.52417   0.28069   0.00000  Uiso   1.00
C419   C     0.80289   0.49948   0.33803   0.00000  Uiso   1.00
C420   C     0.86368   0.49929   0.16196   0.00000  Uiso   1.00
C421   C     0.78352   0.49677   0.38874   0.00000  Uiso   1.00
C422   C     0.83339   0.41997   0.24978   0.00000  Uiso   1.00
C423   C     0.88124   0.49068   0.11216   0.00000  Uiso   1.00
C424   C     0.71893   0.50846   0.46424   0.00000  Uiso   1.00
C425   C     0.93514   0.45311   0.04470   0.00000  Uiso   1.00
C426   C     0.73527   0.50753   0.41530   0.00000  Uiso   1.00
C427   C     0.92539   0.47015   0.08892   0.00000  Uiso   1.00
C428   C     0.81464   0.48358   0.41039   0.00000  Uiso   1.00
C429   C     0.84801   0.49593   0.09053   0.00000  Uiso   1.00
C430   C     0.79918   0.48195   0.45882   0.00000  Uiso   1.00
C431   C     0.85527   0.47744   0.04780   0.00000  Uiso   1.00
C432   C     0.75109   0.49559   0.48593   0.00000  Uiso   1.00
C433   C     0.77007   0.49054   0.05518   0.00000  Uiso   1.00
C434   C     0.90065   0.45789   0.02326   0.00000  Uiso   1.00
C435   C     0.83189   0.47047   0.48068   0.00000  Uiso   1.00
C436   C     0.81896   0.47968   0.02834   0.00000  Uiso   1.00
C437   C     0.99046   0.55702   0.47598   0.00000  Uiso   1.00
C438   C     0.94749   0.57587   0.01587   0.00000  Uiso   1.00
C439   C     0.93016   0.61624   0.00100   0.00000  Uiso   1.00
C440   C     0.97415   0.39003   0.03094   0.00000  Uiso   1.00
C441   C     0.99033   0.37856   0.07110   0.00000  Uiso   1.00
C442   C     0.98959   0.66484   0.07835   0.00000  Uiso   1.00
C443   C     0.87731   0.45079   0.45654   0.00000  Uiso   1.00
C444   C     0.73656   0.49764   0.03434   0.00000  Uiso   1.00
C445   C     0.91059   0.44384   0.47791   0.00000  Uiso   1.00
C446   C     0.87802   0.64537   0.23534   0.00000  Uiso   1.00
C447   C     0.78901   0.35463   0.26324   0.00000  Uiso   1.00
C448   C     0.87802   0.35474   0.23525   0.00000  Uiso   1.00
H449   H     0.69978   0.50663   0.05626   0.00000  Uiso   1.00
H450   H     0.75440   0.37092   0.27449   0.00000  Uiso   1.00
H451   H     0.91261   0.37114   0.22391   0.00000  Uiso   1.00
H452   H     0.75441   0.62893   0.27461   0.00000  Uiso   1.00
H453   H     0.97946   0.45659   0.19465   0.00000  Uiso   1.00
H454   H     0.68723   0.54347   0.30528   0.00000  Uiso   1.00
H455   H     0.73039   0.45654   0.19469   0.00000  Uiso   1.00
H456   H     0.93632   0.54354   0.30521   0.00000  Uiso   1.00
H457   H     0.97819   0.54999   0.44687   0.00000  Uiso   1.00
H458   H     0.68739   0.58033   0.46442   0.00000  Uiso   1.00
H459   H     0.91676   0.55332   0.02733   0.00000  Uiso   1.00
H460   H     0.94475   0.42850   0.45824   0.00000  Uiso   1.00
H461   H     0.95858   0.58218   0.04584   0.00000  Uiso   1.00
H462   H     0.96043   0.63922   0.48882   0.00000  Uiso   1.00
H463   H     0.89982   0.62967   0.03108   0.00000  Uiso   1.00
H464   H     0.91681   0.61009   0.47246   0.00000  Uiso   1.00
H465   H     0.99851   0.37395   0.49893   0.00000  Uiso   1.00
H466   H     0.93648   0.37807   0.03806   0.00000  Uiso   1.00
H467   H     0.69457   0.39047   0.06341   0.00000  Uiso   1.00
H468   H     0.96545   0.39308   0.10392   0.00000  Uiso   1.00
H469   H     0.95195   0.65260   0.08754   0.00000  Uiso   1.00
H470   H     0.66857   0.65755   0.10733   0.00000  Uiso   1.00
H471   H     0.81605   0.51469   0.10802   0.00000  Uiso   1.00
H472   H     0.68112   0.64920   0.04625   0.00000  Uiso   1.00
H473   H     0.85187   0.47647   0.38864   0.00000  Uiso   1.00
H474   H     0.95139   0.46602   0.10567   0.00000  Uiso   1.00
H475   H     0.71100   0.51612   0.39784   0.00000  Uiso   1.00
H476   H     0.75652   0.49290   0.09272   0.00000  Uiso   1.00
H477   H     0.88740   0.43915   0.42148   0.00000  Uiso   1.00
H478   H     0.91261   0.62904   0.22407   0.00000  Uiso   1.00
N479   N     0.71426   0.50001   0.25001   0.00000  Uiso   1.00
N480   N     0.95241   0.49999   0.24999   0.00000  Uiso   1.00
O481   O     0.79512   0.56108   0.25001   0.00000  Uiso   1.00
O482   O     0.97933   0.43339   0.02197   0.00000  Uiso   1.00
O483   O     0.87154   0.43892   0.25000   0.00000  Uiso   1.00
O484   O     0.87157   0.56107   0.25000   0.00000  Uiso   1.00
O485   O     0.79510   0.43893   0.25000   0.00000  Uiso   1.00
O486   O     0.77328   0.50001   0.31613   0.00000  Uiso   1.00
O487   O     0.89339   0.49999   0.18388   0.00000  Uiso   1.00
O488   O     0.84972   0.50000   0.31612   0.00000  Uiso   1.00
O489   O     0.81695   0.50000   0.18388   0.00000  Uiso   1.00
O490   O     0.67145   0.51984   0.49186   0.00000  Uiso   1.00
Zn491  Zn    0.78229   0.50001   0.25000   0.00000  Uiso   1.00
Zn492  Zn    0.88438   0.49999   0.25000   0.00000  Uiso   1.00
C493   C     0.16674   0.91337   0.24986   0.00000  Uiso   1.00
C494   C     0.12235   0.97863   0.26331   0.00000  Uiso   1.00
C495   C     0.16683   0.70917   0.24938   0.00000  Uiso   1.00
C496   C     0.16684   0.95751   0.24951   0.00000  Uiso   1.00
C497   C     0.32136   0.80920   0.21924   0.00000  Uiso   1.00
C498   C     0.01198   0.85749   0.28072   0.00000  Uiso   1.00
C499   C     0.03598   0.80920   0.21927   0.00000  Uiso   1.00
C500   C     0.29738   0.85751   0.28069   0.00000  Uiso   1.00
C501   C     0.13622   0.83282   0.33803   0.00000  Uiso   1.00
C502   C     0.19701   0.83263   0.16196   0.00000  Uiso   1.00
C503   C     0.11685   0.83010   0.38874   0.00000  Uiso   1.00
C504   C     0.16673   0.75330   0.24978   0.00000  Uiso   1.00
C505   C     0.21457   0.82401   0.11216   0.00000  Uiso   1.00
C506   C     0.05226   0.84179   0.46424   0.00000  Uiso   1.00
C507   C     0.26848   0.78644   0.04470   0.00000  Uiso   1.00
C508   C     0.06860   0.84086   0.41530   0.00000  Uiso   1.00
C509   C     0.25873   0.80348   0.08892   0.00000  Uiso   1.00
C510   C     0.14798   0.81692   0.41039   0.00000  Uiso   1.00
C511   C     0.18134   0.82926   0.09053   0.00000  Uiso   1.00
C512   C     0.13251   0.81528   0.45882   0.00000  Uiso   1.00
C513   C     0.18861   0.81078   0.04780   0.00000  Uiso   1.00
C514   C     0.08442   0.82893   0.48593   0.00000  Uiso   1.00
C515   C     0.10340   0.82388   0.05518   0.00000  Uiso   1.00
C516   C     0.23398   0.79122   0.02326   0.00000  Uiso   1.00
C517   C     0.16523   0.80380   0.48068   0.00000  Uiso   1.00
C518   C     0.15229   0.81301   0.02834   0.00000  Uiso   1.00
C519   C     0.32380   0.89035   0.47598   0.00000  Uiso   1.00
C520   C     0.28082   0.90920   0.01587   0.00000  Uiso   1.00
C521   C     0.26349   0.94957   0.00100   0.00000  Uiso   1.00
C522   C     0.30748   0.72337   0.03094   0.00000  Uiso   1.00
C523   C     0.32366   0.71189   0.07110   0.00000  Uiso   1.00
C524   C     0.32293   0.99817   0.07835   0.00000  Uiso   1.00
C525   C     0.21065   0.78413   0.45654   0.00000  Uiso   1.00
C526   C     0.06989   0.83097   0.03434   0.00000  Uiso   1.00
C527   C     0.24393   0.77718   0.47791   0.00000  Uiso   1.00
C528   C     0.21136   0.97870   0.23534   0.00000  Uiso   1.00
C529   C     0.12235   0.68796   0.26324   0.00000  Uiso   1.00
C530   C     0.21135   0.68807   0.23525   0.00000  Uiso   1.00
H531   H     0.03311   0.83996   0.05626   0.00000  Uiso   1.00
H532   H     0.08774   0.70426   0.27449   0.00000  Uiso   1.00
H533   H     0.24594   0.70447   0.22391   0.00000  Uiso   1.00
H534   H     0.08774   0.96226   0.27461   0.00000  Uiso   1.00
H535   H     0.31279   0.78992   0.19465   0.00000  Uiso   1.00
H536   H     0.02057   0.87680   0.30528   0.00000  Uiso   1.00
H537   H     0.06372   0.78988   0.19469   0.00000  Uiso   1.00
H538   H     0.26965   0.87687   0.30521   0.00000  Uiso   1.00
H539   H     0.31153   0.88333   0.44687   0.00000  Uiso   1.00
H540   H     0.02073   0.91367   0.46442   0.00000  Uiso   1.00
H541   H     0.25009   0.88665   0.02733   0.00000  Uiso   1.00
H542   H     0.27808   0.76183   0.45824   0.00000  Uiso   1.00
H543   H     0.29191   0.91551   0.04584   0.00000  Uiso   1.00
H544   H     0.29376   0.97255   0.48882   0.00000  Uiso   1.00
H545   H     0.23316   0.96301   0.03108   0.00000  Uiso   1.00
H546   H     0.25015   0.94343   0.47246   0.00000  Uiso   1.00
H547   H     0.33184   0.70729   0.49893   0.00000  Uiso   1.00
H548   H     0.26982   0.71140   0.03806   0.00000  Uiso   1.00
H549   H     0.02790   0.72380   0.06341   0.00000  Uiso   1.00
H550   H     0.29878   0.72642   0.10392   0.00000  Uiso   1.00
H551   H     0.28528   0.98594   0.08754   0.00000  Uiso   1.00
H552   H     0.00191   0.99088   0.10733   0.00000  Uiso   1.00
H553   H     0.14939   0.84803   0.10802   0.00000  Uiso   1.00
H554   H     0.01445   0.98253   0.04625   0.00000  Uiso   1.00
H555   H     0.18520   0.80980   0.38864   0.00000  Uiso   1.00
H556   H     0.28473   0.79936   0.10567   0.00000  Uiso   1.00
H557   H     0.04434   0.84946   0.39784   0.00000  Uiso   1.00
H558   H     0.08986   0.82624   0.09272   0.00000  Uiso   1.00
H559   H     0.22074   0.77248   0.42148   0.00000  Uiso   1.00
H560   H     0.24595   0.96238   0.22407   0.00000  Uiso   1.00
N561   N     0.04759   0.83334   0.25001   0.00000  Uiso   1.00
N562   N     0.28574   0.83332   0.24999   0.00000  Uiso   1.00
O563   O     0.12846   0.89442   0.25001   0.00000  Uiso   1.00
O564   O     0.31267   0.76673   0.02197   0.00000  Uiso   1.00
O565   O     0.20488   0.77225   0.25000   0.00000  Uiso   1.00
O566   O     0.20490   0.89441   0.25000   0.00000  Uiso   1.00
O567   O     0.12843   0.77226   0.25000   0.00000  Uiso   1.00
O568   O     0.10661   0.83334   0.31613   0.00000  Uiso   1.00
O569   O     0.22672   0.83333   0.18388   0.00000  Uiso   1.00
O570   O     0.18305   0.83333   0.31612   0.00000  Uiso   1.00
O571   O     0.15028   0.83334   0.18388   0.00000  Uiso   1.00
O572   O     0.00478   0.85318   0.49186   0.00000  Uiso   1.00
Zn573  Zn    0.11562   0.83334   0.25000   0.00000  Uiso   1.00
Zn574  Zn    0.21771   0.83333   0.25000   0.00000  Uiso   1.00
C575   C     0.50007   0.91337   0.24986   0.00000  Uiso   1.00
C576   C     0.45568   0.97863   0.26331   0.00000  Uiso   1.00
C577   C     0.50016   0.70917   0.24938   0.00000  Uiso   1.00
C578   C     0.50017   0.95751   0.24951   0.00000  Uiso   1.00
C579   C     0.65470   0.80920   0.21924   0.00000  Uiso   1.00
C580   C     0.34532   0.85749   0.28072   0.00000  Uiso   1.00
C581   C     0.36931   0.80920   0.21927   0.00000  Uiso   1.00
C582   C     0.63071   0.85751   0.28069   0.00000  Uiso   1.00
C583   C     0.46955   0.83282   0.33803   0.00000  Uiso   1.00
C584   C     0.53035   0.83263   0.16196   0.00000  Uiso   1.00
C585   C     0.45018   0.83010   0.38874   0.00000  Uiso   1.00
C586   C     0.50006   0.75330   0.24978   0.00000  Uiso   1.00
C587   C     0.54791   0.82401   0.11216   0.00000  Uiso   1.00
C588   C     0.38560   0.84179   0.46424   0.00000  Uiso   1.00
C589   C     0.60181   0.78644   0.04470   0.00000  Uiso   1.00
C590   C     0.40194   0.84086   0.41530   0.00000  Uiso   1.00
C591   C     0.59206   0.80348   0.08892   0.00000  Uiso   1.00
C592   C     0.48131   0.81692   0.41039   0.00000  Uiso   1.00
C593   C     0.51467   0.82926   0.09053   0.00000  Uiso   1.00
C594   C     0.46584   0.81528   0.45882   0.00000  Uiso   1.00
C595   C     0.52194   0.81078   0.04780   0.00000  Uiso   1.00
C596   C     0.41776   0.82893   0.48593   0.00000  Uiso   1.00
C597   C     0.43673   0.82388   0.05518   0.00000  Uiso   1.00
C598   C     0.56732   0.79122   0.02326   0.00000  Uiso   1.00
C599   C     0.49856   0.80380   0.48068   0.00000  Uiso   1.00
C600   C     0.48562   0.81301   0.02834   0.00000  Uiso   1.00
C601   C     0.65713   0.89035   0.47598   0.00000  Uiso   1.00
C602   C     0.61415   0.90920   0.01587   0.00000  Uiso   1.00
C603   C     0.59683   0.94957   0.00100   0.00000  Uiso   1.00
C604   C     0.64081   0.72337   0.03094   0.00000  Uiso   1.00
C605   C     0.65699   0.71189   0.07110   0.00000  Uiso   1.00
C606   C     0.65626   0.99817   0.07835   0.00000  Uiso   1.00
C607   C     0.54398   0.78413   0.45654   0.00000  Uiso   1.00
C608   C     0.40322   0.83097   0.03434   0.00000  Uiso   1.00
C609   C     0.57726   0.77718   0.47791   0.00000  Uiso   1.00
C610   C     0.54469   0.97870   0.23534   0.00000  Uiso   1.00
C611   C     0.45568   0.68796   0.26324   0.00000  Uiso   1.00
C612   C     0.54469   0.68807   0.23525   0.00000  Uiso   1.00
H613   H     0.36645   0.83996   0.05626   0.00000  Uiso   1.00
H614   H     0.42107   0.70426   0.27449   0.00000  Uiso   1.00
H615   H     0.57928   0.70447   0.22391   0.00000  Uiso   1.00
H616   H     0.42107   0.96226   0.27461   0.00000  Uiso   1.00
H617   H     0.64613   0.78992   0.19465   0.00000  Uiso   1.00
H618   H     0.35390   0.87680   0.30528   0.00000  Uiso   1.00
H619   H     0.39705   0.78988   0.19469   0.00000  Uiso   1.00
H620   H     0.60299   0.87687   0.30521   0.00000  Uiso   1.00
H621   H     0.64486   0.88333   0.44687   0.00000  Uiso   1.00
H622   H     0.35406   0.91367   0.46442   0.00000  Uiso   1.00
H623   H     0.58342   0.88665   0.02733   0.00000  Uiso   1.00
H624   H     0.61142   0.76183   0.45824   0.00000  Uiso   1.00
H625   H     0.62524   0.91551   0.04584   0.00000  Uiso   1.00
H626   H     0.62709   0.97255   0.48882   0.00000  Uiso   1.00
H627   H     0.56649   0.96301   0.03108   0.00000  Uiso   1.00
H628   H     0.58348   0.94343   0.47246   0.00000  Uiso   1.00
H629   H     0.66518   0.70729   0.49893   0.00000  Uiso   1.00
H630   H     0.60315   0.71140   0.03806   0.00000  Uiso   1.00
H631   H     0.36124   0.72380   0.06341   0.00000  Uiso   1.00
H632   H     0.63212   0.72642   0.10392   0.00000  Uiso   1.00
H633   H     0.61862   0.98594   0.08754   0.00000  Uiso   1.00
H634   H     0.33524   0.99088   0.10733   0.00000  Uiso   1.00
H635   H     0.48272   0.84803   0.10802   0.00000  Uiso   1.00
H636   H     0.34778   0.98253   0.04625   0.00000  Uiso   1.00
H637   H     0.51853   0.80980   0.38864   0.00000  Uiso   1.00
H638   H     0.61806   0.79936   0.10567   0.00000  Uiso   1.00
H639   H     0.37767   0.84946   0.39784   0.00000  Uiso   1.00
H640   H     0.42319   0.82624   0.09272   0.00000  Uiso   1.00
H641   H     0.55407   0.77248   0.42148   0.00000  Uiso   1.00
H642   H     0.57928   0.96238   0.22407   0.00000  Uiso   1.00
N643   N     0.38093   0.83334   0.25001   0.00000  Uiso   1.00
N644   N     0.61907   0.83332   0.24999   0.00000  Uiso   1.00
O645   O     0.46179   0.89442   0.25001   0.00000  Uiso   1.00
O646   O     0.64600   0.76673   0.02197   0.00000  Uiso   1.00
O647   O     0.53821   0.77225   0.25000   0.00000  Uiso   1.00
O648   O     0.53823   0.89441   0.25000   0.00000  Uiso   1.00
O649   O     0.46177   0.77226   0.25000   0.00000  Uiso   1.00
O650   O     0.43994   0.83334   0.31613   0.00000  Uiso   1.00
O651   O     0.56006   0.83333   0.18388   0.00000  Uiso   1.00
O652   O     0.51639   0.83333   0.31612   0.00000  Uiso   1.00
O653   O     0.48361   0.83334   0.18388   0.00000  Uiso   1.00
O654   O     0.33811   0.85318   0.49186   0.00000  Uiso   1.00
Zn655  Zn    0.44896   0.83334   0.25000   0.00000  Uiso   1.00
Zn656  Zn    0.55104   0.83333   0.25000   0.00000  Uiso   1.00
C657   C     0.83340   0.91337   0.24986   0.00000  Uiso   1.00
C658   C     0.78902   0.97863   0.26331   0.00000  Uiso   1.00
C659   C     0.83349   0.70917   0.24938   0.00000  Uiso   1.00
C660   C     0.83350   0.95751   0.24951   0.00000  Uiso   1.00
C661   C     0.98803   0.80920   0.21924   0.00000  Uiso   1.00
C662   C     0.67865   0.85749   0.28072   0.00000  Uiso   1.00
C663   C     0.70264   0.80920   0.21927   0.00000  Uiso   1.00
C664   C     0.96404   0.85751   0.28069   0.00000  Uiso   1.00
C665   C     0.80289   0.83282   0.33803   0.00000  Uiso   1.00
C666   C     0.86368   0.83263   0.16196   0.00000  Uiso   1.00
C667   C     0.78352   0.83010   0.38874   0.00000  Uiso   1.00
C668   C     0.83339   0.75330   0.24978   0.00000  Uiso   1.00
C669   C     0.88124   0.82401   0.11216   0.00000  Uiso   1.00
C670   C     0.71893   0.84179   0.46424   0.00000  Uiso   1.00
C671   C     0.93514   0.78644   0.04470   0.00000  Uiso   1.00
C672   C     0.73527   0.84086   0.41530   0.00000  Uiso   1.00
C673   C     0.92539   0.80348   0.08892   0.00000  Uiso   1.00
C674   C     0.81464   0.81692   0.41039   0.00000  Uiso   1.00
C675   C     0.84801   0.82926   0.09053   0.00000  Uiso   1.00
C676   C     0.79918   0.81528   0.45882   0.00000  Uiso   1.00
C677   C     0.85527   0.81078   0.04780   0.00000  Uiso   1.00
C678   C     0.75109   0.82893   0.48593   0.00000  Uiso   1.00
C679   C     0.77007   0.82388   0.05518   0.00000  Uiso   1.00
C680   C     0.90065   0.79122   0.02326   0.00000  Uiso   1.00
C681   C     0.83189   0.80380   0.48068   0.00000  Uiso   1.00
C682   C     0.81896   0.81301   0.02834   0.00000  Uiso   1.00
C683   C     0.99046   0.89035   0.47598   0.00000  Uiso   1.00
C684   C     0.94749   0.90920   0.01587   0.00000  Uiso   1.00
C685   C     0.93016   0.94957   0.00100   0.00000  Uiso   1.00
C686   C     0.97415   0.72337   0.03094   0.00000  Uiso   1.00
C687   C     0.99033   0.71189   0.07110   0.00000  Uiso   1.00
C688   C     0.98959   0.99817   0.07835   0.00000  Uiso   1.00
C689   C     0.87731   0.78413   0.45654   0.00000  Uiso   1.00
C690   C     0.73656   0.83097   0.03434   0.00000  Uiso   1.00
C691   C     0.91059   0.77718   0.47791   0.00000  Uiso   1.00
C692   C     0.87802   0.97870   0.23534   0.00000  Uiso   1.00
C693   C     0.78901   0.68796   0.26324   0.00000  Uiso   1.00
C694   C     0.87802   0.68807   0.23525   0.00000  Uiso   1.00
H695   H     0.69978   0.83996   0.05626   0.00000  Uiso   1.00
H696   H     0.75440   0.70426   0.27449   0.00000  Uiso   1.00
H697   H     0.91261   0.70447   0.22391   0.00000  Uiso   1.00
H698   H     0.75441   0.96226   0.27461   0.00000  Uiso   1.00
H699   H     0.97946   0.78992   0.19465   0.00000  Uiso   1.00
H700   H     0.68723   0.87680   0.30528   0.00000  Uiso   1.00
H701   H     0.73039   0.78988   0.19469   0.00000  Uiso   1.00
H702   H     0.93632   0.87687   0.30521   0.00000  Uiso   1.00
H703   H     0.97819   0.88333   0.44687   0.00000  Uiso   1.00
H704   H     0.68739   0.91367   0.46442   0.00000  Uiso   1.00
H705   H     0.91676   0.88665   0.02733   0.00000  Uiso   1.00
H706   H     0.94475   0.76183   0.45824   0.00000  Uiso   1.00
H707   H     0.95858   0.91551   0.04584   0.00000  Uiso   1.00
H708   H     0.96043   0.97255   0.48882   0.00000  Uiso   1.00
H709   H     0.89982   0.96301   0.03108   0.00000  Uiso   1.00
H710   H     0.91681   0.94343   0.47246   0.00000  Uiso   1.00
H711   H     0.99851   0.70729   0.49893   0.00000  Uiso   1.00
H712   H     0.93648   0.71140   0.03806   0.00000  Uiso   1.00
H713   H     0.69457   0.72380   0.06341   0.00000  Uiso   1.00
H714   H     0.96545   0.72642   0.10392   0.00000  Uiso   1.00
H715   H     0.95195   0.98594   0.08754   0.00000  Uiso   1.00
H716   H     0.66857   0.99088   0.10733   0.00000  Uiso   1.00
H717   H     0.81605   0.84803   0.10802   0.00000  Uiso   1.00
H718   H     0.68112   0.98253   0.04625   0.00000  Uiso   1.00
H719   H     0.85187   0.80980   0.38864   0.00000  Uiso   1.00
H720   H     0.95139   0.79936   0.10567   0.00000  Uiso   1.00
H721   H     0.71100   0.84946   0.39784   0.00000  Uiso   1.00
H722   H     0.75652   0.82624   0.09272   0.00000  Uiso   1.00
H723   H     0.88740   0.77248   0.42148   0.00000  Uiso   1.00
H724   H     0.91261   0.96238   0.22407   0.00000  Uiso   1.00
N725   N     0.71426   0.83334   0.25001   0.00000  Uiso   1.00
N726   N     0.95241   0.83332   0.24999   0.00000  Uiso   1.00
O727   O     0.79512   0.89442   0.25001   0.00000  Uiso   1.00
O728   O     0.97933   0.76673   0.02197   0.00000  Uiso   1.00
O729   O     0.87154   0.77225   0.25000   0.00000  Uiso   1.00
O730   O     0.87157   0.89441   0.25000   0.00000  Uiso   1.00
O731   O     0.79510   0.77226   0.25000   0.00000  Uiso   1.00
O732   O     0.77328   0.83334   0.31613   0.00000  Uiso   1.00
O733   O     0.89339   0.83333   0.18388   0.00000  Uiso   1.00
O734   O     0.84972   0.83333   0.31612   0.00000  Uiso   1.00
O735   O     0.81695   0.83334   0.18388   0.00000  Uiso   1.00
O736   O     0.67145   0.85318   0.49186   0.00000  Uiso   1.00
Zn737  Zn    0.78229   0.83334   0.25000   0.00000  Uiso   1.00
Zn738  Zn    0.88438   0.83333   0.25000   0.00000  Uiso   1.00
C739   C     0.16674   0.24670   0.74986   0.00000  Uiso   1.00
C740   C     0.12235   0.31196   0.76331   0.00000  Uiso   1.00
C741   C     0.16683   0.04250   0.74938   0.00000  Uiso   1.00
C742   C     0.16684   0.29084   0.74951   0.00000  Uiso   1.00
C743   C     0.32136   0.14253   0.71924   0.00000  Uiso   1.00
C744   C     0.01198   0.19083   0.78072   0.00000  Uiso   1.00
C745   C     0.03598   0.14253   0.71927   0.00000  Uiso   1.00
C746   C     0.29738   0.19084   0.78069   0.00000  Uiso   1.00
C747   C     0.13622   0.16615   0.83803   0.00000  Uiso   1.00
C748   C     0.19701   0.16596   0.66196   0.00000  Uiso   1.00
C749   C     0.11685   0.16344   0.88874   0.00000  Uiso   1.00
C750   C     0.16673   0.08664   0.74978   0.00000  Uiso   1.00
C751   C     0.21457   0.15734   0.61216   0.00000  Uiso   1.00
C752   C     0.05226   0.17513   0.96424   0.00000  Uiso   1.00
C753   C     0.26848   0.11977   0.54470   0.00000  Uiso   1.00
C754   C     0.06860   0.17419   0.91530   0.00000  Uiso   1.00
C755   C     0.25873   0.13682   0.58892   0.00000  Uiso   1.00
C756   C     0.14798   0.15025   0.91039   0.00000  Uiso   1.00
C757   C     0.18134   0.16259   0.59053   0.00000  Uiso   1.00
C758   C     0.13251   0.14862   0.95882   0.00000  Uiso   1.00
C759   C     0.18861   0.14411   0.54780   0.00000  Uiso   1.00
C760   C     0.08442   0.16226   0.98593   0.00000  Uiso   1.00
C761   C     0.10340   0.15721   0.55518   0.00000  Uiso   1.00
C762   C     0.23398   0.12455   0.52326   0.00000  Uiso   1.00
C763   C     0.16523   0.13713   0.98068   0.00000  Uiso   1.00
C764   C     0.15229   0.14634   0.52834   0.00000  Uiso   1.00
C765   C     0.32380   0.22368   0.97598   0.00000  Uiso   1.00
C766   C     0.28082   0.24253   0.51587   0.00000  Uiso   1.00
C767   C     0.26349   0.28291   0.50100   0.00000  Uiso   1.00
C768   C     0.30748   0.05670   0.53094   0.00000  Uiso   1.00
C769   C     0.32366   0.04523   0.57110   0.00000  Uiso   1.00
C770   C     0.32293   0.33150   0.57835   0.00000  Uiso   1.00
C771   C     0.21065   0.11746   0.95654   0.00000  Uiso   1.00
C772   C     0.06989   0.16430   0.53434   0.00000  Uiso   1.00
C773   C     0.24393   0.11051   0.97791   0.00000  Uiso   1.00
C774   C     0.21136   0.31203   0.73534   0.00000  Uiso   1.00
C775   C     0.12235   0.02130   0.76324   0.00000  Uiso   1.00
C776   C     0.21135   0.02140   0.73525   0.00000  Uiso   1.00
H777   H     0.03311   0.17330   0.55626   0.00000  Uiso   1.00
H778   H     0.08774   0.03759   0.77449   0.00000  Uiso   1.00
H779   H     0.24594   0.03780   0.72391   0.00000  Uiso   1.00
H780   H     0.08774   0.29560   0.77461   0.00000  Uiso   1.00
H781   H     0.31279   0.12325   0.69465   0.00000  Uiso   1.00
H782   H     0.02057   0.21013   0.80528   0.00000  Uiso   1.00
H783   H     0.06372   0.12321   0.69469   0.00000  Uiso   1.00
H784   H     0.26965   0.21021   0.80521   0.00000  Uiso   1.00
H785   H     0.31153   0.21666   0.94687   0.00000  Uiso   1.00
H786   H     0.02073   0.24700   0.96442   0.00000  Uiso   1.00
H787   H     0.25009   0.21998   0.52733   0.00000  Uiso   1.00
H788   H     0.27808   0.09516   0.95824   0.00000  Uiso   1.00
H789   H     0.29191   0.24884   0.54584   0.00000  Uiso   1.00
H790   H     0.29376   0.30589   0.98882   0.00000  Uiso   1.00
H791   H     0.23316   0.29634   0.53108   0.00000  Uiso   1.00
H792   H     0.25015   0.27676   0.97246   0.00000  Uiso   1.00
H793   H     0.33184   0.04062   0.99893   0.00000  Uiso   1.00
H794   H     0.26982   0.04473   0.53806   0.00000  Uiso   1.00
H795   H     0.02790   0.05713   0.56341   0.00000  Uiso   1.00
H796   H     0.29878   0.05975   0.60392   0.00000  Uiso   1.00
H797   H     0.28528   0.31927   0.58754   0.00000  Uiso   1.00
H798   H     0.00191   0.32421   0.60733   0.00000  Uiso   1.00
H799   H     0.14939   0.18136   0.60802   0.00000  Uiso   1.00
H800   H     0.01445   0.31587   0.54625   0.00000  Uiso   1.00
H801   H     0.18520   0.14313   0.88864   0.00000  Uiso   1.00
H802   H     0.28473   0.13269   0.60567   0.00000  Uiso   1.00
H803   H     0.04434   0.18279   0.89784   0.00000  Uiso   1.00
H804   H     0.08986   0.15957   0.59272   0.00000  Uiso   1.00
H805   H     0.22074   0.10581   0.92148   0.00000  Uiso   1.00
H806   H     0.24595   0.29571   0.72407   0.00000  Uiso   1.00
N807   N     0.04759   0.16668   0.75001   0.00000  Uiso   1.00
N808   N     0.28574   0.16666   0.74999   0.00000  Uiso   1.00
O809   O     0.12846   0.22775   0.75001   0.00000  Uiso   1.00
O810   O     0.31267   0.10006   0.52197   0.00000  Uiso   1.00
O811   O     0.20488   0.10558   0.75000   0.00000  Uiso   1.00
O812   O     0.20490   0.22774   0.75000   0.00000  Uiso   1.00
O813   O     0.12843   0.10559   0.75000   0.00000  Uiso   1.00
O814   O     0.10661   0.16667   0.81613   0.00000  Uiso   1.00
O815   O     0.22672   0.16666   0.68388   0.00000  Uiso   1.00
O816   O     0.18305   0.16666   0.81612   0.00000  Uiso   1.00
O817   O     0.15028   0.16667   0.68388   0.00000  Uiso   1.00
O818   O     0.00478   0.18651   0.99186   0.00000  Uiso   1.00
Zn819  Zn    0.11562   0.16667   0.75000   0.00000  Uiso   1.00
Zn820  Zn    0.21771   0.16666   0.75000   0.00000  Uiso   1.00
C821   C     0.50007   0.24670   0.74986   0.00000  Uiso   1.00
C822   C     0.45568   0.31196   0.76331   0.00000  Uiso   1.00
C823   C     0.50016   0.04250   0.74938   0.00000  Uiso   1.00
C824   C     0.50017   0.29084   0.74951   0.00000  Uiso   1.00
C825   C     0.65470   0.14253   0.71924   0.00000  Uiso   1.00
C826   C     0.34532   0.19083   0.78072   0.00000  Uiso   1.00
C827   C     0.36931   0.14253   0.71927   0.00000  Uiso   1.00
C828   C     0.63071   0.19084   0.78069   0.00000  Uiso   1.00
C829   C     0.46955   0.16615   0.83803   0.00000  Uiso   1.00
C830   C     0.53035   0.16596   0.66196   0.00000  Uiso   1.00
C831   C     0.45018   0.16344   0.88874   0.00000  Uiso   1.00
C832   C     0.50006   0.08664   0.74978   0.00000  Uiso   1.00
C833   C     0.54791   0.15734   0.61216   0.00000  Uiso   1.00
C834   C     0.38560   0.17513   0.96424   0.00000  Uiso   1.00
C835   C     0.60181   0.11977   0.54470   0.00000  Uiso   1.00
C836   C     0.40194   0.17419   0.91530   0.00000  Uiso   1.00
C837   C     0.59206   0.13682   0.58892   0.00000  Uiso   1.00
C838   C     0.48131   0.15025   0.91039   0.00000  Uiso   1.00
C839   C     0.51467   0.16259   0.59053   0.00000  Uiso   1.00
C840   C     0.46584   0.14862   0.95882   0.00000  Uiso   1.00
C841   C     0.52194   0.14411   0.54780   0.00000  Uiso   1.00
C842   C     0.41776   0.16226   0.98593   0.00000  Uiso   1.00
C843   C     0.43673   0.15721   0.55518   0.00000  Uiso   1.00
C844   C     0.56732   0.12455   0.52326   0.00000  Uiso   1.00
C845   C     0.49856   0.13713   0.98068   0.00000  Uiso   1.00
C846   C     0.48562   0.14634   0.52834   0.00000  Uiso   1.00
C847   C     0.65713   0.22368   0.97598   0.00000  Uiso   1.00
C848   C     0.61415   0.24253   0.51587   0.00000  Uiso   1.00
C849   C     0.59683   0.28291   0.50100   0.00000  Uiso   1.00
C850   C     0.64081   0.05670   0.53094   0.00000  Uiso   1.00
C851   C     0.65699   0.04523   0.57110   0.00000  Uiso   1.00
C852   C     0.65626   0.33150   0.57835   0.00000  Uiso   1.00
C853   C     0.54398   0.11746   0.95654   0.00000  Uiso   1.00
C854   C     0.40322   0.16430   0.53434   0.00000  Uiso   1.00
C855   C     0.57726   0.11051   0.97791   0.00000  Uiso   1.00
C856   C     0.54469   0.31203   0.73534   0.00000  Uiso   1.00
C857   C     0.45568   0.02130   0.76324   0.00000  Uiso   1.00
C858   C     0.54469   0.02140   0.73525   0.00000  Uiso   1.00
H859   H     0.36645   0.17330   0.55626   0.00000  Uiso   1.00
H860   H     0.42107   0.03759   0.77449   0.00000  Uiso   1.00
H861   H     0.57928   0.03780   0.72391   0.00000  Uiso   1.00
H862   H     0.42107   0.29560   0.77461   0.00000  Uiso   1.00
H863   H     0.64613   0.12325   0.69465   0.00000  Uiso   1.00
H864   H     0.35390   0.21013   0.80528   0.00000  Uiso   1.00
H865   H     0.39705   0.12321   0.69469   0.00000  Uiso   1.00
H866   H     0.60299   0.21021   0.80521   0.00000  Uiso   1.00
H867   H     0.64486   0.21666   0.94687   0.00000  Uiso   1.00
H868   H     0.35406   0.24700   0.96442   0.00000  Uiso   1.00
H869   H     0.58342   0.21998   0.52733   0.00000  Uiso   1.00
H870   H     0.61142   0.09516   0.95824   0.00000  Uiso   1.00
H871   H     0.62524   0.24884   0.54584   0.00000  Uiso   1.00
H872   H     0.62709   0.30589   0.98882   0.00000  Uiso   1.00
H873   H     0.56649   0.29634   0.53108   0.00000  Uiso   1.00
H874   H     0.58348   0.27676   0.97246   0.00000  Uiso   1.00
H875   H     0.66518   0.04062   0.99893   0.00000  Uiso   1.00
H876   H     0.60315   0.04473   0.53806   0.00000  Uiso   1.00
H877   H     0.36124   0.05713   0.56341   0.00000  Uiso   1.00
H878   H     0.63212   0.05975   0.60392   0.00000  Uiso   1.00
H879   H     0.61862   0.31927   0.58754   0.00000  Uiso   1.00
H880   H     0.33524   0.32421   0.60733   0.00000  Uiso   1.00
H881   H     0.48272   0.18136   0.60802   0.00000  Uiso   1.00
H882   H     0.34778   0.31587   0.54625   0.00000  Uiso   1.00
H883   H     0.51853   0.14313   0.88864   0.00000  Uiso   1.00
H884   H     0.61806   0.13269   0.60567   0.00000  Uiso   1.00
H885   H     0.37767   0.18279   0.89784   0.00000  Uiso   1.00
H886   H     0.42319   0.15957   0.59272   0.00000  Uiso   1.00
H887   H     0.55407   0.10581   0.92148   0.00000  Uiso   1.00
H888   H     0.57928   0.29571   0.72407   0.00000  Uiso   1.00
N889   N     0.38093   0.16668   0.75001   0.00000  Uiso   1.00
N890   N     0.61907   0.16666   0.74999   0.00000  Uiso   1.00
O891   O     0.46179   0.22775   0.75001   0.00000  Uiso   1.00
O892   O     0.64600   0.10006   0.52197   0.00000  Uiso   1.00
O893   O     0.53821   0.10558   0.75000   0.00000  Uiso   1.00
O894   O     0.53823   0.22774   0.75000   0.00000  Uiso   1.00
O895   O     0.46177   0.10559   0.75000   0.00000  Uiso   1.00
O896   O     0.43994   0.16667   0.81613   0.00000  Uiso   1.00
O897   O     0.56006   0.16666   0.68388   0.00000  Uiso   1.00
O898   O     0.51639   0.16666   0.81612   0.00000  Uiso   1.00
O899   O     0.48361   0.16667   0.68388   0.00000  Uiso   1.00
O900   O     0.33811   0.18651   0.99186   0.00000  Uiso   1.00
Zn901  Zn    0.44896   0.16667   0.75000   0.00000  Uiso   1.00
Zn902  Zn    0.55104   0.16666   0.75000   0.00000  Uiso   1.00
C903   C     0.83340   0.24670   0.74986   0.00000  Uiso   1.00
C904   C     0.78902   0.31196   0.76331   0.00000  Uiso   1.00
C905   C     0.83349   0.04250   0.74938   0.00000  Uiso   1.00
C906   C     0.83350   0.29084   0.74951   0.00000  Uiso   1.00
C907   C     0.98803   0.14253   0.71924   0.00000  Uiso   1.00
C908   C     0.67865   0.19083   0.78072   0.00000  Uiso   1.00
C909   C     0.70264   0.14253   0.71927   0.00000  Uiso   1.00
C910   C     0.96404   0.19084   0.78069   0.00000  Uiso   1.00
C911   C     0.80289   0.16615   0.83803   0.00000  Uiso   1.00
C912   C     0.86368   0.16596   0.66196   0.00000  Uiso   1.00
C913   C     0.78352   0.16344   0.88874   0.00000  Uiso   1.00
C914   C     0.83339   0.08664   0.74978   0.00000  Uiso   1.00
C915   C     0.88124   0.15734   0.61216   0.00000  Uiso   1.00
C916   C     0.71893   0.17513   0.96424   0.00000  Uiso   1.00
C917   C     0.93514   0.11977   0.54470   0.00000  Uiso   1.00
C918   C     0.73527   0.17419   0.91530   0.00000  Uiso   1.00
C919   C     0.92539   0.13682   0.58892   0.00000  Uiso   1.00
C920   C     0.81464   0.15025   0.91039   0.00000  Uiso   1.00
C921   C     0.84801   0.16259   0.59053   0.00000  Uiso   1.00
C922   C     0.79918   0.14862   0.95882   0.00000  Uiso   1.00
C923   C     0.85527   0.14411   0.54780   0.00000  Uiso   1.00
C924   C     0.75109   0.16226   0.98593   0.00000  Uiso   1.00
C925   C     0.77007   0.15721   0.55518   0.00000  Uiso   1.00
C926   C     0.90065   0.12455   0.52326   0.00000  Uiso   1.00
C927   C     0.83189   0.13713   0.98068   0.00000  Uiso   1.00
C928   C     0.81896   0.14634   0.52834   0.00000  Uiso   1.00
C929   C     0.99046   0.22368   0.97598   0.00000  Uiso   1.00
C930   C     0.94749   0.24253   0.51587   0.00000  Uiso   1.00
C931   C     0.93016   0.28291   0.50100   0.00000  Uiso   1.00
C932   C     0.97415   0.05670   0.53094   0.00000  Uiso   1.00
C933   C     0.99033   0.04523   0.57110   0.00000  Uiso   1.00
C934   C     0.98959   0.33150   0.57835   0.00000  Uiso   1.00
C935   C     0.87731   0.11746   0.95654   0.00000  Uiso   1.00
C936   C     0.73656   0.16430   0.53434   0.00000  Uiso   1.00
C937   C     0.91059   0.11051   0.97791   0.00000  Uiso   1.00
C938   C     0.87802   0.31203   0.73534   0.00000  Uiso   1.00
C939   C     0.78901   0.02130   0.76324   0.00000  Uiso   1.00
C940   C     0.87802   0.02140   0.73525   0.00000  Uiso   1.00
H941   H     0.69978   0.17330   0.55626   0.00000  Uiso   1.00
H942   H     0.75440   0.03759   0.77449   0.00000  Uiso   1.00
H943   H     0.91261   0.03780   0.72391   0.00000  Uiso   1.00
H944   H     0.75441   0.29560   0.77461   0.00000  Uiso   1.00
H945   H     0.97946   0.12325   0.69465   0.00000  Uiso   1.00
H946   H     0.68723   0.21013   0.80528   0.00000  Uiso   1.00
H947   H     0.73039   0.12321   0.69469   0.00000  Uiso   1.00
H948   H     0.93632   0.21021   0.80521   0.00000  Uiso   1.00
H949   H     0.97819   0.21666   0.94687   0.00000  Uiso   1.00
H950   H     0.68739   0.24700   0.96442   0.00000  Uiso   1.00
H951   H     0.91676   0.21998   0.52733   0.00000  Uiso   1.00
H952   H     0.94475   0.09516   0.95824   0.00000  Uiso   1.00
H953   H     0.95858   0.24884   0.54584   0.00000  Uiso   1.00
H954   H     0.96043   0.30589   0.98882   0.00000  Uiso   1.00
H955   H     0.89982   0.29634   0.53108   0.00000  Uiso   1.00
H956   H     0.91681   0.27676   0.97246   0.00000  Uiso   1.00
H957   H     0.99851   0.04062   0.99893   0.00000  Uiso   1.00
H958   H     0.93648   0.04473   0.53806   0.00000  Uiso   1.00
H959   H     0.69457   0.05713   0.56341   0.00000  Uiso   1.00
H960   H     0.96545   0.05975   0.60392   0.00000  Uiso   1.00
H961   H     0.95195   0.31927   0.58754   0.00000  Uiso   1.00
H962   H     0.66857   0.32421   0.60733   0.00000  Uiso   1.00
H963   H     0.81605   0.18136   0.60802   0.00000  Uiso   1.00
H964   H     0.68112   0.31587   0.54625   0.00000  Uiso   1.00
H965   H     0.85187   0.14313   0.88864   0.00000  Uiso   1.00
H966   H     0.95139   0.13269   0.60567   0.00000  Uiso   1.00
H967   H     0.71100   0.18279   0.89784   0.00000  Uiso   1.00
H968   H     0.75652   0.15957   0.59272   0.00000  Uiso   1.00
H969   H     0.88740   0.10581   0.92148   0.00000  Uiso   1.00
H970   H     0.91261   0.29571   0.72407   0.00000  Uiso   1.00
N971   N     0.71426   0.16668   0.75001   0.00000  Uiso   1.00
N972   N     0.95241   0.16666   0.74999   0.00000  Uiso   1.00
O973   O     0.79512   0.22775   0.75001   0.00000  Uiso   1.00
O974   O     0.97933   0.10006   0.52197   0.00000  Uiso   1.00
O975   O     0.87154   0.10558   0.75000   0.00000  Uiso   1.00
O976   O     0.87157   0.22774   0.75000   0.00000  Uiso   1.00
O977   O     0.79510   0.10559   0.75000   0.00000  Uiso   1.00
O978   O     0.77328   0.16667   0.81613   0.00000  Uiso   1.00
O979   O     0.89339   0.16666   0.68388   0.00000  Uiso   1.00
O980   O     0.84972   0.16666   0.81612   0.00000  Uiso   1.00
O981   O     0.81695   0.16667   0.68388   0.00000  Uiso   1.00
O982   O     0.67145   0.18651   0.99186   0.00000  Uiso   1.00
Zn983  Zn    0.78229   0.16667   0.75000   0.00000  Uiso   1.00
Zn984  Zn    0.88438   0.16666   0.75000   0.00000  Uiso   1.00
C985   C     0.16674   0.58003   0.74986   0.00000  Uiso   1.00
C986   C     0.12235   0.64529   0.76331   0.00000  Uiso   1.00
C987   C     0.16683   0.37584   0.74938   0.00000  Uiso   1.00
C988   C     0.16684   0.62418   0.74951   0.00000  Uiso   1.00
C989   C     0.32136   0.47587   0.71924   0.00000  Uiso   1.00
C990   C     0.01198   0.52416   0.78072   0.00000  Uiso   1.00
C991   C     0.03598   0.47586   0.71927   0.00000  Uiso   1.00
C992   C     0.29738   0.52417   0.78069   0.00000  Uiso   1.00
C993   C     0.13622   0.49948   0.83803   0.00000  Uiso   1.00
C994   C     0.19701   0.49929   0.66196   0.00000  Uiso   1.00
C995   C     0.11685   0.49677   0.88874   0.00000  Uiso   1.00
C996   C     0.16673   0.41997   0.74978   0.00000  Uiso   1.00
C997   C     0.21457   0.49068   0.61216   0.00000  Uiso   1.00
C998   C     0.05226   0.50846   0.96424   0.00000  Uiso   1.00
C999   C     0.26848   0.45311   0.54470   0.00000  Uiso   1.00
C1000  C     0.06860   0.50753   0.91530   0.00000  Uiso   1.00
C1001  C     0.25873   0.47015   0.58892   0.00000  Uiso   1.00
C1002  C     0.14798   0.48358   0.91039   0.00000  Uiso   1.00
C1003  C     0.18134   0.49593   0.59053   0.00000  Uiso   1.00
C1004  C     0.13251   0.48195   0.95882   0.00000  Uiso   1.00
C1005  C     0.18861   0.47744   0.54780   0.00000  Uiso   1.00
C1006  C     0.08442   0.49559   0.98593   0.00000  Uiso   1.00
C1007  C     0.10340   0.49054   0.55518   0.00000  Uiso   1.00
C1008  C     0.23398   0.45789   0.52326   0.00000  Uiso   1.00
C1009  C     0.16523   0.47047   0.98068   0.00000  Uiso   1.00
C1010  C     0.15229   0.47968   0.52834   0.00000  Uiso   1.00
C1011  C     0.32380   0.55702   0.97598   0.00000  Uiso   1.00
C1012  C     0.28082   0.57587   0.51587   0.00000  Uiso   1.00
C1013  C     0.26349   0.61624   0.50100   0.00000  Uiso   1.00
C1014  C     0.30748   0.39003   0.53094   0.00000  Uiso   1.00
C1015  C     0.32366   0.37856   0.57110   0.00000  Uiso   1.00
C1016  C     0.32293   0.66484   0.57835   0.00000  Uiso   1.00
C1017  C     0.21065   0.45079   0.95654   0.00000  Uiso   1.00
C1018  C     0.06989   0.49764   0.53434   0.00000  Uiso   1.00
C1019  C     0.24393   0.44384   0.97791   0.00000  Uiso   1.00
C1020  C     0.21136   0.64537   0.73534   0.00000  Uiso   1.00
C1021  C     0.12235   0.35463   0.76324   0.00000  Uiso   1.00
C1022  C     0.21135   0.35474   0.73525   0.00000  Uiso   1.00
H1023  H     0.03311   0.50663   0.55626   0.00000  Uiso   1.00
H1024  H     0.08774   0.37092   0.77449   0.00000  Uiso   1.00
H1025  H     0.24594   0.37114   0.72391   0.00000  Uiso   1.00
H1026  H     0.08774   0.62893   0.77461   0.00000  Uiso   1.00
H1027  H     0.31279   0.45659   0.69465   0.00000  Uiso   1.00
H1028  H     0.02057   0.54347   0.80528   0.00000  Uiso   1.00
H1029  H     0.06372   0.45654   0.69469   0.00000  Uiso   1.00
H1030  H     0.26965   0.54354   0.80521   0.00000  Uiso   1.00
H1031  H     0.31153   0.54999   0.94687   0.00000  Uiso   1.00
H1032  H     0.02073   0.58033   0.96442   0.00000  Uiso   1.00
H1033  H     0.25009   0.55332   0.52733   0.00000  Uiso   1.00
H1034  H     0.27808   0.42850   0.95824   0.00000  Uiso   1.00
H1035  H     0.29191   0.58218   0.54584   0.00000  Uiso   1.00
H1036  H     0.29376   0.63922   0.98882   0.00000  Uiso   1.00
H1037  H     0.23316   0.62967   0.53108   0.00000  Uiso   1.00
H1038  H     0.25015   0.61009   0.97246   0.00000  Uiso   1.00
H1039  H     0.33184   0.37395   0.99893   0.00000  Uiso   1.00
H1040  H     0.26982   0.37807   0.53806   0.00000  Uiso   1.00
H1041  H     0.02790   0.39047   0.56341   0.00000  Uiso   1.00
H1042  H     0.29878   0.39308   0.60392   0.00000  Uiso   1.00
H1043  H     0.28528   0.65260   0.58754   0.00000  Uiso   1.00
H1044  H     0.00191   0.65755   0.60733   0.00000  Uiso   1.00
H1045  H     0.14939   0.51469   0.60802   0.00000  Uiso   1.00
H1046  H     0.01445   0.64920   0.54625   0.00000  Uiso   1.00
H1047  H     0.18520   0.47647   0.88864   0.00000  Uiso   1.00
H1048  H     0.28473   0.46602   0.60567   0.00000  Uiso   1.00
H1049  H     0.04434   0.51612   0.89784   0.00000  Uiso   1.00
H1050  H     0.08986   0.49290   0.59272   0.00000  Uiso   1.00
H1051  H     0.22074   0.43915   0.92148   0.00000  Uiso   1.00
H1052  H     0.24595   0.62904   0.72407   0.00000  Uiso   1.00
N1053  N     0.04759   0.50001   0.75001   0.00000  Uiso   1.00
N1054  N     0.28574   0.49999   0.74999   0.00000  Uiso   1.00
O1055  O     0.12846   0.56108   0.75001   0.00000  Uiso   1.00
O1056  O     0.31267   0.43339   0.52197   0.00000  Uiso   1.00
O1057  O     0.20488   0.43892   0.75000   0.00000  Uiso   1.00
O1058  O     0.20490   0.56107   0.75000   0.00000  Uiso   1.00
O1059  O     0.12843   0.43893   0.75000   0.00000  Uiso   1.00
O1060  O     0.10661   0.50001   0.81613   0.00000  Uiso   1.00
O1061  O     0.22672   0.49999   0.68388   0.00000  Uiso   1.00
O1062  O     0.18305   0.50000   0.81612   0.00000  Uiso   1.00
O1063  O     0.15028   0.50000   0.68388   0.00000  Uiso   1.00
O1064  O     0.00478   0.51984   0.99186   0.00000  Uiso   1.00
Zn1065 Zn    0.11562   0.50001   0.75000   0.00000  Uiso   1.00
Zn1066 Zn    0.21771   0.49999   0.75000   0.00000  Uiso   1.00
C1067  C     0.50007   0.58003   0.74986   0.00000  Uiso   1.00
C1068  C     0.45568   0.64529   0.76331   0.00000  Uiso   1.00
C1069  C     0.50016   0.37584   0.74938   0.00000  Uiso   1.00
C1070  C     0.50017   0.62418   0.74951   0.00000  Uiso   1.00
C1071  C     0.65470   0.47587   0.71924   0.00000  Uiso   1.00
C1072  C     0.34532   0.52416   0.78072   0.00000  Uiso   1.00
C1073  C     0.36931   0.47586   0.71927   0.00000  Uiso   1.00
C1074  C     0.63071   0.52417   0.78069   0.00000  Uiso   1.00
C1075  C     0.46955   0.49948   0.83803   0.00000  Uiso   1.00
C1076  C     0.53035   0.49929   0.66196   0.00000  Uiso   1.00
C1077  C     0.45018   0.49677   0.88874   0.00000  Uiso   1.00
C1078  C     0.50006   0.41997   0.74978   0.00000  Uiso   1.00
C1079  C     0.54791   0.49068   0.61216   0.00000  Uiso   1.00
C1080  C     0.38560   0.50846   0.96424   0.00000  Uiso   1.00
C1081  C     0.60181   0.45311   0.54470   0.00000  Uiso   1.00
C1082  C     0.40194   0.50753   0.91530   0.00000  Uiso   1.00
C1083  C     0.59206   0.47015   0.58892   0.00000  Uiso   1.00
C1084  C     0.48131   0.48358   0.91039   0.00000  Uiso   1.00
C1085  C     0.51467   0.49593   0.59053   0.00000  Uiso   1.00
C1086  C     0.46584   0.48195   0.95882   0.00000  Uiso   1.00
C1087  C     0.52194   0.47744   0.54780   0.00000  Uiso   1.00
C1088  C     0.41776   0.49559   0.98593   0.00000  Uiso   1.00
C1089  C     0.43673   0.49054   0.55518   0.00000  Uiso   1.00
C1090  C     0.56732   0.45789   0.52326   0.00000  Uiso   1.00
C1091  C     0.49856   0.47047   0.98068   0.00000  Uiso   1.00
C1092  C     0.48562   0.47968   0.52834   0.00000  Uiso   1.00
C1093  C     0.65713   0.55702   0.97598   0.00000  Uiso   1.00
C1094  C     0.61415   0.57587   0.51587   0.00000  Uiso   1.00
C1095  C     0.59683   0.61624   0.50100   0.00000  Uiso   1.00
C1096  C     0.64081   0.39003   0.53094   0.00000  Uiso   1.00
C1097  C     0.65699   0.37856   0.57110   0.00000  Uiso   1.00
C1098  C     0.65626   0.66484   0.57835   0.00000  Uiso   1.00
C1099  C     0.54398   0.45079   0.95654   0.00000  Uiso   1.00
C1100  C     0.40322   0.49764   0.53434   0.00000  Uiso   1.00
C1101  C     0.57726   0.44384   0.97791   0.00000  Uiso   1.00
C1102  C     0.54469   0.64537   0.73534   0.00000  Uiso   1.00
C1103  C     0.45568   0.35463   0.76324   0.00000  Uiso   1.00
C1104  C     0.54469   0.35474   0.73525   0.00000  Uiso   1.00
H1105  H     0.36645   0.50663   0.55626   0.00000  Uiso   1.00
H1106  H     0.42107   0.37092   0.77449   0.00000  Uiso   1.00
H1107  H     0.57928   0.37114   0.72391   0.00000  Uiso   1.00
H1108  H     0.42107   0.62893   0.77461   0.00000  Uiso   1.00
H1109  H     0.64613   0.45659   0.69465   0.00000  Uiso   1.00
H1110  H     0.35390   0.54347   0.80528   0.00000  Uiso   1.00
H1111  H     0.39705   0.45654   0.69469   0.00000  Uiso   1.00
H1112  H     0.60299   0.54354   0.80521   0.00000  Uiso   1.00
H1113  H     0.64486   0.54999   0.94687   0.00000  Uiso   1.00
H1114  H     0.35406   0.58033   0.96442   0.00000  Uiso   1.00
H1115  H     0.58342   0.55332   0.52733   0.00000  Uiso   1.00
H1116  H     0.61142   0.42850   0.95824   0.00000  Uiso   1.00
H1117  H     0.62524   0.58218   0.54584   0.00000  Uiso   1.00
H1118  H     0.62709   0.63922   0.98882   0.00000  Uiso   1.00
H1119  H     0.56649   0.62967   0.53108   0.00000  Uiso   1.00
H1120  H     0.58348   0.61009   0.97246   0.00000  Uiso   1.00
H1121  H     0.66518   0.37395   0.99893   0.00000  Uiso   1.00
H1122  H     0.60315   0.37807   0.53806   0.00000  Uiso   1.00
H1123  H     0.36124   0.39047   0.56341   0.00000  Uiso   1.00
H1124  H     0.63212   0.39308   0.60392   0.00000  Uiso   1.00
H1125  H     0.61862   0.65260   0.58754   0.00000  Uiso   1.00
H1126  H     0.33524   0.65755   0.60733   0.00000  Uiso   1.00
H1127  H     0.48272   0.51469   0.60802   0.00000  Uiso   1.00
H1128  H     0.34778   0.64920   0.54625   0.00000  Uiso   1.00
H1129  H     0.51853   0.47647   0.88864   0.00000  Uiso   1.00
H1130  H     0.61806   0.46602   0.60567   0.00000  Uiso   1.00
H1131  H     0.37767   0.51612   0.89784   0.00000  Uiso   1.00
H1132  H     0.42319   0.49290   0.59272   0.00000  Uiso   1.00
H1133  H     0.55407   0.43915   0.92148   0.00000  Uiso   1.00
H1134  H     0.57928   0.62904   0.72407   0.00000  Uiso   1.00
N1135  N     0.38093   0.50001   0.75001   0.00000  Uiso   1.00
N1136  N     0.61907   0.49999   0.74999   0.00000  Uiso   1.00
O1137  O     0.46179   0.56108   0.75001   0.00000  Uiso   1.00
O1138  O     0.64600   0.43339   0.52197   0.00000  Uiso   1.00
O1139  O     0.53821   0.43892   0.75000   0.00000  Uiso   1.00
O1140  O     0.53823   0.56107   0.75000   0.00000  Uiso   1.00
O1141  O     0.46177   0.43893   0.75000   0.00000  Uiso   1.00
O1142  O     0.43994   0.50001   0.81613   0.00000  Uiso   1.00
O1143  O     0.56006   0.49999   0.68388   0.00000  Uiso   1.00
O1144  O     0.51639   0.50000   0.81612   0.00000  Uiso   1.00
O1145  O     0.48361   0.50000   0.68388   0.00000  Uiso   1.00
O1146  O     0.33811   0.51984   0.99186   0.00000  Uiso   1.00
Zn1147 Zn    0.44896   0.50001   0.75000   0.00000  Uiso   1.00
Zn1148 Zn    0.55104   0.49999   0.75000   0.00000  Uiso   1.00
C1149  C     0.83340   0.58003   0.74986   0.00000  Uiso   1.00
C1150  C     0.78902   0.64529   0.76331   0.00000  Uiso   1.00
C1151  C     0.83349   0.37584   0.74938   0.00000  Uiso   1.00
C1152  C     0.83350   0.62418   0.74951   0.00000  Uiso   1.00
C1153  C     0.98803   0.47587   0.71924   0.00000  Uiso   1.00
C1154  C     0.67865   0.52416   0.78072   0.00000  Uiso   1.00
C1155  C     0.70264   0.47586   0.71927   0.00000  Uiso   1.00
C1156  C     0.96404   0.52417   0.78069   0.00000  Uiso   1.00
C1157  C     0.80289   0.49948   0.83803   0.00000  Uiso   1.00
C1158  C     0.86368   0.49929   0.66196   0.00000  Uiso   1.00
C1159  C     0.78352   0.49677   0.88874   0.00000  Uiso   1.00
C1160  C     0.83339   0.41997   0.74978   0.00000  Uiso   1.00
C1161  C     0.88124   0.49068   0.61216   0.00000  Uiso   1.00
C1162  C     0.71893   0.50846   0.96424   0.00000  Uiso   1.00
C1163  C     0.93514   0.45311   0.54470   0.00000  Uiso   1.00
C1164  C     0.73527   0.50753   0.91530   0.00000  Uiso   1.00
C1165  C     0.92539   0.47015   0.58892   0.00000  Uiso   1.00
C1166  C     0.81464   0.48358   0.91039   0.00000  Uiso   1.00
C1167  C     0.84801   0.49593   0.59053   0.00000  Uiso   1.00
C1168  C     0.79918   0.48195   0.95882   0.00000  Uiso   1.00
C1169  C     0.85527   0.47744   0.54780   0.00000  Uiso   1.00
C1170  C     0.75109   0.49559   0.98593   0.00000  Uiso   1.00
C1171  C     0.77007   0.49054   0.55518   0.00000  Uiso   1.00
C1172  C     0.90065   0.45789   0.52326   0.00000  Uiso   1.00
C1173  C     0.83189   0.47047   0.98068   0.00000  Uiso   1.00
C1174  C     0.81896   0.47968   0.52834   0.00000  Uiso   1.00
C1175  C     0.99046   0.55702   0.97598   0.00000  Uiso   1.00
C1176  C     0.94749   0.57587   0.51587   0.00000  Uiso   1.00
C1177  C     0.93016   0.61624   0.50100   0.00000  Uiso   1.00
C1178  C     0.97415   0.39003   0.53094   0.00000  Uiso   1.00
C1179  C     0.99033   0.37856   0.57110   0.00000  Uiso   1.00
C1180  C     0.98959   0.66484   0.57835   0.00000  Uiso   1.00
C1181  C     0.87731   0.45079   0.95654   0.00000  Uiso   1.00
C1182  C     0.73656   0.49764   0.53434   0.00000  Uiso   1.00
C1183  C     0.91059   0.44384   0.97791   0.00000  Uiso   1.00
C1184  C     0.87802   0.64537   0.73534   0.00000  Uiso   1.00
C1185  C     0.78901   0.35463   0.76324   0.00000  Uiso   1.00
C1186  C     0.87802   0.35474   0.73525   0.00000  Uiso   1.00
H1187  H     0.69978   0.50663   0.55626   0.00000  Uiso   1.00
H1188  H     0.75440   0.37092   0.77449   0.00000  Uiso   1.00
H1189  H     0.91261   0.37114   0.72391   0.00000  Uiso   1.00
H1190  H     0.75441   0.62893   0.77461   0.00000  Uiso   1.00
H1191  H     0.97946   0.45659   0.69465   0.00000  Uiso   1.00
H1192  H     0.68723   0.54347   0.80528   0.00000  Uiso   1.00
H1193  H     0.73039   0.45654   0.69469   0.00000  Uiso   1.00
H1194  H     0.93632   0.54354   0.80521   0.00000  Uiso   1.00
H1195  H     0.97819   0.54999   0.94687   0.00000  Uiso   1.00
H1196  H     0.68739   0.58033   0.96442   0.00000  Uiso   1.00
H1197  H     0.91676   0.55332   0.52733   0.00000  Uiso   1.00
H1198  H     0.94475   0.42850   0.95824   0.00000  Uiso   1.00
H1199  H     0.95858   0.58218   0.54584   0.00000  Uiso   1.00
H1200  H     0.96043   0.63922   0.98882   0.00000  Uiso   1.00
H1201  H     0.89982   0.62967   0.53108   0.00000  Uiso   1.00
H1202  H     0.91681   0.61009   0.97246   0.00000  Uiso   1.00
H1203  H     0.99851   0.37395   0.99893   0.00000  Uiso   1.00
H1204  H     0.93648   0.37807   0.53806   0.00000  Uiso   1.00
H1205  H     0.69457   0.39047   0.56341   0.00000  Uiso   1.00
H1206  H     0.96545   0.39308   0.60392   0.00000  Uiso   1.00
H1207  H     0.95195   0.65260   0.58754   0.00000  Uiso   1.00
H1208  H     0.66857   0.65755   0.60733   0.00000  Uiso   1.00
H1209  H     0.81605   0.51469   0.60802   0.00000  Uiso   1.00
H1210  H     0.68112   0.64920   0.54625   0.00000  Uiso   1.00
H1211  H     0.85187   0.47647   0.88864   0.00000  Uiso   1.00
H1212  H     0.95139   0.46602   0.60567   0.00000  Uiso   1.00
H1213  H     0.71100   0.51612   0.89784   0.00000  Uiso   1.00
H1214  H     0.75652   0.49290   0.59272   0.00000  Uiso   1.00
H1215  H     0.88740   0.43915   0.92148   0.00000  Uiso   1.00
H1216  H     0.91261   0.62904   0.72407   0.00000  Uiso   1.00
N1217  N     0.71426   0.50001   0.75001   0.00000  Uiso   1.00
N1218  N     0.95241   0.49999   0.74999   0.00000  Uiso   1.00
O1219  O     0.79512   0.56108   0.75001   0.00000  Uiso   1.00
O1220  O     0.97933   0.43339   0.52197   0.00000  Uiso   1.00
O1221  O     0.87154   0.43892   0.75000   0.00000  Uiso   1.00
O1222  O     0.87157   0.56107   0.75000   0.00000  Uiso   1.00
O1223  O     0.79510   0.43893   0.75000   0.00000  Uiso   1.00
O1224  O     0.77328   0.50001   0.81613   0.00000  Uiso   1.00
O1225  O     0.89339   0.49999   0.68388   0.00000  Uiso   1.00
O1226  O     0.84972   0.50000   0.81612   0.00000  Uiso   1.00
O1227  O     0.81695   0.50000   0.68388   0.00000  Uiso   1.00
O1228  O     0.67145   0.51984   0.99186   0.00000  Uiso   1.00
Zn1229 Zn    0.78229   0.50001   0.75000   0.00000  Uiso   1.00
Zn1230 Zn    0.88438   0.49999   0.75000   0.00000  Uiso   1.00
C1231  C     0.16674   0.91337   0.74986   0.00000  Uiso   1.00
C1232  C     0.12235   0.97863   0.76331   0.00000  Uiso   1.00
C1233  C     0.16683   0.70917   0.74938   0.00000  Uiso   1.00
C1234  C     0.16684   0.95751   0.74951   0.00000  Uiso   1.00
C1235  C     0.32136   0.80920   0.71924   0.00000  Uiso   1.00
C1236  C     0.01198   0.85749   0.78072   0.00000  Uiso   1.00
C1237  C     0.03598   0.80920   0.71927   0.00000  Uiso   1.00
C1238  C     0.29738   0.85751   0.78069   0.00000  Uiso   1.00
C1239  C     0.13622   0.83282   0.83803   0.00000  Uiso   1.00
C1240  C     0.19701   0.83263   0.66196   0.00000  Uiso   1.00
C1241  C     0.11685   0.83010   0.88874   0.00000  Uiso   1.00
C1242  C     0.16673   0.75330   0.74978   0.00000  Uiso   1.00
C1243  C     0.21457   0.82401   0.61216   0.00000  Uiso   1.00
C1244  C     0.05226   0.84179   0.96424   0.00000  Uiso   1.00
C1245  C     0.26848   0.78644   0.54470   0.00000  Uiso   1.00
C1246  C     0.06860   0.84086   0.91530   0.00000  Uiso   1.00
C1247  C     0.25873   0.80348   0.58892   0.00000  Uiso   1.00
C1248  C     0.14798   0.81692   0.91039   0.00000  Uiso   1.00
C1249  C     0.18134   0.82926   0.59053   0.00000  Uiso   1.00
C1250  C     0.13251   0.81528   0.95882   0.00000  Uiso   1.00
C1251  C     0.18861   0.81078   0.54780   0.00000  Uiso   1.00
C1252  C     0.08442   0.82893   0.98593   0.00000  Uiso   1.00
C1253  C     0.10340   0.82388   0.55518   0.00000  Uiso   1.00
C1254  C     0.23398   0.79122   0.52326   0.00000  Uiso   1.00
C1255  C     0.16523   0.80380   0.98068   0.00000  Uiso   1.00
C1256  C     0.15229   0.81301   0.52834   0.00000  Uiso   1.00
C1257  C     0.32380   0.89035   0.97598   0.00000  Uiso   1.00
C1258  C     0.28082   0.90920   0.51587   0.00000  Uiso   1.00
C1259  C     0.26349   0.94957   0.50100   0.00000  Uiso   1.00
C1260  C     0.30748   0.72337   0.53094   0.00000  Uiso   1.00
C1261  C     0.32366   0.71189   0.57110   0.00000  Uiso   1.00
C1262  C     0.32293   0.99817   0.57835   0.00000  Uiso   1.00
C1263  C     0.21065   0.78413   0.95654   0.00000  Uiso   1.00
C1264  C     0.06989   0.83097   0.53434   0.00000  Uiso   1.00
C1265  C     0.24393   0.77718   0.97791   0.00000  Uiso   1.00
C1266  C     0.21136   0.97870   0.73534   0.00000  Uiso   1.00
C1267  C     0.12235   0.68796   0.76324   0.00000  Uiso   1.00
C1268  C     0.21135   0.68807   0.73525   0.00000  Uiso   1.00
H1269  H     0.03311   0.83996   0.55626   0.00000  Uiso   1.00
H1270  H     0.08774   0.70426   0.77449   0.00000  Uiso   1.00
H1271  H     0.24594   0.70447   0.72391   0.00000  Uiso   1.00
H1272  H     0.08774   0.96226   0.77461   0.00000  Uiso   1.00
H1273  H     0.31279   0.78992   0.69465   0.00000  Uiso   1.00
H1274  H     0.02057   0.87680   0.80528   0.00000  Uiso   1.00
H1275  H     0.06372   0.78988   0.69469   0.00000  Uiso   1.00
H1276  H     0.26965   0.87687   0.80521   0.00000  Uiso   1.00
H1277  H     0.31153   0.88333   0.94687   0.00000  Uiso   1.00
H1278  H     0.02073   0.91367   0.96442   0.00000  Uiso   1.00
H1279  H     0.25009   0.88665   0.52733   0.00000  Uiso   1.00
H1280  H     0.27808   0.76183   0.95824   0.00000  Uiso   1.00
H1281  H     0.29191   0.91551   0.54584   0.00000  Uiso   1.00
H1282  H     0.29376   0.97255   0.98882   0.00000  Uiso   1.00
H1283  H     0.23316   0.96301   0.53108   0.00000  Uiso   1.00
H1284  H     0.25015   0.94343   0.97246   0.00000  Uiso   1.00
H1285  H     0.33184   0.70729   0.99893   0.00000  Uiso   1.00
H1286  H     0.26982   0.71140   0.53806   0.00000  Uiso   1.00
H1287  H     0.02790   0.72380   0.56341   0.00000  Uiso   1.00
H1288  H     0.29878   0.72642   0.60392   0.00000  Uiso   1.00
H1289  H     0.28528   0.98594   0.58754   0.00000  Uiso   1.00
H1290  H     0.00191   0.99088   0.60733   0.00000  Uiso   1.00
H1291  H     0.14939   0.84803   0.60802   0.00000  Uiso   1.00
H1292  H     0.01445   0.98253   0.54625   0.00000  Uiso   1.00
H1293  H     0.18520   0.80980   0.88864   0.00000  Uiso   1.00
H1294  H     0.28473   0.79936   0.60567   0.00000  Uiso   1.00
H1295  H     0.04434   0.84946   0.89784   0.00000  Uiso   1.00
H1296  H     0.08986   0.82624   0.59272   0.00000  Uiso   1.00
H1297  H     0.22074   0.77248   0.92148   0.00000  Uiso   1.00
H1298  H     0.24595   0.96238   0.72407   0.00000  Uiso   1.00
N1299  N     0.04759   0.83334   0.75001   0.00000  Uiso   1.00
N1300  N     0.28574   0.83332   0.74999   0.00000  Uiso   1.00
O1301  O     0.12846   0.89442   0.75001   0.00000  Uiso   1.00
O1302  O     0.31267   0.76673   0.52197   0.00000  Uiso   1.00
O1303  O     0.20488   0.77225   0.75000   0.00000  Uiso   1.00
O1304  O     0.20490   0.89441   0.75000   0.00000  Uiso   1.00
O1305  O     0.12843   0.77226   0.75000   0.00000  Uiso   1.00
O1306  O     0.10661   0.83334   0.81613   0.00000  Uiso   1.00
O1307  O     0.22672   0.83333   0.68388   0.00000  Uiso   1.00
O1308  O     0.18305   0.83333   0.81612   0.00000  Uiso   1.00
O1309  O     0.15028   0.83334   0.68388   0.00000  Uiso   1.00
O1310  O     0.00478   0.85318   0.99186   0.00000  Uiso   1.00
Zn1311 Zn    0.11562   0.83334   0.75000   0.00000  Uiso   1.00
Zn1312 Zn    0.21771   0.83333   0.75000   0.00000  Uiso   1.00
C1313  C     0.50007   0.91337   0.74986   0.00000  Uiso   1.00
C1314  C     0.45568   0.97863   0.76331   0.00000  Uiso   1.00
C1315  C     0.50016   0.70917   0.74938   0.00000  Uiso   1.00
C1316  C     0.50017   0.95751   0.74951   0.00000  Uiso   1.00
C1317  C     0.65470   0.80920   0.71924   0.00000  Uiso   1.00
C1318  C     0.34532   0.85749   0.78072   0.00000  Uiso   1.00
C1319  C     0.36931   0.80920   0.71927   0.00000  Uiso   1.00
C1320  C     0.63071   0.85751   0.78069   0.00000  Uiso   1.00
C1321  C     0.46955   0.83282   0.83803   0.00000  Uiso   1.00
C1322  C     0.53035   0.83263   0.66196   0.00000  Uiso   1.00
C1323  C     0.45018   0.83010   0.88874   0.00000  Uiso   1.00
C1324  C     0.50006   0.75330   0.74978   0.00000  Uiso   1.00
C1325  C     0.54791   0.82401   0.61216   0.00000  Uiso   1.00
C1326  C     0.38560   0.84179   0.96424   0.00000  Uiso   1.00
C1327  C     0.60181   0.78644   0.54470   0.00000  Uiso   1.00
C1328  C     0.40194   0.84086   0.91530   0.00000  Uiso   1.00
C1329  C     0.59206   0.80348   0.58892   0.00000  Uiso   1.00
C1330  C     0.48131   0.81692   0.91039   0.00000  Uiso   1.00
C1331  C     0.51467   0.82926   0.59053   0.00000  Uiso   1.00
C1332  C     0.46584   0.81528   0.95882   0.00000  Uiso   1.00
C1333  C     0.52194   0.81078   0.54780   0.00000  Uiso   1.00
C1334  C     0.41776   0.82893   0.98593   0.00000  Uiso   1.00
C1335  C     0.43673   0.82388   0.55518   0.00000  Uiso   1.00
C1336  C     0.56732   0.79122   0.52326   0.00000  Uiso   1.00
C1337  C     0.49856   0.80380   0.98068   0.00000  Uiso   1.00
C1338  C     0.48562   0.81301   0.52834   0.00000  Uiso   1.00
C1339  C     0.65713   0.89035   0.97598   0.00000  Uiso   1.00
C1340  C     0.61415   0.90920   0.51587   0.00000  Uiso   1.00
C1341  C     0.59683   0.94957   0.50100   0.00000  Uiso   1.00
C1342  C     0.64081   0.72337   0.53094   0.00000  Uiso   1.00
C1343  C     0.65699   0.71189   0.57110   0.00000  Uiso   1.00
C1344  C     0.65626   0.99817   0.57835   0.00000  Uiso   1.00
C1345  C     0.54398   0.78413   0.95654   0.00000  Uiso   1.00
C1346  C     0.40322   0.83097   0.53434   0.00000  Uiso   1.00
C1347  C     0.57726   0.77718   0.97791   0.00000  Uiso   1.00
C1348  C     0.54469   0.97870   0.73534   0.00000  Uiso   1.00
C1349  C     0.45568   0.68796   0.76324   0.00000  Uiso   1.00
C1350  C     0.54469   0.68807   0.73525   0.00000  Uiso   1.00
H1351  H     0.36645   0.83996   0.55626   0.00000  Uiso   1.00
H1352  H     0.42107   0.70426   0.77449   0.00000  Uiso   1.00
H1353  H     0.57928   0.70447   0.72391   0.00000  Uiso   1.00
H1354  H     0.42107   0.96226   0.77461   0.00000  Uiso   1.00
H1355  H     0.64613   0.78992   0.69465   0.00000  Uiso   1.00
H1356  H     0.35390   0.87680   0.80528   0.00000  Uiso   1.00
H1357  H     0.39705   0.78988   0.69469   0.00000  Uiso   1.00
H1358  H     0.60299   0.87687   0.80521   0.00000  Uiso   1.00
H1359  H     0.64486   0.88333   0.94687   0.00000  Uiso   1.00
H1360  H     0.35406   0.91367   0.96442   0.00000  Uiso   1.00
H1361  H     0.58342   0.88665   0.52733   0.00000  Uiso   1.00
H1362  H     0.61142   0.76183   0.95824   0.00000  Uiso   1.00
H1363  H     0.62524   0.91551   0.54584   0.00000  Uiso   1.00
H1364  H     0.62709   0.97255   0.98882   0.00000  Uiso   1.00
H1365  H     0.56649   0.96301   0.53108   0.00000  Uiso   1.00
H1366  H     0.58348   0.94343   0.97246   0.00000  Uiso   1.00
H1367  H     0.66518   0.70729   0.99893   0.00000  Uiso   1.00
H1368  H     0.60315   0.71140   0.53806   0.00000  Uiso   1.00
H1369  H     0.36124   0.72380   0.56341   0.00000  Uiso   1.00
H1370  H     0.63212   0.72642   0.60392   0.00000  Uiso   1.00
H1371  H     0.61862   0.98594   0.58754   0.00000  Uiso   1.00
H1372  H     0.33524   0.99088   0.60733   0.00000  Uiso   1.00
H1373  H     0.48272   0.84803   0.60802   0.00000  Uiso   1.00
H1374  H     0.34778   0.98253   0.54625   0.00000  Uiso   1.00
H1375  H     0.51853   0.80980   0.88864   0.00000  Uiso   1.00
H1376  H     0.61806   0.79936   0.60567   0.00000  Uiso   1.00
H1377  H     0.37767   0.84946   0.89784   0.00000  Uiso   1.00
H1378  H     0.42319   0.82624   0.59272   0.00000  Uiso   1.00
H1379  H     0.55407   0.77248   0.92148   0.00000  Uiso   1.00
H1380  H     0.57928   0.96238   0.72407   0.00000  Uiso   1.00
N1381  N     0.38093   0.83334   0.75001   0.00000  Uiso   1.00
N1382  N     0.61907   0.83332   0.74999   0.00000  Uiso   1.00
O1383  O     0.46179   0.89442   0.75001   0.00000  Uiso   1.00
O1384  O     0.64600   0.76673   0.52197   0.00000  Uiso   1.00
O1385  O     0.53821   0.77225   0.75000   0.00000  Uiso   1.00
O1386  O     0.53823   0.89441   0.75000   0.00000  Uiso   1.00
O1387  O     0.46177   0.77226   0.75000   0.00000  Uiso   1.00
O1388  O     0.43994   0.83334   0.81613   0.00000  Uiso   1.00
O1389  O     0.56006   0.83333   0.68388   0.00000  Uiso   1.00
O1390  O     0.51639   0.83333   0.81612   0.00000  Uiso   1.00
O1391  O     0.48361   0.83334   0.68388   0.00000  Uiso   1.00
O1392  O     0.33811   0.85318   0.99186   0.00000  Uiso   1.00
Zn1393 Zn    0.44896   0.83334   0.75000   0.00000  Uiso   1.00
Zn1394 Zn    0.55104   0.83333   0.75000   0.00000  Uiso   1.00
C1395  C     0.83340   0.91337   0.74986   0.00000  Uiso   1.00
C1396  C     0.78902   0.97863   0.76331   0.00000  Uiso   1.00
C1397  C     0.83349   0.70917   0.74938   0.00000  Uiso   1.00
C1398  C     0.83350   0.95751   0.74951   0.00000  Uiso   1.00
C1399  C     0.98803   0.80920   0.71924   0.00000  Uiso   1.00
C1400  C     0.67865   0.85749   0.78072   0.00000  Uiso   1.00
C1401  C     0.70264   0.80920   0.71927   0.00000  Uiso   1.00
C1402  C     0.96404   0.85751   0.78069   0.00000  Uiso   1.00
C1403  C     0.80289   0.83282   0.83803   0.00000  Uiso   1.00
C1404  C     0.86368   0.83263   0.66196   0.00000  Uiso   1.00
C1405  C     0.78352   0.83010   0.88874   0.00000  Uiso   1.00
C1406  C     0.83339   0.75330   0.74978   0.00000  Uiso   1.00
C1407  C     0.88124   0.82401   0.61216   0.00000  Uiso   1.00
C1408  C     0.71893   0.84179   0.96424   0.00000  Uiso   1.00
C1409  C     0.93514   0.78644   0.54470   0.00000  Uiso   1.00
C1410  C     0.73527   0.84086   0.91530   0.00000  Uiso   1.00
C1411  C     0.92539   0.80348   0.58892   0.00000  Uiso   1.00
C1412  C     0.81464   0.81692   0.91039   0.00000  Uiso   1.00
C1413  C     0.84801   0.82926   0.59053   0.00000  Uiso   1.00
C1414  C     0.79918   0.81528   0.95882   0.00000  Uiso   1.00
C1415  C     0.85527   0.81078   0.54780   0.00000  Uiso   1.00
C1416  C     0.75109   0.82893   0.98593   0.00000  Uiso   1.00
C1417  C     0.77007   0.82388   0.55518   0.00000  Uiso   1.00
C1418  C     0.90065   0.79122   0.52326   0.00000  Uiso   1.00
C1419  C     0.83189   0.80380   0.98068   0.00000  Uiso   1.00
C1420  C     0.81896   0.81301   0.52834   0.00000  Uiso   1.00
C1421  C     0.99046   0.89035   0.97598   0.00000  Uiso   1.00
C1422  C     0.94749   0.90920   0.51587   0.00000  Uiso   1.00
C1423  C     0.93016   0.94957   0.50100   0.00000  Uiso   1.00
C1424  C     0.97415   0.72337   0.53094   0.00000  Uiso   1.00
C1425  C     0.99033   0.71189   0.57110   0.00000  Uiso   1.00
C1426  C     0.98959   0.99817   0.57835   0.00000  Uiso   1.00
C1427  C     0.87731   0.78413   0.95654   0.00000  Uiso   1.00
C1428  C     0.73656   0.83097   0.53434   0.00000  Uiso   1.00
C1429  C     0.91059   0.77718   0.97791   0.00000  Uiso   1.00
C1430  C     0.87802   0.97870   0.73534   0.00000  Uiso   1.00
C1431  C     0.78901   0.68796   0.76324   0.00000  Uiso   1.00
C1432  C     0.87802   0.68807   0.73525   0.00000  Uiso   1.00
H1433  H     0.69978   0.83996   0.55626   0.00000  Uiso   1.00
H1434  H     0.75440   0.70426   0.77449   0.00000  Uiso   1.00
H1435  H     0.91261   0.70447   0.72391   0.00000  Uiso   1.00
H1436  H     0.75441   0.96226   0.77461   0.00000  Uiso   1.00
H1437  H     0.97946   0.78992   0.69465   0.00000  Uiso   1.00
H1438  H     0.68723   0.87680   0.80528   0.00000  Uiso   1.00
H1439  H     0.73039   0.78988   0.69469   0.00000  Uiso   1.00
H1440  H     0.93632   0.87687   0.80521   0.00000  Uiso   1.00
H1441  H     0.97819   0.88333   0.94687   0.00000  Uiso   1.00
H1442  H     0.68739   0.91367   0.96442   0.00000  Uiso   1.00
H1443  H     0.91676   0.88665   0.52733   0.00000  Uiso   1.00
H1444  H     0.94475   0.76183   0.95824   0.00000  Uiso   1.00
H1445  H     0.95858   0.91551   0.54584   0.00000  Uiso   1.00
H1446  H     0.96043   0.97255   0.98882   0.00000  Uiso   1.00
H1447  H     0.89982   0.96301   0.53108   0.00000  Uiso   1.00
H1448  H     0.91681   0.94343   0.97246   0.00000  Uiso   1.00
H1449  H     0.99851   0.70729   0.99893   0.00000  Uiso   1.00
H1450  H     0.93648   0.71140   0.53806   0.00000  Uiso   1.00
H1451  H     0.69457   0.72380   0.56341   0.00000  Uiso   1.00
H1452  H     0.96545   0.72642   0.60392   0.00000  Uiso   1.00
H1453  H     0.95195   0.98594   0.58754   0.00000  Uiso   1.00
H1454  H     0.66857   0.99088   0.60733   0.00000  Uiso   1.00
H1455  H     0.81605   0.84803   0.60802   0.00000  Uiso   1.00
H1456  H     0.68112   0.98253   0.54625   0.00000  Uiso   1.00
H1457  H     0.85187   0.80980   0.88864   0.00000  Uiso   1.00
H1458  H     0.95139   0.79936   0.60567   0.00000  Uiso   1.00
H1459  H     0.71100   0.84946   0.89784   0.00000  Uiso   1.00
H1460  H     0.75652   0.82624   0.59272   0.00000  Uiso   1.00
H1461  H     0.88740   0.77248   0.92148   0.00000  Uiso   1.00
H1462  H     0.91261   0.96238   0.72407   0.00000  Uiso   1.00
N1463  N     0.71426   0.83334   0.75001   0.00000  Uiso   1.00
N1464  N     0.95241   0.83332   0.74999   0.00000  Uiso   1.00
O1465  O     0.79512   0.89442   0.75001   0.00000  Uiso   1.00
O1466  O     0.97933   0.76673   0.52197   0.00000  Uiso   1.00
O1467  O     0.87154   0.77225   0.75000   0.00000  Uiso   1.00
O1468  O     0.87157   0.89441   0.75000   0.00000  Uiso   1.00
O1469  O     0.79510   0.77226   0.75000   0.00000  Uiso   1.00
O1470  O     0.77328   0.83334   0.81613   0.00000  Uiso   1.00
O1471  O     0.89339   0.83333   0.68388   0.00000  Uiso   1.00
O1472  O     0.84972   0.83333   0.81612   0.00000  Uiso   1.00
O1473  O     0.81695   0.83334   0.68388   0.00000  Uiso   1.00
O1474  O     0.67145   0.85318   0.99186   0.00000  Uiso   1.00
Zn1475 Zn    0.78229   0.83334   0.75000   0.00000  Uiso   1.00
Zn1476 Zn    0.88438   0.83333   0.75000   0.00000  Uiso   1.00
loop_
_geom_bond_atom_site_label_1
_geom_bond_atom_site_label_2
_geom_bond_distance
_geom_bond_site_symmetry_2
_ccdc_geom_bond_type
C1     O71     1.282   .     A
C1     O74     1.282   .     A
C1     C4      1.417   .     S
C2     C4      1.396   .     A
C2     H42     1.084   .     S
C2     C283    1.370   .     S
C3     C12     1.417   .     S
C3     C38     1.397   .     A
C3     C37     1.396   .     A
C4     C36     1.397   .     A
C5     H43     1.082   .     S
C5     N70     1.366   .     A
C5     C89     1.416   .     S
C6     N69     1.366   .     A
C6     H44     1.082   .     S
C6     C172    1.416   1_455 S
C7     H45     1.082   .     S
C7     N69     1.367   .     A
C7     C169    1.416   1_455 S
C8     N70     1.367   .     A
C8     H46     1.082   .     S
C8     C88     1.416   .     S
C9     O76     1.291   .     A
C9     C11     1.457   .     S
C9     O78     1.293   .     A
C10    O77     1.294   .     A
C10    C13     1.457   .     S
C10    O79     1.291   .     A
C11    C18     1.390   .     A
C11    C16     1.397   .     A
C12    O73     1.282   .     A
C12    O75     1.282   .     A
C13    C19     1.389   .     A
C13    C17     1.397   .     A
C14    O80     1.391   .     S
C14    C16     1.407   .     A
C14    C22     1.414   .     A
C15    O72     1.384   .     S
C15    C24     1.416   .     A
C15    C17     1.401   .     A
C16    H65     1.082   .     S
C17    H64     1.083   .     S
C18    H63     1.078   .     S
C18    C20     1.394   .     A
C19    C21     1.391   .     A
C19    H61     1.080   .     S
C20    C22     1.423   .     A
C20    C25     1.419   .     A
C21    C26     1.414   .     A
C21    C24     1.417   .     A
C22    C772    1.396   .     S
C23    C26     1.415   .     A
C23    C34     1.387   .     A
C23    H66     1.080   .     S
C24    C773    1.397   1_554 S
C25    C33     1.418   .     A
C25    C764    1.410   .     S
C26    C763    1.410   1_554 S
C27    H47     1.112   .     S
C27    C766    1.527   .     S
C27    H130    1.116   .     S
C27    O162    1.413   .     S
C28    C29     1.526   .     S
C28    H51     1.111   .     S
C28    H49     1.110   .     S
C28    C765    1.527   1_554 S
C29    H53     1.110   .     S
C29    H790    1.110   1_554 S
C29    H792    1.111   1_554 S
C30    C31     1.533   .     S
C30    H56     1.118   .     S
C30    O72     1.416   .     S
C30    H793    1.111   1_554 S
C31    H58     1.110   .     S
C31    C524    1.526   1_545 S
C31    H139    1.112   .     S
C32    H59     1.111   .     S
C32    C277    1.526   .     S
C32    H142    1.110   .     S
C32    H144    1.111   .     S
C33    H67     1.079   .     S
C33    C35     1.392   .     A
C34    H39     1.083   .     S
C34    C760    1.396   1_554 S
C35    H50     1.083   .     S
C35    C762    1.397   .     S
C36    H68     1.084   .     S
C36    C284    1.371   .     S
C37    H40     1.084   .     S
C37    C494    1.370   1_545 S
C38    H41     1.084   .     S
C38    C528    1.371   1_545 S
H48    C191    1.116   1_455 S
H52    C767    1.110   .     S
H54    C767    1.111   .     S
H55    C768    1.111   .     S
H57    C195    1.112   1_455 S
H60    C196    1.110   1_455 S
H62    C196    1.111   1_455 S
N69    Zn81    2.009   .     S
N70    Zn82    2.009   .     S
O71    Zn81    1.997   .     S
O73    Zn82    1.997   .     S
O74    Zn82    1.997   .     S
O75    Zn81    1.997   .     S
O76    Zn81    1.961   .     S
O77    Zn82    1.961   .     S
O78    Zn82    1.914   .     S
O79    Zn81    1.914   .     S
O80    C191    1.413   1_455 S
C83    O153    1.282   .     A
C83    O156    1.282   .     A
C83    C86     1.417   .     S
C84    C86     1.396   .     A
C84    H124    1.084   .     S
C84    C365    1.370   .     S
C85    C94     1.417   .     S
C85    C120    1.397   .     A
C85    C119    1.396   .     A
C86    C118    1.397   .     A
C87    H125    1.082   .     S
C87    N152    1.366   .     A
C87    C171    1.416   .     S
C88    N151    1.366   .     A
C88    H126    1.082   .     S
C89    H127    1.082   .     S
C89    N151    1.367   .     A
C90    N152    1.367   .     A
C90    H128    1.082   .     S
C90    C170    1.416   .     S
C91    O158    1.291   .     A
C91    C93     1.457   .     S
C91    O160    1.293   .     A
C92    O159    1.294   .     A
C92    C95     1.457   .     S
C92    O161    1.291   .     A
C93    C100    1.390   .     A
C93    C98     1.397   .     A
C94    O155    1.282   .     A
C94    O157    1.282   .     A
C95    C101    1.389   .     A
C95    C99     1.397   .     A
C96    O162    1.391   .     S
C96    C98     1.407   .     A
C96    C104    1.414   .     A
C97    O154    1.384   .     S
C97    C106    1.416   .     A
C97    C99     1.401   .     A
C98    H147    1.082   .     S
C99    H146    1.083   .     S
C100   H145    1.078   .     S
C100   C102    1.394   .     A
C101   C103    1.391   .     A
C101   H143    1.080   .     S
C102   C104    1.423   .     A
C102   C107    1.419   .     A
C103   C108    1.414   .     A
C103   C106    1.417   .     A
C104   C854    1.396   .     S
C105   C108    1.415   .     A
C105   C116    1.387   .     A
C105   H148    1.080   .     S
C106   C855    1.397   1_554 S
C107   C115    1.418   .     A
C107   C846    1.410   .     S
C108   C845    1.410   1_554 S
C109   H129    1.112   .     S
C109   C848    1.527   .     S
C109   H212    1.116   .     S
C109   O244    1.413   .     S
C110   C111    1.526   .     S
C110   H133    1.111   .     S
C110   H131    1.110   .     S
C110   C847    1.527   1_554 S
C111   H135    1.110   .     S
C111   H872    1.110   1_554 S
C111   H874    1.111   1_554 S
C112   C113    1.533   .     S
C112   H138    1.118   .     S
C112   O154    1.416   .     S
C112   H875    1.111   1_554 S
C113   H140    1.110   .     S
C113   C606    1.526   1_545 S
C113   H221    1.112   .     S
C114   H141    1.111   .     S
C114   C359    1.526   .     S
C114   H224    1.110   .     S
C114   H226    1.111   .     S
C115   H149    1.079   .     S
C115   C117    1.392   .     A
C116   H121    1.083   .     S
C116   C842    1.396   1_554 S
C117   H132    1.083   .     S
C117   C844    1.397   .     S
C118   H150    1.084   .     S
C118   C366    1.371   .     S
C119   H122    1.084   .     S
C119   C576    1.370   1_545 S
C120   H123    1.084   .     S
C120   C610    1.371   1_545 S
H134   C849    1.110   .     S
H136   C849    1.111   .     S
H137   C850    1.111   .     S
N151   Zn163   2.009   .     S
N152   Zn164   2.009   .     S
O153   Zn163   1.997   .     S
O155   Zn164   1.997   .     S
O156   Zn164   1.997   .     S
O157   Zn163   1.997   .     S
O158   Zn163   1.961   .     S
O159   Zn164   1.961   .     S
O160   Zn164   1.914   .     S
O161   Zn163   1.914   .     S
C165   O235    1.282   .     A
C165   O238    1.282   .     A
C165   C168    1.417   .     S
C166   C168    1.396   .     A
C166   H206    1.084   .     S
C166   C447    1.370   .     S
C167   C176    1.417   .     S
C167   C202    1.397   .     A
C167   C201    1.396   .     A
C168   C200    1.397   .     A
C169   H207    1.082   .     S
C169   N234    1.366   .     A
C169   C7      1.416   1_655 S
C170   N233    1.366   .     A
C170   H208    1.082   .     S
C171   H209    1.082   .     S
C171   N233    1.367   .     A
C172   N234    1.367   .     A
C172   H210    1.082   .     S
C172   C6      1.416   1_655 S
C173   O240    1.291   .     A
C173   C175    1.457   .     S
C173   O242    1.293   .     A
C174   O241    1.294   .     A
C174   C177    1.457   .     S
C174   O243    1.291   .     A
C175   C182    1.390   .     A
C175   C180    1.397   .     A
C176   O237    1.282   .     A
C176   O239    1.282   .     A
C177   C183    1.389   .     A
C177   C181    1.397   .     A
C178   O244    1.391   .     S
C178   C180    1.407   .     A
C178   C186    1.414   .     A
C179   O236    1.384   .     S
C179   C188    1.416   .     A
C179   C181    1.401   .     A
C180   H229    1.082   .     S
C181   H228    1.083   .     S
C182   H227    1.078   .     S
C182   C184    1.394   .     A
C183   C185    1.391   .     A
C183   H225    1.080   .     S
C184   C186    1.423   .     A
C184   C189    1.419   .     A
C185   C190    1.414   .     A
C185   C188    1.417   .     A
C186   C936    1.396   .     S
C187   C190    1.415   .     A
C187   C198    1.387   .     A
C187   H230    1.080   .     S
C188   C937    1.397   1_554 S
C189   C197    1.418   .     A
C189   C928    1.410   .     S
C190   C927    1.410   1_554 S
C191   H211    1.112   .     S
C191   C930    1.527   .     S
C191   H48     1.116   1_655 S
C191   O80     1.413   1_655 S
C192   C193    1.526   .     S
C192   H215    1.111   .     S
C192   H213    1.110   .     S
C192   C929    1.527   1_554 S
C193   H217    1.110   .     S
C193   H954    1.110   1_554 S
C193   H956    1.111   1_554 S
C194   C195    1.533   .     S
C194   H220    1.118   .     S
C194   O236    1.416   .     S
C194   H957    1.111   1_554 S
C195   H222    1.110   .     S
C195   C688    1.526   1_545 S
C195   H57     1.112   1_655 S
C196   H223    1.111   .     S
C196   C441    1.526   .     S
C196   H60     1.110   1_655 S
C196   H62     1.111   1_655 S
C197   H231    1.079   .     S
C197   C199    1.392   .     A
C198   H203    1.083   .     S
C198   C924    1.396   1_554 S
C199   H214    1.083   .     S
C199   C926    1.397   .     S
C200   H232    1.084   .     S
C200   C448    1.371   .     S
C201   H204    1.084   .     S
C201   C658    1.370   1_545 S
C202   H205    1.084   .     S
C202   C692    1.371   1_545 S
H216   C931    1.110   .     S
H218   C931    1.111   .     S
H219   C932    1.111   .     S
N233   Zn245   2.009   .     S
N234   Zn246   2.009   .     S
O235   Zn245   1.997   .     S
O237   Zn246   1.997   .     S
O238   Zn246   1.997   .     S
O239   Zn245   1.997   .     S
O240   Zn245   1.961   .     S
O241   Zn246   1.961   .     S
O242   Zn246   1.914   .     S
O243   Zn245   1.914   .     S
C247   O317    1.282   .     A
C247   O320    1.282   .     A
C247   C250    1.417   .     S
C248   C250    1.396   .     A
C248   H288    1.084   .     S
C248   C529    1.370   .     S
C249   C258    1.417   .     S
C249   C284    1.397   .     A
C249   C283    1.396   .     A
C250   C282    1.397   .     A
C251   H289    1.082   .     S
C251   N316    1.366   .     A
C251   C335    1.416   .     S
C252   N315    1.366   .     A
C252   H290    1.082   .     S
C252   C418    1.416   1_455 S
C253   H291    1.082   .     S
C253   N315    1.367   .     A
C253   C415    1.416   1_455 S
C254   N316    1.367   .     A
C254   H292    1.082   .     S
C254   C334    1.416   .     S
C255   O322    1.291   .     A
C255   C257    1.457   .     S
C255   O324    1.293   .     A
C256   O323    1.294   .     A
C256   C259    1.457   .     S
C256   O325    1.291   .     A
C257   C264    1.390   .     A
C257   C262    1.397   .     A
C258   O319    1.282   .     A
C258   O321    1.282   .     A
C259   C265    1.389   .     A
C259   C263    1.397   .     A
C260   O326    1.391   .     S
C260   C262    1.407   .     A
C260   C268    1.414   .     A
C261   O318    1.384   .     S
C261   C270    1.416   .     A
C261   C263    1.401   .     A
C262   H311    1.082   .     S
C263   H310    1.083   .     S
C264   H309    1.078   .     S
C264   C266    1.394   .     A
C265   C267    1.391   .     A
C265   H307    1.080   .     S
C266   C268    1.423   .     A
C266   C271    1.419   .     A
C267   C272    1.414   .     A
C267   C270    1.417   .     A
C268   C1018   1.396   .     S
C269   C272    1.415   .     A
C269   C280    1.387   .     A
C269   H312    1.080   .     S
C270   C1019   1.397   1_554 S
C271   C279    1.418   .     A
C271   C1010   1.410   .     S
C272   C1009   1.410   1_554 S
C273   H293    1.112   .     S
C273   C1012   1.527   .     S
C273   H376    1.116   .     S
C273   O408    1.413   .     S
C274   C275    1.526   .     S
C274   H297    1.111   .     S
C274   H295    1.110   .     S
C274   C1011   1.527   1_554 S
C275   H299    1.110   .     S
C275   H1036   1.110   1_554 S
C275   H1038   1.111   1_554 S
C276   C277    1.533   .     S
C276   H302    1.118   .     S
C276   O318    1.416   .     S
C276   H1039   1.111   1_554 S
C277   H304    1.110   .     S
C277   H385    1.112   .     S
C278   H305    1.111   .     S
C278   C523    1.526   .     S
C278   H388    1.110   .     S
C278   H390    1.111   .     S
C279   H313    1.079   .     S
C279   C281    1.392   .     A
C280   H285    1.083   .     S
C280   C1006   1.396   1_554 S
C281   H296    1.083   .     S
C281   C1008   1.397   .     S
C282   H314    1.084   .     S
C282   C530    1.371   .     S
C283   H286    1.084   .     S
C284   H287    1.084   .     S
H294   C437    1.116   1_455 S
H298   C1013   1.110   .     S
H300   C1013   1.111   .     S
H301   C1014   1.111   .     S
H303   C441    1.112   1_455 S
H306   C442    1.110   1_455 S
H308   C442    1.111   1_455 S
N315   Zn327   2.009   .     S
N316   Zn328   2.009   .     S
O317   Zn327   1.997   .     S
O319   Zn328   1.997   .     S
O320   Zn328   1.997   .     S
O321   Zn327   1.997   .     S
O322   Zn327   1.961   .     S
O323   Zn328   1.961   .     S
O324   Zn328   1.914   .     S
O325   Zn327   1.914   .     S
O326   C437    1.413   1_455 S
C329   O399    1.282   .     A
C329   O402    1.282   .     A
C329   C332    1.417   .     S
C330   C332    1.396   .     A
C330   H370    1.084   .     S
C330   C611    1.370   .     S
C331   C340    1.417   .     S
C331   C366    1.397   .     A
C331   C365    1.396   .     A
C332   C364    1.397   .     A
C333   H371    1.082   .     S
C333   N398    1.366   .     A
C333   C417    1.416   .     S
C334   N397    1.366   .     A
C334   H372    1.082   .     S
C335   H373    1.082   .     S
C335   N397    1.367   .     A
C336   N398    1.367   .     A
C336   H374    1.082   .     S
C336   C416    1.416   .     S
C337   O404    1.291   .     A
C337   C339    1.457   .     S
C337   O406    1.293   .     A
C338   O405    1.294   .     A
C338   C341    1.457   .     S
C338   O407    1.291   .     A
C339   C346    1.390   .     A
C339   C344    1.397   .     A
C340   O401    1.282   .     A
C340   O403    1.282   .     A
C341   C347    1.389   .     A
C341   C345    1.397   .     A
C342   O408    1.391   .     S
C342   C344    1.407   .     A
C342   C350    1.414   .     A
C343   O400    1.384   .     S
C343   C352    1.416   .     A
C343   C345    1.401   .     A
C344   H393    1.082   .     S
C345   H392    1.083   .     S
C346   H391    1.078   .     S
C346   C348    1.394   .     A
C347   C349    1.391   .     A
C347   H389    1.080   .     S
C348   C350    1.423   .     A
C348   C353    1.419   .     A
C349   C354    1.414   .     A
C349   C352    1.417   .     A
C350   C1100   1.396   .     S
C351   C354    1.415   .     A
C351   C362    1.387   .     A
C351   H394    1.080   .     S
C352   C1101   1.397   1_554 S
C353   C361    1.418   .     A
C353   C1092   1.410   .     S
C354   C1091   1.410   1_554 S
C355   H375    1.112   .     S
C355   C1094   1.527   .     S
C355   H458    1.116   .     S
C355   O490    1.413   .     S
C356   C357    1.526   .     S
C356   H379    1.111   .     S
C356   H377    1.110   .     S
C356   C1093   1.527   1_554 S
C357   H381    1.110   .     S
C357   H1118   1.110   1_554 S
C357   H1120   1.111   1_554 S
C358   C359    1.533   .     S
C358   H384    1.118   .     S
C358   O400    1.416   .     S
C358   H1121   1.111   1_554 S
C359   H386    1.110   .     S
C359   H467    1.112   .     S
C360   H387    1.111   .     S
C360   C605    1.526   .     S
C360   H470    1.110   .     S
C360   H472    1.111   .     S
C361   H395    1.079   .     S
C361   C363    1.392   .     A
C362   H367    1.083   .     S
C362   C1088   1.396   1_554 S
C363   H378    1.083   .     S
C363   C1090   1.397   .     S
C364   H396    1.084   .     S
C364   C612    1.371   .     S
C365   H368    1.084   .     S
C366   H369    1.084   .     S
H380   C1095   1.110   .     S
H382   C1095   1.111   .     S
H383   C1096   1.111   .     S
N397   Zn409   2.009   .     S
N398   Zn410   2.009   .     S
O399   Zn409   1.997   .     S
O401   Zn410   1.997   .     S
O402   Zn410   1.997   .     S
O403   Zn409   1.997   .     S
O404   Zn409   1.961   .     S
O405   Zn410   1.961   .     S
O406   Zn410   1.914   .     S
O407   Zn409   1.914   .     S
C411   O481    1.282   .     A
C411   O484    1.282   .     A
C411   C414    1.417   .     S
C412   C414    1.396   .     A
C412   H452    1.084   .     S
C412   C693    1.370   .     S
C413   C422    1.417   .     S
C413   C448    1.397   .     A
C413   C447    1.396   .     A
C414   C446    1.397   .     A
C415   H453    1.082   .     S
C415   N480    1.366   .     A
C415   C253    1.416   1_655 S
C416   N479    1.366   .     A
C416   H454    1.082   .     S
C417   H455    1.082   .     S
C417   N479    1.367   .     A
C418   N480    1.367   .     A
C418   H456    1.082   .     S
C418   C252    1.416   1_655 S
C419   O486    1.291   .     A
C419   C421    1.457   .     S
C419   O488    1.293   .     A
C420   O487    1.294   .     A
C420   C423    1.457   .     S
C420   O489    1.291   .     A
C421   C428    1.390   .     A
C421   C426    1.397   .     A
C422   O483    1.282   .     A
C422   O485    1.282   .     A
C423   C429    1.389   .     A
C423   C427    1.397   .     A
C424   O490    1.391   .     S
C424   C426    1.407   .     A
C424   C432    1.414   .     A
C425   O482    1.384   .     S
C425   C434    1.416   .     A
C425   C427    1.401   .     A
C426   H475    1.082   .     S
C427   H474    1.083   .     S
C428   H473    1.078   .     S
C428   C430    1.394   .     A
C429   C431    1.391   .     A
C429   H471    1.080   .     S
C430   C432    1.423   .     A
C430   C435    1.419   .     A
C431   C436    1.414   .     A
C431   C434    1.417   .     A
C432   C1182   1.396   .     S
C433   C436    1.415   .     A
C433   C444    1.387   .     A
C433   H476    1.080   .     S
C434   C1183   1.397   1_554 S
C435   C443    1.418   .     A
C435   C1174   1.410   .     S
C436   C1173   1.410   1_554 S
C437   H457    1.112   .     S
C437   C1176   1.527   .     S
C437   H294    1.116   1_655 S
C437   O326    1.413   1_655 S
C438   C439    1.526   .     S
C438   H461    1.111   .     S
C438   H459    1.110   .     S
C438   C1175   1.527   1_554 S
C439   H463    1.110   .     S
C439   H1200   1.110   1_554 S
C439   H1202   1.111   1_554 S
C440   C441    1.533   .     S
C440   H466    1.118   .     S
C440   O482    1.416   .     S
C440   H1203   1.111   1_554 S
C441   H468    1.110   .     S
C441   H303    1.112   1_655 S
C442   H469    1.111   .     S
C442   C687    1.526   .     S
C442   H306    1.110   1_655 S
C442   H308    1.111   1_655 S
C443   H477    1.079   .     S
C443   C445    1.392   .     A
C444   H449    1.083   .     S
C444   C1170   1.396   1_554 S
C445   H460    1.083   .     S
C445   C1172   1.397   .     S
C446   H478    1.084   .     S
C446   C694    1.371   .     S
C447   H450    1.084   .     S
C448   H451    1.084   .     S
H462   C1177   1.110   .     S
H464   C1177   1.111   .     S
H465   C1178   1.111   .     S
N479   Zn491   2.009   .     S
N480   Zn492   2.009   .     S
O481   Zn491   1.997   .     S
O483   Zn492   1.997   .     S
O484   Zn492   1.997   .     S
O485   Zn491   1.997   .     S
O486   Zn491   1.961   .     S
O487   Zn492   1.961   .     S
O488   Zn492   1.914   .     S
O489   Zn491   1.914   .     S
C493   O563    1.282   .     A
C493   O566    1.282   .     A
C493   C496    1.417   .     S
C494   C496    1.396   .     A
C494   H534    1.084   .     S
C494   C37     1.370   1_565 S
C495   C504    1.417   .     S
C495   C530    1.397   .     A
C495   C529    1.396   .     A
C496   C528    1.397   .     A
C497   H535    1.082   .     S
C497   N562    1.366   .     A
C497   C581    1.416   .     S
C498   N561    1.366   .     A
C498   H536    1.082   .     S
C498   C664    1.416   1_455 S
C499   H537    1.082   .     S
C499   N561    1.367   .     A
C499   C661    1.416   1_455 S
C500   N562    1.367   .     A
C500   H538    1.082   .     S
C500   C580    1.416   .     S
C501   O568    1.291   .     A
C501   C503    1.457   .     S
C501   O570    1.293   .     A
C502   O569    1.294   .     A
C502   C505    1.457   .     S
C502   O571    1.291   .     A
C503   C510    1.390   .     A
C503   C508    1.397   .     A
C504   O565    1.282   .     A
C504   O567    1.282   .     A
C505   C511    1.389   .     A
C505   C509    1.397   .     A
C506   O572    1.391   .     S
C506   C508    1.407   .     A
C506   C514    1.414   .     A
C507   O564    1.384   .     S
C507   C516    1.416   .     A
C507   C509    1.401   .     A
C508   H557    1.082   .     S
C509   H556    1.083   .     S
C510   H555    1.078   .     S
C510   C512    1.394   .     A
C511   C513    1.391   .     A
C511   H553    1.080   .     S
C512   C514    1.423   .     A
C512   C517    1.419   .     A
C513   C518    1.414   .     A
C513   C516    1.417   .     A
C514   C1264   1.396   .     S
C515   C518    1.415   .     A
C515   C526    1.387   .     A
C515   H558    1.080   .     S
C516   C1265   1.397   1_554 S
C517   C525    1.418   .     A
C517   C1256   1.410   .     S
C518   C1255   1.410   1_554 S
C519   H539    1.112   .     S
C519   C1258   1.527   .     S
C519   H622    1.116   .     S
C519   O654    1.413   .     S
C520   C521    1.526   .     S
C520   H543    1.111   .     S
C520   H541    1.110   .     S
C520   C1257   1.527   1_554 S
C521   H545    1.110   .     S
C521   H1282   1.110   1_554 S
C521   H1284   1.111   1_554 S
C522   C523    1.533   .     S
C522   H548    1.118   .     S
C522   O564    1.416   .     S
C522   H1285   1.111   1_554 S
C523   H550    1.110   .     S
C523   H631    1.112   .     S
C524   H551    1.111   .     S
C524   C31     1.526   1_565 S
C524   H634    1.110   .     S
C524   H636    1.111   .     S
C525   H559    1.079   .     S
C525   C527    1.392   .     A
C526   H531    1.083   .     S
C526   C1252   1.396   1_554 S
C527   H542    1.083   .     S
C527   C1254   1.397   .     S
C528   H560    1.084   .     S
C528   C38     1.371   1_565 S
C529   H532    1.084   .     S
C530   H533    1.084   .     S
H540   C683    1.116   1_455 S
H544   C1259   1.110   .     S
H546   C1259   1.111   .     S
H547   C1260   1.111   .     S
H549   C687    1.112   1_455 S
H552   C688    1.110   1_455 S
H554   C688    1.111   1_455 S
N561   Zn573   2.009   .     S
N562   Zn574   2.009   .     S
O563   Zn573   1.997   .     S
O565   Zn574   1.997   .     S
O566   Zn574   1.997   .     S
O567   Zn573   1.997   .     S
O568   Zn573   1.961   .     S
O569   Zn574   1.961   .     S
O570   Zn574   1.914   .     S
O571   Zn573   1.914   .     S
O572   C683    1.413   1_455 S
C575   O645    1.282   .     A
C575   O648    1.282   .     A
C575   C578    1.417   .     S
C576   C578    1.396   .     A
C576   H616    1.084   .     S
C576   C119    1.370   1_565 S
C577   C586    1.417   .     S
C577   C612    1.397   .     A
C577   C611    1.396   .     A
C578   C610    1.397   .     A
C579   H617    1.082   .     S
C579   N644    1.366   .     A
C579   C663    1.416   .     S
C580   N643    1.366   .     A
C580   H618    1.082   .     S
C581   H619    1.082   .     S
C581   N643    1.367   .     A
C582   N644    1.367   .     A
C582   H620    1.082   .     S
C582   C662    1.416   .     S
C583   O650    1.291   .     A
C583   C585    1.457   .     S
C583   O652    1.293   .     A
C584   O651    1.294   .     A
C584   C587    1.457   .     S
C584   O653    1.291   .     A
C585   C592    1.390   .     A
C585   C590    1.397   .     A
C586   O647    1.282   .     A
C586   O649    1.282   .     A
C587   C593    1.389   .     A
C587   C591    1.397   .     A
C588   O654    1.391   .     S
C588   C590    1.407   .     A
C588   C596    1.414   .     A
C589   O646    1.384   .     S
C589   C598    1.416   .     A
C589   C591    1.401   .     A
C590   H639    1.082   .     S
C591   H638    1.083   .     S
C592   H637    1.078   .     S
C592   C594    1.394   .     A
C593   C595    1.391   .     A
C593   H635    1.080   .     S
C594   C596    1.423   .     A
C594   C599    1.419   .     A
C595   C600    1.414   .     A
C595   C598    1.417   .     A
C596   C1346   1.396   .     S
C597   C600    1.415   .     A
C597   C608    1.387   .     A
C597   H640    1.080   .     S
C598   C1347   1.397   1_554 S
C599   C607    1.418   .     A
C599   C1338   1.410   .     S
C600   C1337   1.410   1_554 S
C601   H621    1.112   .     S
C601   C1340   1.527   .     S
C601   H704    1.116   .     S
C601   O736    1.413   .     S
C602   C603    1.526   .     S
C602   H625    1.111   .     S
C602   H623    1.110   .     S
C602   C1339   1.527   1_554 S
C603   H627    1.110   .     S
C603   H1364   1.110   1_554 S
C603   H1366   1.111   1_554 S
C604   C605    1.533   .     S
C604   H630    1.118   .     S
C604   O646    1.416   .     S
C604   H1367   1.111   1_554 S
C605   H632    1.110   .     S
C605   H713    1.112   .     S
C606   H633    1.111   .     S
C606   C113    1.526   1_565 S
C606   H716    1.110   .     S
C606   H718    1.111   .     S
C607   H641    1.079   .     S
C607   C609    1.392   .     A
C608   H613    1.083   .     S
C608   C1334   1.396   1_554 S
C609   H624    1.083   .     S
C609   C1336   1.397   .     S
C610   H642    1.084   .     S
C610   C120    1.371   1_565 S
C611   H614    1.084   .     S
C612   H615    1.084   .     S
H626   C1341   1.110   .     S
H628   C1341   1.111   .     S
H629   C1342   1.111   .     S
N643   Zn655   2.009   .     S
N644   Zn656   2.009   .     S
O645   Zn655   1.997   .     S
O647   Zn656   1.997   .     S
O648   Zn656   1.997   .     S
O649   Zn655   1.997   .     S
O650   Zn655   1.961   .     S
O651   Zn656   1.961   .     S
O652   Zn656   1.914   .     S
O653   Zn655   1.914   .     S
C657   O727    1.282   .     A
C657   O730    1.282   .     A
C657   C660    1.417   .     S
C658   C660    1.396   .     A
C658   H698    1.084   .     S
C658   C201    1.370   1_565 S
C659   C668    1.417   .     S
C659   C694    1.397   .     A
C659   C693    1.396   .     A
C660   C692    1.397   .     A
C661   H699    1.082   .     S
C661   N726    1.366   .     A
C661   C499    1.416   1_655 S
C662   N725    1.366   .     A
C662   H700    1.082   .     S
C663   H701    1.082   .     S
C663   N725    1.367   .     A
C664   N726    1.367   .     A
C664   H702    1.082   .     S
C664   C498    1.416   1_655 S
C665   O732    1.291   .     A
C665   C667    1.457   .     S
C665   O734    1.293   .     A
C666   O733    1.294   .     A
C666   C669    1.457   .     S
C666   O735    1.291   .     A
C667   C674    1.390   .     A
C667   C672    1.397   .     A
C668   O729    1.282   .     A
C668   O731    1.282   .     A
C669   C675    1.389   .     A
C669   C673    1.397   .     A
C670   O736    1.391   .     S
C670   C672    1.407   .     A
C670   C678    1.414   .     A
C671   O728    1.384   .     S
C671   C680    1.416   .     A
C671   C673    1.401   .     A
C672   H721    1.082   .     S
C673   H720    1.083   .     S
C674   H719    1.078   .     S
C674   C676    1.394   .     A
C675   C677    1.391   .     A
C675   H717    1.080   .     S
C676   C678    1.423   .     A
C676   C681    1.419   .     A
C677   C682    1.414   .     A
C677   C680    1.417   .     A
C678   C1428   1.396   .     S
C679   C682    1.415   .     A
C679   C690    1.387   .     A
C679   H722    1.080   .     S
C680   C1429   1.397   1_554 S
C681   C689    1.418   .     A
C681   C1420   1.410   .     S
C682   C1419   1.410   1_554 S
C683   H703    1.112   .     S
C683   C1422   1.527   .     S
C683   H540    1.116   1_655 S
C683   O572    1.413   1_655 S
C684   C685    1.526   .     S
C684   H707    1.111   .     S
C684   H705    1.110   .     S
C684   C1421   1.527   1_554 S
C685   H709    1.110   .     S
C685   H1446   1.110   1_554 S
C685   H1448   1.111   1_554 S
C686   C687    1.533   .     S
C686   H712    1.118   .     S
C686   O728    1.416   .     S
C686   H1449   1.111   1_554 S
C687   H714    1.110   .     S
C687   H549    1.112   1_655 S
C688   H715    1.111   .     S
C688   C195    1.526   1_565 S
C688   H552    1.110   1_655 S
C688   H554    1.111   1_655 S
C689   H723    1.079   .     S
C689   C691    1.392   .     A
C690   H695    1.083   .     S
C690   C1416   1.396   1_554 S
C691   H706    1.083   .     S
C691   C1418   1.397   .     S
C692   H724    1.084   .     S
C692   C202    1.371   1_565 S
C693   H696    1.084   .     S
C694   H697    1.084   .     S
H708   C1423   1.110   .     S
H710   C1423   1.111   .     S
H711   C1424   1.111   .     S
N725   Zn737   2.009   .     S
N726   Zn738   2.009   .     S
O727   Zn737   1.997   .     S
O729   Zn738   1.997   .     S
O730   Zn738   1.997   .     S
O731   Zn737   1.997   .     S
O732   Zn737   1.961   .     S
O733   Zn738   1.961   .     S
O734   Zn738   1.914   .     S
O735   Zn737   1.914   .     S
C739   O809    1.282   .     A
C739   O812    1.282   .     A
C739   C742    1.417   .     S
C740   C742    1.396   .     A
C740   H780    1.084   .     S
C740   C1021   1.370   .     S
C741   C750    1.417   .     S
C741   C776    1.397   .     A
C741   C775    1.396   .     A
C742   C774    1.397   .     A
C743   H781    1.082   .     S
C743   N808    1.366   .     A
C743   C827    1.416   .     S
C744   N807    1.366   .     A
C744   H782    1.082   .     S
C744   C910    1.416   1_455 S
C745   H783    1.082   .     S
C745   N807    1.367   .     A
C745   C907    1.416   1_455 S
C746   N808    1.367   .     A
C746   H784    1.082   .     S
C746   C826    1.416   .     S
C747   O814    1.291   .     A
C747   C749    1.457   .     S
C747   O816    1.293   .     A
C748   O815    1.294   .     A
C748   C751    1.457   .     S
C748   O817    1.291   .     A
C749   C756    1.390   .     A
C749   C754    1.397   .     A
C750   O811    1.282   .     A
C750   O813    1.282   .     A
C751   C757    1.389   .     A
C751   C755    1.397   .     A
C752   O818    1.391   .     S
C752   C754    1.407   .     A
C752   C760    1.414   .     A
C753   O810    1.384   .     S
C753   C762    1.416   .     A
C753   C755    1.401   .     A
C754   H803    1.082   .     S
C755   H802    1.083   .     S
C756   H801    1.078   .     S
C756   C758    1.394   .     A
C757   C759    1.391   .     A
C757   H799    1.080   .     S
C758   C760    1.423   .     A
C758   C763    1.419   .     A
C759   C764    1.414   .     A
C759   C762    1.417   .     A
C760   C34     1.396   1_556 S
C761   C764    1.415   .     A
C761   C772    1.387   .     A
C761   H804    1.080   .     S
C763   C771    1.418   .     A
C763   C26     1.410   1_556 S
C765   H785    1.112   .     S
C765   C28     1.527   1_556 S
C765   H868    1.116   .     S
C765   O900    1.413   .     S
C766   C767    1.526   .     S
C766   H789    1.111   .     S
C766   H787    1.110   .     S
C767   H791    1.110   .     S
C768   C769    1.533   .     S
C768   H794    1.118   .     S
C768   O810    1.416   .     S
C769   H796    1.110   .     S
C769   C1262   1.526   1_545 S
C769   H877    1.112   .     S
C770   H797    1.111   .     S
C770   C1015   1.526   .     S
C770   H880    1.110   .     S
C770   H882    1.111   .     S
C771   H805    1.079   .     S
C771   C773    1.392   .     A
C772   H777    1.083   .     S
C773   H788    1.083   .     S
C773   C24     1.397   1_556 S
C774   H806    1.084   .     S
C774   C1022   1.371   .     S
C775   H778    1.084   .     S
C775   C1232   1.370   1_545 S
C776   H779    1.084   .     S
C776   C1266   1.371   1_545 S
H786   C929    1.116   1_455 S
H790   C29     1.110   1_556 S
H792   C29     1.111   1_556 S
H793   C30     1.111   1_556 S
H795   C933    1.112   1_455 S
H798   C934    1.110   1_455 S
H800   C934    1.111   1_455 S
N807   Zn819   2.009   .     S
N808   Zn820   2.009   .     S
O809   Zn819   1.997   .     S
O811   Zn820   1.997   .     S
O812   Zn820   1.997   .     S
O813   Zn819   1.997   .     S
O814   Zn819   1.961   .     S
O815   Zn820   1.961   .     S
O816   Zn820   1.914   .     S
O817   Zn819   1.914   .     S
O818   C929    1.413   1_455 S
C821   O891    1.282   .     A
C821   O894    1.282   .     A
C821   C824    1.417   .     S
C822   C824    1.396   .     A
C822   H862    1.084   .     S
C822   C1103   1.370   .     S
C823   C832    1.417   .     S
C823   C858    1.397   .     A
C823   C857    1.396   .     A
C824   C856    1.397   .     A
C825   H863    1.082   .     S
C825   N890    1.366   .     A
C825   C909    1.416   .     S
C826   N889    1.366   .     A
C826   H864    1.082   .     S
C827   H865    1.082   .     S
C827   N889    1.367   .     A
C828   N890    1.367   .     A
C828   H866    1.082   .     S
C828   C908    1.416   .     S
C829   O896    1.291   .     A
C829   C831    1.457   .     S
C829   O898    1.293   .     A
C830   O897    1.294   .     A
C830   C833    1.457   .     S
C830   O899    1.291   .     A
C831   C838    1.390   .     A
C831   C836    1.397   .     A
C832   O893    1.282   .     A
C832   O895    1.282   .     A
C833   C839    1.389   .     A
C833   C837    1.397   .     A
C834   O900    1.391   .     S
C834   C836    1.407   .     A
C834   C842    1.414   .     A
C835   O892    1.384   .     S
C835   C844    1.416   .     A
C835   C837    1.401   .     A
C836   H885    1.082   .     S
C837   H884    1.083   .     S
C838   H883    1.078   .     S
C838   C840    1.394   .     A
C839   C841    1.391   .     A
C839   H881    1.080   .     S
C840   C842    1.423   .     A
C840   C845    1.419   .     A
C841   C846    1.414   .     A
C841   C844    1.417   .     A
C842   C116    1.396   1_556 S
C843   C846    1.415   .     A
C843   C854    1.387   .     A
C843   H886    1.080   .     S
C845   C853    1.418   .     A
C845   C108    1.410   1_556 S
C847   H867    1.112   .     S
C847   C110    1.527   1_556 S
C847   H950    1.116   .     S
C847   O982    1.413   .     S
C848   C849    1.526   .     S
C848   H871    1.111   .     S
C848   H869    1.110   .     S
C849   H873    1.110   .     S
C850   C851    1.533   .     S
C850   H876    1.118   .     S
C850   O892    1.416   .     S
C851   H878    1.110   .     S
C851   C1344   1.526   1_545 S
C851   H959    1.112   .     S
C852   H879    1.111   .     S
C852   C1097   1.526   .     S
C852   H962    1.110   .     S
C852   H964    1.111   .     S
C853   H887    1.079   .     S
C853   C855    1.392   .     A
C854   H859    1.083   .     S
C855   H870    1.083   .     S
C855   C106    1.397   1_556 S
C856   H888    1.084   .     S
C856   C1104   1.371   .     S
C857   H860    1.084   .     S
C857   C1314   1.370   1_545 S
C858   H861    1.084   .     S
C858   C1348   1.371   1_545 S
H872   C111    1.110   1_556 S
H874   C111    1.111   1_556 S
H875   C112    1.111   1_556 S
N889   Zn901   2.009   .     S
N890   Zn902   2.009   .     S
O891   Zn901   1.997   .     S
O893   Zn902   1.997   .     S
O894   Zn902   1.997   .     S
O895   Zn901   1.997   .     S
O896   Zn901   1.961   .     S
O897   Zn902   1.961   .     S
O898   Zn902   1.914   .     S
O899   Zn901   1.914   .     S
C903   O973    1.282   .     A
C903   O976    1.282   .     A
C903   C906    1.417   .     S
C904   C906    1.396   .     A
C904   H944    1.084   .     S
C904   C1185   1.370   .     S
C905   C914    1.417   .     S
C905   C940    1.397   .     A
C905   C939    1.396   .     A
C906   C938    1.397   .     A
C907   H945    1.082   .     S
C907   N972    1.366   .     A
C907   C745    1.416   1_655 S
C908   N971    1.366   .     A
C908   H946    1.082   .     S
C909   H947    1.082   .     S
C909   N971    1.367   .     A
C910   N972    1.367   .     A
C910   H948    1.082   .     S
C910   C744    1.416   1_655 S
C911   O978    1.291   .     A
C911   C913    1.457   .     S
C911   O980    1.293   .     A
C912   O979    1.294   .     A
C912   C915    1.457   .     S
C912   O981    1.291   .     A
C913   C920    1.390   .     A
C913   C918    1.397   .     A
C914   O975    1.282   .     A
C914   O977    1.282   .     A
C915   C921    1.389   .     A
C915   C919    1.397   .     A
C916   O982    1.391   .     S
C916   C918    1.407   .     A
C916   C924    1.414   .     A
C917   O974    1.384   .     S
C917   C926    1.416   .     A
C917   C919    1.401   .     A
C918   H967    1.082   .     S
C919   H966    1.083   .     S
C920   H965    1.078   .     S
C920   C922    1.394   .     A
C921   C923    1.391   .     A
C921   H963    1.080   .     S
C922   C924    1.423   .     A
C922   C927    1.419   .     A
C923   C928    1.414   .     A
C923   C926    1.417   .     A
C924   C198    1.396   1_556 S
C925   C928    1.415   .     A
C925   C936    1.387   .     A
C925   H968    1.080   .     S
C927   C935    1.418   .     A
C927   C190    1.410   1_556 S
C929   H949    1.112   .     S
C929   C192    1.527   1_556 S
C929   H786    1.116   1_655 S
C929   O818    1.413   1_655 S
C930   C931    1.526   .     S
C930   H953    1.111   .     S
C930   H951    1.110   .     S
C931   H955    1.110   .     S
C932   C933    1.533   .     S
C932   H958    1.118   .     S
C932   O974    1.416   .     S
C933   H960    1.110   .     S
C933   C1426   1.526   1_545 S
C933   H795    1.112   1_655 S
C934   H961    1.111   .     S
C934   C1179   1.526   .     S
C934   H798    1.110   1_655 S
C934   H800    1.111   1_655 S
C935   H969    1.079   .     S
C935   C937    1.392   .     A
C936   H941    1.083   .     S
C937   H952    1.083   .     S
C937   C188    1.397   1_556 S
C938   H970    1.084   .     S
C938   C1186   1.371   .     S
C939   H942    1.084   .     S
C939   C1396   1.370   1_545 S
C940   H943    1.084   .     S
C940   C1430   1.371   1_545 S
H954   C193    1.110   1_556 S
H956   C193    1.111   1_556 S
H957   C194    1.111   1_556 S
N971   Zn983   2.009   .     S
N972   Zn984   2.009   .     S
O973   Zn983   1.997   .     S
O975   Zn984   1.997   .     S
O976   Zn984   1.997   .     S
O977   Zn983   1.997   .     S
O978   Zn983   1.961   .     S
O979   Zn984   1.961   .     S
O980   Zn984   1.914   .     S
O981   Zn983   1.914   .     S
C985   O1055   1.282   .     A
C985   O1058   1.282   .     A
C985   C988    1.417   .     S
C986   C988    1.396   .     A
C986   H1026   1.084   .     S
C986   C1267   1.370   .     S
C987   C996    1.417   .     S
C987   C1022   1.397   .     A
C987   C1021   1.396   .     A
C988   C1020   1.397   .     A
C989   H1027   1.082   .     S
C989   N1054   1.366   .     A
C989   C1073   1.416   .     S
C990   N1053   1.366   .     A
C990   H1028   1.082   .     S
C990   C1156   1.416   1_455 S
C991   H1029   1.082   .     S
C991   N1053   1.367   .     A
C991   C1153   1.416   1_455 S
C992   N1054   1.367   .     A
C992   H1030   1.082   .     S
C992   C1072   1.416   .     S
C993   O1060   1.291   .     A
C993   C995    1.457   .     S
C993   O1062   1.293   .     A
C994   O1061   1.294   .     A
C994   C997    1.457   .     S
C994   O1063   1.291   .     A
C995   C1002   1.390   .     A
C995   C1000   1.397   .     A
C996   O1057   1.282   .     A
C996   O1059   1.282   .     A
C997   C1003   1.389   .     A
C997   C1001   1.397   .     A
C998   O1064   1.391   .     S
C998   C1000   1.407   .     A
C998   C1006   1.414   .     A
C999   O1056   1.384   .     S
C999   C1008   1.416   .     A
C999   C1001   1.401   .     A
C1000  H1049   1.082   .     S
C1001  H1048   1.083   .     S
C1002  H1047   1.078   .     S
C1002  C1004   1.394   .     A
C1003  C1005   1.391   .     A
C1003  H1045   1.080   .     S
C1004  C1006   1.423   .     A
C1004  C1009   1.419   .     A
C1005  C1010   1.414   .     A
C1005  C1008   1.417   .     A
C1006  C280    1.396   1_556 S
C1007  C1010   1.415   .     A
C1007  C1018   1.387   .     A
C1007  H1050   1.080   .     S
C1009  C1017   1.418   .     A
C1009  C272    1.410   1_556 S
C1011  H1031   1.112   .     S
C1011  C274    1.527   1_556 S
C1011  H1114   1.116   .     S
C1011  O1146   1.413   .     S
C1012  C1013   1.526   .     S
C1012  H1035   1.111   .     S
C1012  H1033   1.110   .     S
C1013  H1037   1.110   .     S
C1014  C1015   1.533   .     S
C1014  H1040   1.118   .     S
C1014  O1056   1.416   .     S
C1015  H1042   1.110   .     S
C1015  H1123   1.112   .     S
C1016  H1043   1.111   .     S
C1016  C1261   1.526   .     S
C1016  H1126   1.110   .     S
C1016  H1128   1.111   .     S
C1017  H1051   1.079   .     S
C1017  C1019   1.392   .     A
C1018  H1023   1.083   .     S
C1019  H1034   1.083   .     S
C1019  C270    1.397   1_556 S
C1020  H1052   1.084   .     S
C1020  C1268   1.371   .     S
C1021  H1024   1.084   .     S
C1022  H1025   1.084   .     S
H1032  C1175   1.116   1_455 S
H1036  C275    1.110   1_556 S
H1038  C275    1.111   1_556 S
H1039  C276    1.111   1_556 S
H1041  C1179   1.112   1_455 S
H1044  C1180   1.110   1_455 S
H1046  C1180   1.111   1_455 S
N1053  Zn1065  2.009   .     S
N1054  Zn1066  2.009   .     S
O1055  Zn1065  1.997   .     S
O1057  Zn1066  1.997   .     S
O1058  Zn1066  1.997   .     S
O1059  Zn1065  1.997   .     S
O1060  Zn1065  1.961   .     S
O1061  Zn1066  1.961   .     S
O1062  Zn1066  1.914   .     S
O1063  Zn1065  1.914   .     S
O1064  C1175   1.413   1_455 S
C1067  O1137   1.282   .     A
C1067  O1140   1.282   .     A
C1067  C1070   1.417   .     S
C1068  C1070   1.396   .     A
C1068  H1108   1.084   .     S
C1068  C1349   1.370   .     S
C1069  C1078   1.417   .     S
C1069  C1104   1.397   .     A
C1069  C1103   1.396   .     A
C1070  C1102   1.397   .     A
C1071  H1109   1.082   .     S
C1071  N1136   1.366   .     A
C1071  C1155   1.416   .     S
C1072  N1135   1.366   .     A
C1072  H1110   1.082   .     S
C1073  H1111   1.082   .     S
C1073  N1135   1.367   .     A
C1074  N1136   1.367   .     A
C1074  H1112   1.082   .     S
C1074  C1154   1.416   .     S
C1075  O1142   1.291   .     A
C1075  C1077   1.457   .     S
C1075  O1144   1.293   .     A
C1076  O1143   1.294   .     A
C1076  C1079   1.457   .     S
C1076  O1145   1.291   .     A
C1077  C1084   1.390   .     A
C1077  C1082   1.397   .     A
C1078  O1139   1.282   .     A
C1078  O1141   1.282   .     A
C1079  C1085   1.389   .     A
C1079  C1083   1.397   .     A
C1080  O1146   1.391   .     S
C1080  C1082   1.407   .     A
C1080  C1088   1.414   .     A
C1081  O1138   1.384   .     S
C1081  C1090   1.416   .     A
C1081  C1083   1.401   .     A
C1082  H1131   1.082   .     S
C1083  H1130   1.083   .     S
C1084  H1129   1.078   .     S
C1084  C1086   1.394   .     A
C1085  C1087   1.391   .     A
C1085  H1127   1.080   .     S
C1086  C1088   1.423   .     A
C1086  C1091   1.419   .     A
C1087  C1092   1.414   .     A
C1087  C1090   1.417   .     A
C1088  C362    1.396   1_556 S
C1089  C1092   1.415   .     A
C1089  C1100   1.387   .     A
C1089  H1132   1.080   .     S
C1091  C1099   1.418   .     A
C1091  C354    1.410   1_556 S
C1093  H1113   1.112   .     S
C1093  C356    1.527   1_556 S
C1093  H1196   1.116   .     S
C1093  O1228   1.413   .     S
C1094  C1095   1.526   .     S
C1094  H1117   1.111   .     S
C1094  H1115   1.110   .     S
C1095  H1119   1.110   .     S
C1096  C1097   1.533   .     S
C1096  H1122   1.118   .     S
C1096  O1138   1.416   .     S
C1097  H1124   1.110   .     S
C1097  H1205   1.112   .     S
C1098  H1125   1.111   .     S
C1098  C1343   1.526   .     S
C1098  H1208   1.110   .     S
C1098  H1210   1.111   .     S
C1099  H1133   1.079   .     S
C1099  C1101   1.392   .     A
C1100  H1105   1.083   .     S
C1101  H1116   1.083   .     S
C1101  C352    1.397   1_556 S
C1102  H1134   1.084   .     S
C1102  C1350   1.371   .     S
C1103  H1106   1.084   .     S
C1104  H1107   1.084   .     S
H1118  C357    1.110   1_556 S
H1120  C357    1.111   1_556 S
H1121  C358    1.111   1_556 S
N1135  Zn1147  2.009   .     S
N1136  Zn1148  2.009   .     S
O1137  Zn1147  1.997   .     S
O1139  Zn1148  1.997   .     S
O1140  Zn1148  1.997   .     S
O1141  Zn1147  1.997   .     S
O1142  Zn1147  1.961   .     S
O1143  Zn1148  1.961   .     S
O1144  Zn1148  1.914   .     S
O1145  Zn1147  1.914   .     S
C1149  O1219   1.282   .     A
C1149  O1222   1.282   .     A
C1149  C1152   1.417   .     S
C1150  C1152   1.396   .     A
C1150  H1190   1.084   .     S
C1150  C1431   1.370   .     S
C1151  C1160   1.417   .     S
C1151  C1186   1.397   .     A
C1151  C1185   1.396   .     A
C1152  C1184   1.397   .     A
C1153  H1191   1.082   .     S
C1153  N1218   1.366   .     A
C1153  C991    1.416   1_655 S
C1154  N1217   1.366   .     A
C1154  H1192   1.082   .     S
C1155  H1193   1.082   .     S
C1155  N1217   1.367   .     A
C1156  N1218   1.367   .     A
C1156  H1194   1.082   .     S
C1156  C990    1.416   1_655 S
C1157  O1224   1.291   .     A
C1157  C1159   1.457   .     S
C1157  O1226   1.293   .     A
C1158  O1225   1.294   .     A
C1158  C1161   1.457   .     S
C1158  O1227   1.291   .     A
C1159  C1166   1.390   .     A
C1159  C1164   1.397   .     A
C1160  O1221   1.282   .     A
C1160  O1223   1.282   .     A
C1161  C1167   1.389   .     A
C1161  C1165   1.397   .     A
C1162  O1228   1.391   .     S
C1162  C1164   1.407   .     A
C1162  C1170   1.414   .     A
C1163  O1220   1.384   .     S
C1163  C1172   1.416   .     A
C1163  C1165   1.401   .     A
C1164  H1213   1.082   .     S
C1165  H1212   1.083   .     S
C1166  H1211   1.078   .     S
C1166  C1168   1.394   .     A
C1167  C1169   1.391   .     A
C1167  H1209   1.080   .     S
C1168  C1170   1.423   .     A
C1168  C1173   1.419   .     A
C1169  C1174   1.414   .     A
C1169  C1172   1.417   .     A
C1170  C444    1.396   1_556 S
C1171  C1174   1.415   .     A
C1171  C1182   1.387   .     A
C1171  H1214   1.080   .     S
C1173  C1181   1.418   .     A
C1173  C436    1.410   1_556 S
C1175  H1195   1.112   .     S
C1175  C438    1.527   1_556 S
C1175  H1032   1.116   1_655 S
C1175  O1064   1.413   1_655 S
C1176  C1177   1.526   .     S
C1176  H1199   1.111   .     S
C1176  H1197   1.110   .     S
C1177  H1201   1.110   .     S
C1178  C1179   1.533   .     S
C1178  H1204   1.118   .     S
C1178  O1220   1.416   .     S
C1179  H1206   1.110   .     S
C1179  H1041   1.112   1_655 S
C1180  H1207   1.111   .     S
C1180  C1425   1.526   .     S
C1180  H1044   1.110   1_655 S
C1180  H1046   1.111   1_655 S
C1181  H1215   1.079   .     S
C1181  C1183   1.392   .     A
C1182  H1187   1.083   .     S
C1183  H1198   1.083   .     S
C1183  C434    1.397   1_556 S
C1184  H1216   1.084   .     S
C1184  C1432   1.371   .     S
C1185  H1188   1.084   .     S
C1186  H1189   1.084   .     S
H1200  C439    1.110   1_556 S
H1202  C439    1.111   1_556 S
H1203  C440    1.111   1_556 S
N1217  Zn1229  2.009   .     S
N1218  Zn1230  2.009   .     S
O1219  Zn1229  1.997   .     S
O1221  Zn1230  1.997   .     S
O1222  Zn1230  1.997   .     S
O1223  Zn1229  1.997   .     S
O1224  Zn1229  1.961   .     S
O1225  Zn1230  1.961   .     S
O1226  Zn1230  1.914   .     S
O1227  Zn1229  1.914   .     S
C1231  O1301   1.282   .     A
C1231  O1304   1.282   .     A
C1231  C1234   1.417   .     S
C1232  C1234   1.396   .     A
C1232  H1272   1.084   .     S
C1232  C775    1.370   1_565 S
C1233  C1242   1.417   .     S
C1233  C1268   1.397   .     A
C1233  C1267   1.396   .     A
C1234  C1266   1.397   .     A
C1235  H1273   1.082   .     S
C1235  N1300   1.366   .     A
C1235  C1319   1.416   .     S
C1236  N1299   1.366   .     A
C1236  H1274   1.082   .     S
C1236  C1402   1.416   1_455 S
C1237  H1275   1.082   .     S
C1237  N1299   1.367   .     A
C1237  C1399   1.416   1_455 S
C1238  N1300   1.367   .     A
C1238  H1276   1.082   .     S
C1238  C1318   1.416   .     S
C1239  O1306   1.291   .     A
C1239  C1241   1.457   .     S
C1239  O1308   1.293   .     A
C1240  O1307   1.294   .     A
C1240  C1243   1.457   .     S
C1240  O1309   1.291   .     A
C1241  C1248   1.390   .     A
C1241  C1246   1.397   .     A
C1242  O1303   1.282   .     A
C1242  O1305   1.282   .     A
C1243  C1249   1.389   .     A
C1243  C1247   1.397   .     A
C1244  O1310   1.391   .     S
C1244  C1246   1.407   .     A
C1244  C1252   1.414   .     A
C1245  O1302   1.384   .     S
C1245  C1254   1.416   .     A
C1245  C1247   1.401   .     A
C1246  H1295   1.082   .     S
C1247  H1294   1.083   .     S
C1248  H1293   1.078   .     S
C1248  C1250   1.394   .     A
C1249  C1251   1.391   .     A
C1249  H1291   1.080   .     S
C1250  C1252   1.423   .     A
C1250  C1255   1.419   .     A
C1251  C1256   1.414   .     A
C1251  C1254   1.417   .     A
C1252  C526    1.396   1_556 S
C1253  C1256   1.415   .     A
C1253  C1264   1.387   .     A
C1253  H1296   1.080   .     S
C1255  C1263   1.418   .     A
C1255  C518    1.410   1_556 S
C1257  H1277   1.112   .     S
C1257  C520    1.527   1_556 S
C1257  H1360   1.116   .     S
C1257  O1392   1.413   .     S
C1258  C1259   1.526   .     S
C1258  H1281   1.111   .     S
C1258  H1279   1.110   .     S
C1259  H1283   1.110   .     S
C1260  C1261   1.533   .     S
C1260  H1286   1.118   .     S
C1260  O1302   1.416   .     S
C1261  H1288   1.110   .     S
C1261  H1369   1.112   .     S
C1262  H1289   1.111   .     S
C1262  C769    1.526   1_565 S
C1262  H1372   1.110   .     S
C1262  H1374   1.111   .     S
C1263  H1297   1.079   .     S
C1263  C1265   1.392   .     A
C1264  H1269   1.083   .     S
C1265  H1280   1.083   .     S
C1265  C516    1.397   1_556 S
C1266  H1298   1.084   .     S
C1266  C776    1.371   1_565 S
C1267  H1270   1.084   .     S
C1268  H1271   1.084   .     S
H1278  C1421   1.116   1_455 S
H1282  C521    1.110   1_556 S
H1284  C521    1.111   1_556 S
H1285  C522    1.111   1_556 S
H1287  C1425   1.112   1_455 S
H1290  C1426   1.110   1_455 S
H1292  C1426   1.111   1_455 S
N1299  Zn1311  2.009   .     S
N1300  Zn1312  2.009   .     S
O1301  Zn1311  1.997   .     S
O1303  Zn1312  1.997   .     S
O1304  Zn1312  1.997   .     S
O1305  Zn1311  1.997   .     S
O1306  Zn1311  1.961   .     S
O1307  Zn1312  1.961   .     S
O1308  Zn1312  1.914   .     S
O1309  Zn1311  1.914   .     S
O1310  C1421   1.413   1_455 S
C1313  O1383   1.282   .     A
C1313  O1386   1.282   .     A
C1313  C1316   1.417   .     S
C1314  C1316   1.396   .     A
C1314  H1354   1.084   .     S
C1314  C857    1.370   1_565 S
C1315  C1324   1.417   .     S
C1315  C1350   1.397   .     A
C1315  C1349   1.396   .     A
C1316  C1348   1.397   .     A
C1317  H1355   1.082   .     S
C1317  N1382   1.366   .     A
C1317  C1401   1.416   .     S
C1318  N1381   1.366   .     A
C1318  H1356   1.082   .     S
C1319  H1357   1.082   .     S
C1319  N1381   1.367   .     A
C1320  N1382   1.367   .     A
C1320  H1358   1.082   .     S
C1320  C1400   1.416   .     S
C1321  O1388   1.291   .     A
C1321  C1323   1.457   .     S
C1321  O1390   1.293   .     A
C1322  O1389   1.294   .     A
C1322  C1325   1.457   .     S
C1322  O1391   1.291   .     A
C1323  C1330   1.390   .     A
C1323  C1328   1.397   .     A
C1324  O1385   1.282   .     A
C1324  O1387   1.282   .     A
C1325  C1331   1.389   .     A
C1325  C1329   1.397   .     A
C1326  O1392   1.391   .     S
C1326  C1328   1.407   .     A
C1326  C1334   1.414   .     A
C1327  O1384   1.384   .     S
C1327  C1336   1.416   .     A
C1327  C1329   1.401   .     A
C1328  H1377   1.082   .     S
C1329  H1376   1.083   .     S
C1330  H1375   1.078   .     S
C1330  C1332   1.394   .     A
C1331  C1333   1.391   .     A
C1331  H1373   1.080   .     S
C1332  C1334   1.423   .     A
C1332  C1337   1.419   .     A
C1333  C1338   1.414   .     A
C1333  C1336   1.417   .     A
C1334  C608    1.396   1_556 S
C1335  C1338   1.415   .     A
C1335  C1346   1.387   .     A
C1335  H1378   1.080   .     S
C1337  C1345   1.418   .     A
C1337  C600    1.410   1_556 S
C1339  H1359   1.112   .     S
C1339  C602    1.527   1_556 S
C1339  H1442   1.116   .     S
C1339  O1474   1.413   .     S
C1340  C1341   1.526   .     S
C1340  H1363   1.111   .     S
C1340  H1361   1.110   .     S
C1341  H1365   1.110   .     S
C1342  C1343   1.533   .     S
C1342  H1368   1.118   .     S
C1342  O1384   1.416   .     S
C1343  H1370   1.110   .     S
C1343  H1451   1.112   .     S
C1344  H1371   1.111   .     S
C1344  C851    1.526   1_565 S
C1344  H1454   1.110   .     S
C1344  H1456   1.111   .     S
C1345  H1379   1.079   .     S
C1345  C1347   1.392   .     A
C1346  H1351   1.083   .     S
C1347  H1362   1.083   .     S
C1347  C598    1.397   1_556 S
C1348  H1380   1.084   .     S
C1348  C858    1.371   1_565 S
C1349  H1352   1.084   .     S
C1350  H1353   1.084   .     S
H1364  C603    1.110   1_556 S
H1366  C603    1.111   1_556 S
H1367  C604    1.111   1_556 S
N1381  Zn1393  2.009   .     S
N1382  Zn1394  2.009   .     S
O1383  Zn1393  1.997   .     S
O1385  Zn1394  1.997   .     S
O1386  Zn1394  1.997   .     S
O1387  Zn1393  1.997   .     S
O1388  Zn1393  1.961   .     S
O1389  Zn1394  1.961   .     S
O1390  Zn1394  1.914   .     S
O1391  Zn1393  1.914   .     S
C1395  O1465   1.282   .     A
C1395  O1468   1.282   .     A
C1395  C1398   1.417   .     S
C1396  C1398   1.396   .     A
C1396  H1436   1.084   .     S
C1396  C939    1.370   1_565 S
C1397  C1406   1.417   .     S
C1397  C1432   1.397   .     A
C1397  C1431   1.396   .     A
C1398  C1430   1.397   .     A
C1399  H1437   1.082   .     S
C1399  N1464   1.366   .     A
C1399  C1237   1.416   1_655 S
C1400  N1463   1.366   .     A
C1400  H1438   1.082   .     S
C1401  H1439   1.082   .     S
C1401  N1463   1.367   .     A
C1402  N1464   1.367   .     A
C1402  H1440   1.082   .     S
C1402  C1236   1.416   1_655 S
C1403  O1470   1.291   .     A
C1403  C1405   1.457   .     S
C1403  O1472   1.293   .     A
C1404  O1471   1.294   .     A
C1404  C1407   1.457   .     S
C1404  O1473   1.291   .     A
C1405  C1412   1.390   .     A
C1405  C1410   1.397   .     A
C1406  O1467   1.282   .     A
C1406  O1469   1.282   .     A
C1407  C1413   1.389   .     A
C1407  C1411   1.397   .     A
C1408  O1474   1.391   .     S
C1408  C1410   1.407   .     A
C1408  C1416   1.414   .     A
C1409  O1466   1.384   .     S
C1409  C1418   1.416   .     A
C1409  C1411   1.401   .     A
C1410  H1459   1.082   .     S
C1411  H1458   1.083   .     S
C1412  H1457   1.078   .     S
C1412  C1414   1.394   .     A
C1413  C1415   1.391   .     A
C1413  H1455   1.080   .     S
C1414  C1416   1.423   .     A
C1414  C1419   1.419   .     A
C1415  C1420   1.414   .     A
C1415  C1418   1.417   .     A
C1416  C690    1.396   1_556 S
C1417  C1420   1.415   .     A
C1417  C1428   1.387   .     A
C1417  H1460   1.080   .     S
C1419  C1427   1.418   .     A
C1419  C682    1.410   1_556 S
C1421  H1441   1.112   .     S
C1421  C684    1.527   1_556 S
C1421  H1278   1.116   1_655 S
C1421  O1310   1.413   1_655 S
C1422  C1423   1.526   .     S
C1422  H1445   1.111   .     S
C1422  H1443   1.110   .     S
C1423  H1447   1.110   .     S
C1424  C1425   1.533   .     S
C1424  H1450   1.118   .     S
C1424  O1466   1.416   .     S
C1425  H1452   1.110   .     S
C1425  H1287   1.112   1_655 S
C1426  H1453   1.111   .     S
C1426  C933    1.526   1_565 S
C1426  H1290   1.110   1_655 S
C1426  H1292   1.111   1_655 S
C1427  H1461   1.079   .     S
C1427  C1429   1.392   .     A
C1428  H1433   1.083   .     S
C1429  H1444   1.083   .     S
C1429  C680    1.397   1_556 S
C1430  H1462   1.084   .     S
C1430  C940    1.371   1_565 S
C1431  H1434   1.084   .     S
C1432  H1435   1.084   .     S
H1446  C685    1.110   1_556 S
H1448  C685    1.111   1_556 S
H1449  C686    1.111   1_556 S
N1463  Zn1475  2.009   .     S
N1464  Zn1476  2.009   .     S
O1465  Zn1475  1.997   .     S
O1467  Zn1476  1.997   .     S
O1468  Zn1476  1.997   .     S
O1469  Zn1475  1.997   .     S
O1470  Zn1475  1.961   .     S
O1471  Zn1476  1.961   .     S
O1472  Zn1476  1.914   .     S
O1473  Zn1475  1.914   .     S
