data_str_m3_o1_o2_pcu_sym.34
_audit_creation_date              2020-01-03
_audit_creation_method            'Materials Studio'
_symmetry_space_group_name_H-M    'P1'
_symmetry_Int_Tables_number       1
_symmetry_cell_setting            triclinic
loop_
_symmetry_equiv_pos_as_xyz
  x,y,z
_cell_length_a                    32.3435
_cell_length_b                    29.3733
_cell_length_c                    30.0183
_cell_angle_alpha                 89.9867
_cell_angle_beta                  90.1295
_cell_angle_gamma                 89.9795
loop_
_atom_site_label
_atom_site_type_symbol
_atom_site_fract_x
_atom_site_fract_y
_atom_site_fract_z
_atom_site_U_iso_or_equiv
_atom_site_adp_type
_atom_site_occupancy
C1     C     0.08661   0.16672   0.24655   0.00000  Uiso   1.00
C2     C     0.31182   0.20882   0.23503   0.00000  Uiso   1.00
C3     C     0.31186   0.12532   0.23262   0.00000  Uiso   1.00
C4     C     0.02134   0.20886   0.23524   0.00000  Uiso   1.00
C5     C     0.18763   0.20034   0.04640   0.00000  Uiso   1.00
C6     C     0.18564   0.13157   0.45399   0.00000  Uiso   1.00
C7     C     0.14570   0.20163   0.45354   0.00000  Uiso   1.00
C8     C     0.14362   0.13327   0.04664   0.00000  Uiso   1.00
C9     C     0.18851   0.20035   0.09255   0.00000  Uiso   1.00
C10    C     0.18660   0.13150   0.40784   0.00000  Uiso   1.00
C11    C     0.14555   0.20177   0.40737   0.00000  Uiso   1.00
C12    C     0.24670   0.16670   0.24656   0.00000  Uiso   1.00
C13    C     0.14345   0.13318   0.09280   0.00000  Uiso   1.00
C14    C     0.16621   0.16671   0.11584   0.00000  Uiso   1.00
C15    C     0.16629   0.16666   0.38435   0.00000  Uiso   1.00
C16    C     0.16549   0.16679   0.02396   0.00000  Uiso   1.00
C17    C     0.16549   0.16659   0.47632   0.00000  Uiso   1.00
C18    C     0.29067   0.16691   0.23825   0.00000  Uiso   1.00
C19    C     0.04258   0.16696   0.23828   0.00000  Uiso   1.00
C20    C     0.16658   0.16667   0.16385   0.00000  Uiso   1.00
C21    C     0.16663   0.16666   0.33621   0.00000  Uiso   1.00
C22    C     0.19208   0.02402   0.27811   0.00000  Uiso   1.00
C23    C     0.14141   0.30931   0.22174   0.00000  Uiso   1.00
C24    C     0.14140   0.02405   0.22175   0.00000  Uiso   1.00
C25    C     0.19206   0.30927   0.27813   0.00000  Uiso   1.00
C26    C     0.02143   0.12537   0.23247   0.00000  Uiso   1.00
H27    H     0.21239   0.04234   0.30047   0.00000  Uiso   1.00
H28    H     0.24352   0.23051   0.10503   0.00000  Uiso   1.00
H29    H     0.19663   0.06503   0.39420   0.00000  Uiso   1.00
H30    H     0.23979   0.09747   0.39595   0.00000  Uiso   1.00
H31    H     0.09261   0.23590   0.39421   0.00000  Uiso   1.00
H32    H     0.13582   0.26829   0.39360   0.00000  Uiso   1.00
H33    H     0.08857   0.10317   0.10600   0.00000  Uiso   1.00
H34    H     0.12968   0.06758   0.10668   0.00000  Uiso   1.00
H35    H     0.03553   0.06917   0.19560   0.00000  Uiso   1.00
H36    H     0.03565   0.06062   0.25184   0.00000  Uiso   1.00
H37    H     0.29773   0.26757   0.20198   0.00000  Uiso   1.00
H38    H     0.12132   0.29100   0.19914   0.00000  Uiso   1.00
H39    H     0.29768   0.27211   0.25870   0.00000  Uiso   1.00
H40    H     0.29765   0.06863   0.19646   0.00000  Uiso   1.00
H41    H     0.29790   0.06080   0.25279   0.00000  Uiso   1.00
H42    H     0.03541   0.26799   0.20293   0.00000  Uiso   1.00
H43    H     0.03519   0.27190   0.25968   0.00000  Uiso   1.00
H44    H     0.12129   0.04238   0.19918   0.00000  Uiso   1.00
H45    H     0.21231   0.29092   0.30055   0.00000  Uiso   1.00
H46    H     0.20474   0.22591   0.02804   0.00000  Uiso   1.00
H47    H     0.20120   0.10482   0.47245   0.00000  Uiso   1.00
H48    H     0.12995   0.22843   0.47165   0.00000  Uiso   1.00
H49    H     0.12631   0.10766   0.02846   0.00000  Uiso   1.00
H50    H     0.20233   0.26596   0.10635   0.00000  Uiso   1.00
N51    N     0.16667   0.28573   0.25000   0.00000  Uiso   1.00
N52    N     0.04322   0.25142   0.23259   0.00000  Uiso   1.00
N53    N     0.16667   0.04760   0.25000   0.00000  Uiso   1.00
N54    N     0.21288   0.23366   0.11563   0.00000  Uiso   1.00
N55    N     0.20908   0.09651   0.38503   0.00000  Uiso   1.00
N56    N     0.12350   0.23685   0.38406   0.00000  Uiso   1.00
N57    N     0.11937   0.09989   0.11616   0.00000  Uiso   1.00
N58    N     0.04349   0.08330   0.22640   0.00000  Uiso   1.00
N59    N     0.28983   0.25131   0.23174   0.00000  Uiso   1.00
N60    N     0.28984   0.08313   0.22708   0.00000  Uiso   1.00
O61    O     0.10559   0.20487   0.24999   0.00000  Uiso   1.00
O62    O     0.22774   0.12846   0.25000   0.00000  Uiso   1.00
O63    O     0.22774   0.20487   0.25000   0.00000  Uiso   1.00
O64    O     0.10559   0.12846   0.24999   0.00000  Uiso   1.00
O65    O     0.16666   0.20489   0.18453   0.00000  Uiso   1.00
O66    O     0.16667   0.12845   0.31547   0.00000  Uiso   1.00
O67    O     0.16667   0.20489   0.31547   0.00000  Uiso   1.00
O68    O     0.16666   0.12845   0.18453   0.00000  Uiso   1.00
Zn69   Zn    0.16667   0.21771   0.25000   0.00000  Uiso   1.00
Zn70   Zn    0.16667   0.11563   0.25000   0.00000  Uiso   1.00
C71    C     0.41995   0.16672   0.24655   0.00000  Uiso   1.00
C72    C     0.64515   0.20882   0.23503   0.00000  Uiso   1.00
C73    C     0.64519   0.12532   0.23262   0.00000  Uiso   1.00
C74    C     0.35467   0.20886   0.23524   0.00000  Uiso   1.00
C75    C     0.52096   0.20034   0.04640   0.00000  Uiso   1.00
C76    C     0.51898   0.13157   0.45399   0.00000  Uiso   1.00
C77    C     0.47904   0.20163   0.45354   0.00000  Uiso   1.00
C78    C     0.47696   0.13327   0.04664   0.00000  Uiso   1.00
C79    C     0.52184   0.20035   0.09255   0.00000  Uiso   1.00
C80    C     0.51993   0.13150   0.40784   0.00000  Uiso   1.00
C81    C     0.47888   0.20177   0.40737   0.00000  Uiso   1.00
C82    C     0.58003   0.16670   0.24656   0.00000  Uiso   1.00
C83    C     0.47679   0.13318   0.09280   0.00000  Uiso   1.00
C84    C     0.49954   0.16671   0.11584   0.00000  Uiso   1.00
C85    C     0.49962   0.16666   0.38435   0.00000  Uiso   1.00
C86    C     0.49882   0.16679   0.02396   0.00000  Uiso   1.00
C87    C     0.49883   0.16659   0.47632   0.00000  Uiso   1.00
C88    C     0.62400   0.16691   0.23825   0.00000  Uiso   1.00
C89    C     0.37592   0.16696   0.23828   0.00000  Uiso   1.00
C90    C     0.49991   0.16667   0.16385   0.00000  Uiso   1.00
C91    C     0.49997   0.16666   0.33621   0.00000  Uiso   1.00
C92    C     0.52541   0.02402   0.27811   0.00000  Uiso   1.00
C93    C     0.47474   0.30931   0.22174   0.00000  Uiso   1.00
C94    C     0.47473   0.02405   0.22175   0.00000  Uiso   1.00
C95    C     0.52539   0.30927   0.27813   0.00000  Uiso   1.00
C96    C     0.35476   0.12537   0.23247   0.00000  Uiso   1.00
H97    H     0.54572   0.04234   0.30047   0.00000  Uiso   1.00
H98    H     0.57685   0.23051   0.10503   0.00000  Uiso   1.00
H99    H     0.52996   0.06503   0.39420   0.00000  Uiso   1.00
H100   H     0.57313   0.09747   0.39595   0.00000  Uiso   1.00
H101   H     0.42594   0.23590   0.39421   0.00000  Uiso   1.00
H102   H     0.46916   0.26829   0.39360   0.00000  Uiso   1.00
H103   H     0.42190   0.10317   0.10600   0.00000  Uiso   1.00
H104   H     0.46301   0.06758   0.10668   0.00000  Uiso   1.00
H105   H     0.36886   0.06917   0.19560   0.00000  Uiso   1.00
H106   H     0.36899   0.06062   0.25184   0.00000  Uiso   1.00
H107   H     0.63106   0.26757   0.20198   0.00000  Uiso   1.00
H108   H     0.45466   0.29100   0.19914   0.00000  Uiso   1.00
H109   H     0.63101   0.27211   0.25870   0.00000  Uiso   1.00
H110   H     0.63099   0.06863   0.19646   0.00000  Uiso   1.00
H111   H     0.63123   0.06080   0.25279   0.00000  Uiso   1.00
H112   H     0.36874   0.26799   0.20293   0.00000  Uiso   1.00
H113   H     0.36852   0.27190   0.25968   0.00000  Uiso   1.00
H114   H     0.45462   0.04238   0.19918   0.00000  Uiso   1.00
H115   H     0.54565   0.29092   0.30055   0.00000  Uiso   1.00
H116   H     0.53807   0.22591   0.02804   0.00000  Uiso   1.00
H117   H     0.53454   0.10482   0.47245   0.00000  Uiso   1.00
H118   H     0.46328   0.22843   0.47165   0.00000  Uiso   1.00
H119   H     0.45965   0.10766   0.02846   0.00000  Uiso   1.00
H120   H     0.53566   0.26596   0.10635   0.00000  Uiso   1.00
N121   N     0.50000   0.28573   0.25000   0.00000  Uiso   1.00
N122   N     0.37655   0.25142   0.23259   0.00000  Uiso   1.00
N123   N     0.50000   0.04760   0.25000   0.00000  Uiso   1.00
N124   N     0.54621   0.23366   0.11563   0.00000  Uiso   1.00
N125   N     0.54241   0.09651   0.38503   0.00000  Uiso   1.00
N126   N     0.45683   0.23685   0.38406   0.00000  Uiso   1.00
N127   N     0.45271   0.09989   0.11616   0.00000  Uiso   1.00
N128   N     0.37682   0.08330   0.22640   0.00000  Uiso   1.00
N129   N     0.62317   0.25131   0.23174   0.00000  Uiso   1.00
N130   N     0.62317   0.08313   0.22708   0.00000  Uiso   1.00
O131   O     0.43892   0.20487   0.24999   0.00000  Uiso   1.00
O132   O     0.56108   0.12846   0.25000   0.00000  Uiso   1.00
O133   O     0.56108   0.20487   0.25000   0.00000  Uiso   1.00
O134   O     0.43892   0.12846   0.24999   0.00000  Uiso   1.00
O135   O     0.50000   0.20489   0.18453   0.00000  Uiso   1.00
O136   O     0.50000   0.12845   0.31547   0.00000  Uiso   1.00
O137   O     0.50000   0.20489   0.31547   0.00000  Uiso   1.00
O138   O     0.50000   0.12845   0.18453   0.00000  Uiso   1.00
Zn139  Zn    0.50000   0.21771   0.25000   0.00000  Uiso   1.00
Zn140  Zn    0.50000   0.11563   0.25000   0.00000  Uiso   1.00
C141   C     0.75328   0.16672   0.24655   0.00000  Uiso   1.00
C142   C     0.97849   0.20882   0.23503   0.00000  Uiso   1.00
C143   C     0.97852   0.12532   0.23262   0.00000  Uiso   1.00
C144   C     0.68801   0.20886   0.23524   0.00000  Uiso   1.00
C145   C     0.85430   0.20034   0.04640   0.00000  Uiso   1.00
C146   C     0.85231   0.13157   0.45399   0.00000  Uiso   1.00
C147   C     0.81237   0.20163   0.45354   0.00000  Uiso   1.00
C148   C     0.81029   0.13327   0.04664   0.00000  Uiso   1.00
C149   C     0.85518   0.20035   0.09255   0.00000  Uiso   1.00
C150   C     0.85326   0.13150   0.40784   0.00000  Uiso   1.00
C151   C     0.81221   0.20177   0.40737   0.00000  Uiso   1.00
C152   C     0.91336   0.16670   0.24656   0.00000  Uiso   1.00
C153   C     0.81012   0.13318   0.09280   0.00000  Uiso   1.00
C154   C     0.83288   0.16671   0.11584   0.00000  Uiso   1.00
C155   C     0.83296   0.16666   0.38435   0.00000  Uiso   1.00
C156   C     0.83215   0.16679   0.02396   0.00000  Uiso   1.00
C157   C     0.83216   0.16659   0.47632   0.00000  Uiso   1.00
C158   C     0.95734   0.16691   0.23825   0.00000  Uiso   1.00
C159   C     0.70925   0.16696   0.23828   0.00000  Uiso   1.00
C160   C     0.83325   0.16667   0.16385   0.00000  Uiso   1.00
C161   C     0.83330   0.16666   0.33621   0.00000  Uiso   1.00
C162   C     0.85874   0.02402   0.27811   0.00000  Uiso   1.00
C163   C     0.80807   0.30931   0.22174   0.00000  Uiso   1.00
C164   C     0.80806   0.02405   0.22175   0.00000  Uiso   1.00
C165   C     0.85872   0.30927   0.27813   0.00000  Uiso   1.00
C166   C     0.68810   0.12537   0.23247   0.00000  Uiso   1.00
H167   H     0.87905   0.04234   0.30047   0.00000  Uiso   1.00
H168   H     0.91019   0.23051   0.10503   0.00000  Uiso   1.00
H169   H     0.86330   0.06503   0.39420   0.00000  Uiso   1.00
H170   H     0.90646   0.09747   0.39595   0.00000  Uiso   1.00
H171   H     0.75927   0.23590   0.39421   0.00000  Uiso   1.00
H172   H     0.80249   0.26829   0.39360   0.00000  Uiso   1.00
H173   H     0.75524   0.10317   0.10600   0.00000  Uiso   1.00
H174   H     0.79635   0.06758   0.10668   0.00000  Uiso   1.00
H175   H     0.70219   0.06917   0.19560   0.00000  Uiso   1.00
H176   H     0.70232   0.06062   0.25184   0.00000  Uiso   1.00
H177   H     0.96440   0.26757   0.20198   0.00000  Uiso   1.00
H178   H     0.78799   0.29100   0.19914   0.00000  Uiso   1.00
H179   H     0.96435   0.27211   0.25870   0.00000  Uiso   1.00
H180   H     0.96432   0.06863   0.19646   0.00000  Uiso   1.00
H181   H     0.96457   0.06080   0.25279   0.00000  Uiso   1.00
H182   H     0.70207   0.26799   0.20293   0.00000  Uiso   1.00
H183   H     0.70186   0.27190   0.25968   0.00000  Uiso   1.00
H184   H     0.78796   0.04238   0.19918   0.00000  Uiso   1.00
H185   H     0.87898   0.29092   0.30055   0.00000  Uiso   1.00
H186   H     0.87141   0.22591   0.02804   0.00000  Uiso   1.00
H187   H     0.86787   0.10482   0.47245   0.00000  Uiso   1.00
H188   H     0.79662   0.22843   0.47165   0.00000  Uiso   1.00
H189   H     0.79298   0.10766   0.02846   0.00000  Uiso   1.00
H190   H     0.86899   0.26596   0.10635   0.00000  Uiso   1.00
N191   N     0.83333   0.28573   0.25000   0.00000  Uiso   1.00
N192   N     0.70988   0.25142   0.23259   0.00000  Uiso   1.00
N193   N     0.83333   0.04760   0.25000   0.00000  Uiso   1.00
N194   N     0.87954   0.23366   0.11563   0.00000  Uiso   1.00
N195   N     0.87575   0.09651   0.38503   0.00000  Uiso   1.00
N196   N     0.79017   0.23685   0.38406   0.00000  Uiso   1.00
N197   N     0.78604   0.09989   0.11616   0.00000  Uiso   1.00
N198   N     0.71016   0.08330   0.22640   0.00000  Uiso   1.00
N199   N     0.95650   0.25131   0.23174   0.00000  Uiso   1.00
N200   N     0.95650   0.08313   0.22708   0.00000  Uiso   1.00
O201   O     0.77226   0.20487   0.24999   0.00000  Uiso   1.00
O202   O     0.89441   0.12846   0.25000   0.00000  Uiso   1.00
O203   O     0.89441   0.20487   0.25000   0.00000  Uiso   1.00
O204   O     0.77226   0.12846   0.24999   0.00000  Uiso   1.00
O205   O     0.83333   0.20489   0.18453   0.00000  Uiso   1.00
O206   O     0.83334   0.12845   0.31547   0.00000  Uiso   1.00
O207   O     0.83334   0.20489   0.31547   0.00000  Uiso   1.00
O208   O     0.83333   0.12845   0.18453   0.00000  Uiso   1.00
Zn209  Zn    0.83333   0.21771   0.25000   0.00000  Uiso   1.00
Zn210  Zn    0.83333   0.11563   0.25000   0.00000  Uiso   1.00
C211   C     0.08661   0.50005   0.24655   0.00000  Uiso   1.00
C212   C     0.31182   0.54216   0.23503   0.00000  Uiso   1.00
C213   C     0.31186   0.45865   0.23262   0.00000  Uiso   1.00
C214   C     0.02134   0.54219   0.23524   0.00000  Uiso   1.00
C215   C     0.18763   0.53367   0.04640   0.00000  Uiso   1.00
C216   C     0.18564   0.46490   0.45399   0.00000  Uiso   1.00
C217   C     0.14570   0.53497   0.45354   0.00000  Uiso   1.00
C218   C     0.14362   0.46660   0.04664   0.00000  Uiso   1.00
C219   C     0.18851   0.53369   0.09255   0.00000  Uiso   1.00
C220   C     0.18660   0.46484   0.40784   0.00000  Uiso   1.00
C221   C     0.14555   0.53510   0.40737   0.00000  Uiso   1.00
C222   C     0.24670   0.50003   0.24656   0.00000  Uiso   1.00
C223   C     0.14345   0.46651   0.09280   0.00000  Uiso   1.00
C224   C     0.16621   0.50004   0.11584   0.00000  Uiso   1.00
C225   C     0.16629   0.50000   0.38435   0.00000  Uiso   1.00
C226   C     0.16549   0.50013   0.02396   0.00000  Uiso   1.00
C227   C     0.16549   0.49993   0.47632   0.00000  Uiso   1.00
C228   C     0.29067   0.50025   0.23825   0.00000  Uiso   1.00
C229   C     0.04258   0.50029   0.23828   0.00000  Uiso   1.00
C230   C     0.16658   0.50001   0.16385   0.00000  Uiso   1.00
C231   C     0.16663   0.50000   0.33621   0.00000  Uiso   1.00
C232   C     0.19208   0.35736   0.27811   0.00000  Uiso   1.00
C233   C     0.14141   0.64264   0.22174   0.00000  Uiso   1.00
C234   C     0.14140   0.35738   0.22175   0.00000  Uiso   1.00
C235   C     0.19206   0.64261   0.27813   0.00000  Uiso   1.00
C236   C     0.02143   0.45870   0.23247   0.00000  Uiso   1.00
H237   H     0.21239   0.37567   0.30047   0.00000  Uiso   1.00
H238   H     0.24352   0.56384   0.10503   0.00000  Uiso   1.00
H239   H     0.19663   0.39836   0.39420   0.00000  Uiso   1.00
H240   H     0.23979   0.43080   0.39595   0.00000  Uiso   1.00
H241   H     0.09261   0.56923   0.39421   0.00000  Uiso   1.00
H242   H     0.13582   0.60162   0.39360   0.00000  Uiso   1.00
H243   H     0.08857   0.43650   0.10600   0.00000  Uiso   1.00
H244   H     0.12968   0.40091   0.10668   0.00000  Uiso   1.00
H245   H     0.03553   0.40251   0.19560   0.00000  Uiso   1.00
H246   H     0.03565   0.39395   0.25184   0.00000  Uiso   1.00
H247   H     0.29773   0.60090   0.20198   0.00000  Uiso   1.00
H248   H     0.12132   0.62433   0.19914   0.00000  Uiso   1.00
H249   H     0.29768   0.60544   0.25870   0.00000  Uiso   1.00
H250   H     0.29765   0.40196   0.19646   0.00000  Uiso   1.00
H251   H     0.29790   0.39414   0.25279   0.00000  Uiso   1.00
H252   H     0.03541   0.60133   0.20293   0.00000  Uiso   1.00
H253   H     0.03519   0.60524   0.25968   0.00000  Uiso   1.00
H254   H     0.12129   0.37571   0.19918   0.00000  Uiso   1.00
H255   H     0.21231   0.62426   0.30055   0.00000  Uiso   1.00
H256   H     0.20474   0.55925   0.02804   0.00000  Uiso   1.00
H257   H     0.20120   0.43815   0.47245   0.00000  Uiso   1.00
H258   H     0.12995   0.56177   0.47165   0.00000  Uiso   1.00
H259   H     0.12631   0.44099   0.02846   0.00000  Uiso   1.00
H260   H     0.20233   0.59930   0.10635   0.00000  Uiso   1.00
N261   N     0.16667   0.61907   0.25000   0.00000  Uiso   1.00
N262   N     0.04322   0.58475   0.23259   0.00000  Uiso   1.00
N263   N     0.16667   0.38093   0.25000   0.00000  Uiso   1.00
N264   N     0.21288   0.56700   0.11563   0.00000  Uiso   1.00
N265   N     0.20908   0.42984   0.38503   0.00000  Uiso   1.00
N266   N     0.12350   0.57018   0.38406   0.00000  Uiso   1.00
N267   N     0.11937   0.43323   0.11616   0.00000  Uiso   1.00
N268   N     0.04349   0.41663   0.22640   0.00000  Uiso   1.00
N269   N     0.28983   0.58464   0.23174   0.00000  Uiso   1.00
N270   N     0.28984   0.41647   0.22708   0.00000  Uiso   1.00
O271   O     0.10559   0.53821   0.24999   0.00000  Uiso   1.00
O272   O     0.22774   0.46179   0.25000   0.00000  Uiso   1.00
O273   O     0.22774   0.53821   0.25000   0.00000  Uiso   1.00
O274   O     0.10559   0.46179   0.24999   0.00000  Uiso   1.00
O275   O     0.16666   0.53822   0.18453   0.00000  Uiso   1.00
O276   O     0.16667   0.46178   0.31547   0.00000  Uiso   1.00
O277   O     0.16667   0.53822   0.31547   0.00000  Uiso   1.00
O278   O     0.16666   0.46178   0.18453   0.00000  Uiso   1.00
Zn279  Zn    0.16667   0.55104   0.25000   0.00000  Uiso   1.00
Zn280  Zn    0.16667   0.44896   0.25000   0.00000  Uiso   1.00
C281   C     0.41995   0.50005   0.24655   0.00000  Uiso   1.00
C282   C     0.64515   0.54216   0.23503   0.00000  Uiso   1.00
C283   C     0.64519   0.45865   0.23262   0.00000  Uiso   1.00
C284   C     0.35467   0.54219   0.23524   0.00000  Uiso   1.00
C285   C     0.52096   0.53367   0.04640   0.00000  Uiso   1.00
C286   C     0.51898   0.46490   0.45399   0.00000  Uiso   1.00
C287   C     0.47904   0.53497   0.45354   0.00000  Uiso   1.00
C288   C     0.47696   0.46660   0.04664   0.00000  Uiso   1.00
C289   C     0.52184   0.53369   0.09255   0.00000  Uiso   1.00
C290   C     0.51993   0.46484   0.40784   0.00000  Uiso   1.00
C291   C     0.47888   0.53510   0.40737   0.00000  Uiso   1.00
C292   C     0.58003   0.50003   0.24656   0.00000  Uiso   1.00
C293   C     0.47679   0.46651   0.09280   0.00000  Uiso   1.00
C294   C     0.49954   0.50004   0.11584   0.00000  Uiso   1.00
C295   C     0.49962   0.50000   0.38435   0.00000  Uiso   1.00
C296   C     0.49882   0.50013   0.02396   0.00000  Uiso   1.00
C297   C     0.49883   0.49993   0.47632   0.00000  Uiso   1.00
C298   C     0.62400   0.50025   0.23825   0.00000  Uiso   1.00
C299   C     0.37592   0.50029   0.23828   0.00000  Uiso   1.00
C300   C     0.49991   0.50001   0.16385   0.00000  Uiso   1.00
C301   C     0.49997   0.50000   0.33621   0.00000  Uiso   1.00
C302   C     0.52541   0.35736   0.27811   0.00000  Uiso   1.00
C303   C     0.47474   0.64264   0.22174   0.00000  Uiso   1.00
C304   C     0.47473   0.35738   0.22175   0.00000  Uiso   1.00
C305   C     0.52539   0.64261   0.27813   0.00000  Uiso   1.00
C306   C     0.35476   0.45870   0.23247   0.00000  Uiso   1.00
H307   H     0.54572   0.37567   0.30047   0.00000  Uiso   1.00
H308   H     0.57685   0.56384   0.10503   0.00000  Uiso   1.00
H309   H     0.52996   0.39836   0.39420   0.00000  Uiso   1.00
H310   H     0.57313   0.43080   0.39595   0.00000  Uiso   1.00
H311   H     0.42594   0.56923   0.39421   0.00000  Uiso   1.00
H312   H     0.46916   0.60162   0.39360   0.00000  Uiso   1.00
H313   H     0.42190   0.43650   0.10600   0.00000  Uiso   1.00
H314   H     0.46301   0.40091   0.10668   0.00000  Uiso   1.00
H315   H     0.36886   0.40251   0.19560   0.00000  Uiso   1.00
H316   H     0.36899   0.39395   0.25184   0.00000  Uiso   1.00
H317   H     0.63106   0.60090   0.20198   0.00000  Uiso   1.00
H318   H     0.45466   0.62433   0.19914   0.00000  Uiso   1.00
H319   H     0.63101   0.60544   0.25870   0.00000  Uiso   1.00
H320   H     0.63099   0.40196   0.19646   0.00000  Uiso   1.00
H321   H     0.63123   0.39414   0.25279   0.00000  Uiso   1.00
H322   H     0.36874   0.60133   0.20293   0.00000  Uiso   1.00
H323   H     0.36852   0.60524   0.25968   0.00000  Uiso   1.00
H324   H     0.45462   0.37571   0.19918   0.00000  Uiso   1.00
H325   H     0.54565   0.62426   0.30055   0.00000  Uiso   1.00
H326   H     0.53807   0.55925   0.02804   0.00000  Uiso   1.00
H327   H     0.53454   0.43815   0.47245   0.00000  Uiso   1.00
H328   H     0.46328   0.56177   0.47165   0.00000  Uiso   1.00
H329   H     0.45965   0.44099   0.02846   0.00000  Uiso   1.00
H330   H     0.53566   0.59930   0.10635   0.00000  Uiso   1.00
N331   N     0.50000   0.61907   0.25000   0.00000  Uiso   1.00
N332   N     0.37655   0.58475   0.23259   0.00000  Uiso   1.00
N333   N     0.50000   0.38093   0.25000   0.00000  Uiso   1.00
N334   N     0.54621   0.56700   0.11563   0.00000  Uiso   1.00
N335   N     0.54241   0.42984   0.38503   0.00000  Uiso   1.00
N336   N     0.45683   0.57018   0.38406   0.00000  Uiso   1.00
N337   N     0.45271   0.43323   0.11616   0.00000  Uiso   1.00
N338   N     0.37682   0.41663   0.22640   0.00000  Uiso   1.00
N339   N     0.62317   0.58464   0.23174   0.00000  Uiso   1.00
N340   N     0.62317   0.41647   0.22708   0.00000  Uiso   1.00
O341   O     0.43892   0.53821   0.24999   0.00000  Uiso   1.00
O342   O     0.56108   0.46179   0.25000   0.00000  Uiso   1.00
O343   O     0.56108   0.53821   0.25000   0.00000  Uiso   1.00
O344   O     0.43892   0.46179   0.24999   0.00000  Uiso   1.00
O345   O     0.50000   0.53822   0.18453   0.00000  Uiso   1.00
O346   O     0.50000   0.46178   0.31547   0.00000  Uiso   1.00
O347   O     0.50000   0.53822   0.31547   0.00000  Uiso   1.00
O348   O     0.50000   0.46178   0.18453   0.00000  Uiso   1.00
Zn349  Zn    0.50000   0.55104   0.25000   0.00000  Uiso   1.00
Zn350  Zn    0.50000   0.44896   0.25000   0.00000  Uiso   1.00
C351   C     0.75328   0.50005   0.24655   0.00000  Uiso   1.00
C352   C     0.97849   0.54216   0.23503   0.00000  Uiso   1.00
C353   C     0.97852   0.45865   0.23262   0.00000  Uiso   1.00
C354   C     0.68801   0.54219   0.23524   0.00000  Uiso   1.00
C355   C     0.85430   0.53367   0.04640   0.00000  Uiso   1.00
C356   C     0.85231   0.46490   0.45399   0.00000  Uiso   1.00
C357   C     0.81237   0.53497   0.45354   0.00000  Uiso   1.00
C358   C     0.81029   0.46660   0.04664   0.00000  Uiso   1.00
C359   C     0.85518   0.53369   0.09255   0.00000  Uiso   1.00
C360   C     0.85326   0.46484   0.40784   0.00000  Uiso   1.00
C361   C     0.81221   0.53510   0.40737   0.00000  Uiso   1.00
C362   C     0.91336   0.50003   0.24656   0.00000  Uiso   1.00
C363   C     0.81012   0.46651   0.09280   0.00000  Uiso   1.00
C364   C     0.83288   0.50004   0.11584   0.00000  Uiso   1.00
C365   C     0.83296   0.50000   0.38435   0.00000  Uiso   1.00
C366   C     0.83215   0.50013   0.02396   0.00000  Uiso   1.00
C367   C     0.83216   0.49993   0.47632   0.00000  Uiso   1.00
C368   C     0.95734   0.50025   0.23825   0.00000  Uiso   1.00
C369   C     0.70925   0.50029   0.23828   0.00000  Uiso   1.00
C370   C     0.83325   0.50001   0.16385   0.00000  Uiso   1.00
C371   C     0.83330   0.50000   0.33621   0.00000  Uiso   1.00
C372   C     0.85874   0.35736   0.27811   0.00000  Uiso   1.00
C373   C     0.80807   0.64264   0.22174   0.00000  Uiso   1.00
C374   C     0.80806   0.35738   0.22175   0.00000  Uiso   1.00
C375   C     0.85872   0.64261   0.27813   0.00000  Uiso   1.00
C376   C     0.68810   0.45870   0.23247   0.00000  Uiso   1.00
H377   H     0.87905   0.37567   0.30047   0.00000  Uiso   1.00
H378   H     0.91019   0.56384   0.10503   0.00000  Uiso   1.00
H379   H     0.86330   0.39836   0.39420   0.00000  Uiso   1.00
H380   H     0.90646   0.43080   0.39595   0.00000  Uiso   1.00
H381   H     0.75927   0.56923   0.39421   0.00000  Uiso   1.00
H382   H     0.80249   0.60162   0.39360   0.00000  Uiso   1.00
H383   H     0.75524   0.43650   0.10600   0.00000  Uiso   1.00
H384   H     0.79635   0.40091   0.10668   0.00000  Uiso   1.00
H385   H     0.70219   0.40251   0.19560   0.00000  Uiso   1.00
H386   H     0.70232   0.39395   0.25184   0.00000  Uiso   1.00
H387   H     0.96440   0.60090   0.20198   0.00000  Uiso   1.00
H388   H     0.78799   0.62433   0.19914   0.00000  Uiso   1.00
H389   H     0.96435   0.60544   0.25870   0.00000  Uiso   1.00
H390   H     0.96432   0.40196   0.19646   0.00000  Uiso   1.00
H391   H     0.96457   0.39414   0.25279   0.00000  Uiso   1.00
H392   H     0.70207   0.60133   0.20293   0.00000  Uiso   1.00
H393   H     0.70186   0.60524   0.25968   0.00000  Uiso   1.00
H394   H     0.78796   0.37571   0.19918   0.00000  Uiso   1.00
H395   H     0.87898   0.62426   0.30055   0.00000  Uiso   1.00
H396   H     0.87141   0.55925   0.02804   0.00000  Uiso   1.00
H397   H     0.86787   0.43815   0.47245   0.00000  Uiso   1.00
H398   H     0.79662   0.56177   0.47165   0.00000  Uiso   1.00
H399   H     0.79298   0.44099   0.02846   0.00000  Uiso   1.00
H400   H     0.86899   0.59930   0.10635   0.00000  Uiso   1.00
N401   N     0.83333   0.61907   0.25000   0.00000  Uiso   1.00
N402   N     0.70988   0.58475   0.23259   0.00000  Uiso   1.00
N403   N     0.83333   0.38093   0.25000   0.00000  Uiso   1.00
N404   N     0.87954   0.56700   0.11563   0.00000  Uiso   1.00
N405   N     0.87575   0.42984   0.38503   0.00000  Uiso   1.00
N406   N     0.79017   0.57018   0.38406   0.00000  Uiso   1.00
N407   N     0.78604   0.43323   0.11616   0.00000  Uiso   1.00
N408   N     0.71016   0.41663   0.22640   0.00000  Uiso   1.00
N409   N     0.95650   0.58464   0.23174   0.00000  Uiso   1.00
N410   N     0.95650   0.41647   0.22708   0.00000  Uiso   1.00
O411   O     0.77226   0.53821   0.24999   0.00000  Uiso   1.00
O412   O     0.89441   0.46179   0.25000   0.00000  Uiso   1.00
O413   O     0.89441   0.53821   0.25000   0.00000  Uiso   1.00
O414   O     0.77226   0.46179   0.24999   0.00000  Uiso   1.00
O415   O     0.83333   0.53822   0.18453   0.00000  Uiso   1.00
O416   O     0.83334   0.46178   0.31547   0.00000  Uiso   1.00
O417   O     0.83334   0.53822   0.31547   0.00000  Uiso   1.00
O418   O     0.83333   0.46178   0.18453   0.00000  Uiso   1.00
Zn419  Zn    0.83333   0.55104   0.25000   0.00000  Uiso   1.00
Zn420  Zn    0.83333   0.44896   0.25000   0.00000  Uiso   1.00
C421   C     0.08661   0.83338   0.24655   0.00000  Uiso   1.00
C422   C     0.31182   0.87549   0.23503   0.00000  Uiso   1.00
C423   C     0.31186   0.79198   0.23262   0.00000  Uiso   1.00
C424   C     0.02134   0.87552   0.23524   0.00000  Uiso   1.00
C425   C     0.18763   0.86700   0.04640   0.00000  Uiso   1.00
C426   C     0.18564   0.79823   0.45399   0.00000  Uiso   1.00
C427   C     0.14570   0.86830   0.45354   0.00000  Uiso   1.00
C428   C     0.14362   0.79993   0.04664   0.00000  Uiso   1.00
C429   C     0.18851   0.86702   0.09255   0.00000  Uiso   1.00
C430   C     0.18660   0.79817   0.40784   0.00000  Uiso   1.00
C431   C     0.14555   0.86844   0.40737   0.00000  Uiso   1.00
C432   C     0.24670   0.83337   0.24656   0.00000  Uiso   1.00
C433   C     0.14345   0.79985   0.09280   0.00000  Uiso   1.00
C434   C     0.16621   0.83338   0.11584   0.00000  Uiso   1.00
C435   C     0.16629   0.83333   0.38435   0.00000  Uiso   1.00
C436   C     0.16549   0.83346   0.02396   0.00000  Uiso   1.00
C437   C     0.16549   0.83326   0.47632   0.00000  Uiso   1.00
C438   C     0.29067   0.83358   0.23825   0.00000  Uiso   1.00
C439   C     0.04258   0.83363   0.23828   0.00000  Uiso   1.00
C440   C     0.16658   0.83334   0.16385   0.00000  Uiso   1.00
C441   C     0.16663   0.83333   0.33621   0.00000  Uiso   1.00
C442   C     0.19208   0.69069   0.27811   0.00000  Uiso   1.00
C443   C     0.14141   0.97598   0.22174   0.00000  Uiso   1.00
C444   C     0.14140   0.69072   0.22175   0.00000  Uiso   1.00
C445   C     0.19206   0.97594   0.27813   0.00000  Uiso   1.00
C446   C     0.02143   0.79203   0.23247   0.00000  Uiso   1.00
H447   H     0.21239   0.70901   0.30047   0.00000  Uiso   1.00
H448   H     0.24352   0.89718   0.10503   0.00000  Uiso   1.00
H449   H     0.19663   0.73170   0.39420   0.00000  Uiso   1.00
H450   H     0.23979   0.76414   0.39595   0.00000  Uiso   1.00
H451   H     0.09261   0.90256   0.39421   0.00000  Uiso   1.00
H452   H     0.13582   0.93495   0.39360   0.00000  Uiso   1.00
H453   H     0.08857   0.76984   0.10600   0.00000  Uiso   1.00
H454   H     0.12968   0.73424   0.10668   0.00000  Uiso   1.00
H455   H     0.03553   0.73584   0.19560   0.00000  Uiso   1.00
H456   H     0.03565   0.72729   0.25184   0.00000  Uiso   1.00
H457   H     0.29773   0.93424   0.20198   0.00000  Uiso   1.00
H458   H     0.12132   0.95767   0.19914   0.00000  Uiso   1.00
H459   H     0.29768   0.93877   0.25870   0.00000  Uiso   1.00
H460   H     0.29765   0.73529   0.19646   0.00000  Uiso   1.00
H461   H     0.29790   0.72747   0.25279   0.00000  Uiso   1.00
H462   H     0.03541   0.93466   0.20293   0.00000  Uiso   1.00
H463   H     0.03519   0.93857   0.25968   0.00000  Uiso   1.00
H464   H     0.12129   0.70904   0.19918   0.00000  Uiso   1.00
H465   H     0.21231   0.95759   0.30055   0.00000  Uiso   1.00
H466   H     0.20474   0.89258   0.02804   0.00000  Uiso   1.00
H467   H     0.20120   0.77148   0.47245   0.00000  Uiso   1.00
H468   H     0.12995   0.89510   0.47165   0.00000  Uiso   1.00
H469   H     0.12631   0.77433   0.02846   0.00000  Uiso   1.00
H470   H     0.20233   0.93263   0.10635   0.00000  Uiso   1.00
N471   N     0.16667   0.95240   0.25000   0.00000  Uiso   1.00
N472   N     0.04322   0.91809   0.23259   0.00000  Uiso   1.00
N473   N     0.16667   0.71427   0.25000   0.00000  Uiso   1.00
N474   N     0.21288   0.90033   0.11563   0.00000  Uiso   1.00
N475   N     0.20908   0.76317   0.38503   0.00000  Uiso   1.00
N476   N     0.12350   0.90351   0.38406   0.00000  Uiso   1.00
N477   N     0.11937   0.76656   0.11616   0.00000  Uiso   1.00
N478   N     0.04349   0.74996   0.22640   0.00000  Uiso   1.00
N479   N     0.28983   0.91797   0.23174   0.00000  Uiso   1.00
N480   N     0.28984   0.74980   0.22708   0.00000  Uiso   1.00
O481   O     0.10559   0.87154   0.24999   0.00000  Uiso   1.00
O482   O     0.22774   0.79513   0.25000   0.00000  Uiso   1.00
O483   O     0.22774   0.87154   0.25000   0.00000  Uiso   1.00
O484   O     0.10559   0.79513   0.24999   0.00000  Uiso   1.00
O485   O     0.16666   0.87155   0.18453   0.00000  Uiso   1.00
O486   O     0.16667   0.79511   0.31547   0.00000  Uiso   1.00
O487   O     0.16667   0.87155   0.31547   0.00000  Uiso   1.00
O488   O     0.16666   0.79511   0.18453   0.00000  Uiso   1.00
Zn489  Zn    0.16667   0.88437   0.25000   0.00000  Uiso   1.00
Zn490  Zn    0.16667   0.78229   0.25000   0.00000  Uiso   1.00
C491   C     0.41995   0.83338   0.24655   0.00000  Uiso   1.00
C492   C     0.64515   0.87549   0.23503   0.00000  Uiso   1.00
C493   C     0.64519   0.79198   0.23262   0.00000  Uiso   1.00
C494   C     0.35467   0.87552   0.23524   0.00000  Uiso   1.00
C495   C     0.52096   0.86700   0.04640   0.00000  Uiso   1.00
C496   C     0.51898   0.79823   0.45399   0.00000  Uiso   1.00
C497   C     0.47904   0.86830   0.45354   0.00000  Uiso   1.00
C498   C     0.47696   0.79993   0.04664   0.00000  Uiso   1.00
C499   C     0.52184   0.86702   0.09255   0.00000  Uiso   1.00
C500   C     0.51993   0.79817   0.40784   0.00000  Uiso   1.00
C501   C     0.47888   0.86844   0.40737   0.00000  Uiso   1.00
C502   C     0.58003   0.83337   0.24656   0.00000  Uiso   1.00
C503   C     0.47679   0.79985   0.09280   0.00000  Uiso   1.00
C504   C     0.49954   0.83338   0.11584   0.00000  Uiso   1.00
C505   C     0.49962   0.83333   0.38435   0.00000  Uiso   1.00
C506   C     0.49882   0.83346   0.02396   0.00000  Uiso   1.00
C507   C     0.49883   0.83326   0.47632   0.00000  Uiso   1.00
C508   C     0.62400   0.83358   0.23825   0.00000  Uiso   1.00
C509   C     0.37592   0.83363   0.23828   0.00000  Uiso   1.00
C510   C     0.49991   0.83334   0.16385   0.00000  Uiso   1.00
C511   C     0.49997   0.83333   0.33621   0.00000  Uiso   1.00
C512   C     0.52541   0.69069   0.27811   0.00000  Uiso   1.00
C513   C     0.47474   0.97598   0.22174   0.00000  Uiso   1.00
C514   C     0.47473   0.69072   0.22175   0.00000  Uiso   1.00
C515   C     0.52539   0.97594   0.27813   0.00000  Uiso   1.00
C516   C     0.35476   0.79203   0.23247   0.00000  Uiso   1.00
H517   H     0.54572   0.70901   0.30047   0.00000  Uiso   1.00
H518   H     0.57685   0.89718   0.10503   0.00000  Uiso   1.00
H519   H     0.52996   0.73170   0.39420   0.00000  Uiso   1.00
H520   H     0.57313   0.76414   0.39595   0.00000  Uiso   1.00
H521   H     0.42594   0.90256   0.39421   0.00000  Uiso   1.00
H522   H     0.46916   0.93495   0.39360   0.00000  Uiso   1.00
H523   H     0.42190   0.76984   0.10600   0.00000  Uiso   1.00
H524   H     0.46301   0.73424   0.10668   0.00000  Uiso   1.00
H525   H     0.36886   0.73584   0.19560   0.00000  Uiso   1.00
H526   H     0.36899   0.72729   0.25184   0.00000  Uiso   1.00
H527   H     0.63106   0.93424   0.20198   0.00000  Uiso   1.00
H528   H     0.45466   0.95767   0.19914   0.00000  Uiso   1.00
H529   H     0.63101   0.93877   0.25870   0.00000  Uiso   1.00
H530   H     0.63099   0.73529   0.19646   0.00000  Uiso   1.00
H531   H     0.63123   0.72747   0.25279   0.00000  Uiso   1.00
H532   H     0.36874   0.93466   0.20293   0.00000  Uiso   1.00
H533   H     0.36852   0.93857   0.25968   0.00000  Uiso   1.00
H534   H     0.45462   0.70904   0.19918   0.00000  Uiso   1.00
H535   H     0.54565   0.95759   0.30055   0.00000  Uiso   1.00
H536   H     0.53807   0.89258   0.02804   0.00000  Uiso   1.00
H537   H     0.53454   0.77148   0.47245   0.00000  Uiso   1.00
H538   H     0.46328   0.89510   0.47165   0.00000  Uiso   1.00
H539   H     0.45965   0.77433   0.02846   0.00000  Uiso   1.00
H540   H     0.53566   0.93263   0.10635   0.00000  Uiso   1.00
N541   N     0.50000   0.95240   0.25000   0.00000  Uiso   1.00
N542   N     0.37655   0.91809   0.23259   0.00000  Uiso   1.00
N543   N     0.50000   0.71427   0.25000   0.00000  Uiso   1.00
N544   N     0.54621   0.90033   0.11563   0.00000  Uiso   1.00
N545   N     0.54241   0.76317   0.38503   0.00000  Uiso   1.00
N546   N     0.45683   0.90351   0.38406   0.00000  Uiso   1.00
N547   N     0.45271   0.76656   0.11616   0.00000  Uiso   1.00
N548   N     0.37682   0.74996   0.22640   0.00000  Uiso   1.00
N549   N     0.62317   0.91797   0.23174   0.00000  Uiso   1.00
N550   N     0.62317   0.74980   0.22708   0.00000  Uiso   1.00
O551   O     0.43892   0.87154   0.24999   0.00000  Uiso   1.00
O552   O     0.56108   0.79513   0.25000   0.00000  Uiso   1.00
O553   O     0.56108   0.87154   0.25000   0.00000  Uiso   1.00
O554   O     0.43892   0.79513   0.24999   0.00000  Uiso   1.00
O555   O     0.50000   0.87155   0.18453   0.00000  Uiso   1.00
O556   O     0.50000   0.79511   0.31547   0.00000  Uiso   1.00
O557   O     0.50000   0.87155   0.31547   0.00000  Uiso   1.00
O558   O     0.50000   0.79511   0.18453   0.00000  Uiso   1.00
Zn559  Zn    0.50000   0.88437   0.25000   0.00000  Uiso   1.00
Zn560  Zn    0.50000   0.78229   0.25000   0.00000  Uiso   1.00
C561   C     0.75328   0.83338   0.24655   0.00000  Uiso   1.00
C562   C     0.97849   0.87549   0.23503   0.00000  Uiso   1.00
C563   C     0.97852   0.79198   0.23262   0.00000  Uiso   1.00
C564   C     0.68801   0.87552   0.23524   0.00000  Uiso   1.00
C565   C     0.85430   0.86700   0.04640   0.00000  Uiso   1.00
C566   C     0.85231   0.79823   0.45399   0.00000  Uiso   1.00
C567   C     0.81237   0.86830   0.45354   0.00000  Uiso   1.00
C568   C     0.81029   0.79993   0.04664   0.00000  Uiso   1.00
C569   C     0.85518   0.86702   0.09255   0.00000  Uiso   1.00
C570   C     0.85326   0.79817   0.40784   0.00000  Uiso   1.00
C571   C     0.81221   0.86844   0.40737   0.00000  Uiso   1.00
C572   C     0.91336   0.83337   0.24656   0.00000  Uiso   1.00
C573   C     0.81012   0.79985   0.09280   0.00000  Uiso   1.00
C574   C     0.83288   0.83338   0.11584   0.00000  Uiso   1.00
C575   C     0.83296   0.83333   0.38435   0.00000  Uiso   1.00
C576   C     0.83215   0.83346   0.02396   0.00000  Uiso   1.00
C577   C     0.83216   0.83326   0.47632   0.00000  Uiso   1.00
C578   C     0.95734   0.83358   0.23825   0.00000  Uiso   1.00
C579   C     0.70925   0.83363   0.23828   0.00000  Uiso   1.00
C580   C     0.83325   0.83334   0.16385   0.00000  Uiso   1.00
C581   C     0.83330   0.83333   0.33621   0.00000  Uiso   1.00
C582   C     0.85874   0.69069   0.27811   0.00000  Uiso   1.00
C583   C     0.80807   0.97598   0.22174   0.00000  Uiso   1.00
C584   C     0.80806   0.69072   0.22175   0.00000  Uiso   1.00
C585   C     0.85872   0.97594   0.27813   0.00000  Uiso   1.00
C586   C     0.68810   0.79203   0.23247   0.00000  Uiso   1.00
H587   H     0.87905   0.70901   0.30047   0.00000  Uiso   1.00
H588   H     0.91019   0.89718   0.10503   0.00000  Uiso   1.00
H589   H     0.86330   0.73170   0.39420   0.00000  Uiso   1.00
H590   H     0.90646   0.76414   0.39595   0.00000  Uiso   1.00
H591   H     0.75927   0.90256   0.39421   0.00000  Uiso   1.00
H592   H     0.80249   0.93495   0.39360   0.00000  Uiso   1.00
H593   H     0.75524   0.76984   0.10600   0.00000  Uiso   1.00
H594   H     0.79635   0.73424   0.10668   0.00000  Uiso   1.00
H595   H     0.70219   0.73584   0.19560   0.00000  Uiso   1.00
H596   H     0.70232   0.72729   0.25184   0.00000  Uiso   1.00
H597   H     0.96440   0.93424   0.20198   0.00000  Uiso   1.00
H598   H     0.78799   0.95767   0.19914   0.00000  Uiso   1.00
H599   H     0.96435   0.93877   0.25870   0.00000  Uiso   1.00
H600   H     0.96432   0.73529   0.19646   0.00000  Uiso   1.00
H601   H     0.96457   0.72747   0.25279   0.00000  Uiso   1.00
H602   H     0.70207   0.93466   0.20293   0.00000  Uiso   1.00
H603   H     0.70186   0.93857   0.25968   0.00000  Uiso   1.00
H604   H     0.78796   0.70904   0.19918   0.00000  Uiso   1.00
H605   H     0.87898   0.95759   0.30055   0.00000  Uiso   1.00
H606   H     0.87141   0.89258   0.02804   0.00000  Uiso   1.00
H607   H     0.86787   0.77148   0.47245   0.00000  Uiso   1.00
H608   H     0.79662   0.89510   0.47165   0.00000  Uiso   1.00
H609   H     0.79298   0.77433   0.02846   0.00000  Uiso   1.00
H610   H     0.86899   0.93263   0.10635   0.00000  Uiso   1.00
N611   N     0.83333   0.95240   0.25000   0.00000  Uiso   1.00
N612   N     0.70988   0.91809   0.23259   0.00000  Uiso   1.00
N613   N     0.83333   0.71427   0.25000   0.00000  Uiso   1.00
N614   N     0.87954   0.90033   0.11563   0.00000  Uiso   1.00
N615   N     0.87575   0.76317   0.38503   0.00000  Uiso   1.00
N616   N     0.79017   0.90351   0.38406   0.00000  Uiso   1.00
N617   N     0.78604   0.76656   0.11616   0.00000  Uiso   1.00
N618   N     0.71016   0.74996   0.22640   0.00000  Uiso   1.00
N619   N     0.95650   0.91797   0.23174   0.00000  Uiso   1.00
N620   N     0.95650   0.74980   0.22708   0.00000  Uiso   1.00
O621   O     0.77226   0.87154   0.24999   0.00000  Uiso   1.00
O622   O     0.89441   0.79513   0.25000   0.00000  Uiso   1.00
O623   O     0.89441   0.87154   0.25000   0.00000  Uiso   1.00
O624   O     0.77226   0.79513   0.24999   0.00000  Uiso   1.00
O625   O     0.83333   0.87155   0.18453   0.00000  Uiso   1.00
O626   O     0.83334   0.79511   0.31547   0.00000  Uiso   1.00
O627   O     0.83334   0.87155   0.31547   0.00000  Uiso   1.00
O628   O     0.83333   0.79511   0.18453   0.00000  Uiso   1.00
Zn629  Zn    0.83333   0.88437   0.25000   0.00000  Uiso   1.00
Zn630  Zn    0.83333   0.78229   0.25000   0.00000  Uiso   1.00
C631   C     0.08661   0.16672   0.74655   0.00000  Uiso   1.00
C632   C     0.31182   0.20882   0.73503   0.00000  Uiso   1.00
C633   C     0.31186   0.12532   0.73262   0.00000  Uiso   1.00
C634   C     0.02134   0.20886   0.73524   0.00000  Uiso   1.00
C635   C     0.18763   0.20034   0.54640   0.00000  Uiso   1.00
C636   C     0.18564   0.13157   0.95399   0.00000  Uiso   1.00
C637   C     0.14570   0.20163   0.95354   0.00000  Uiso   1.00
C638   C     0.14362   0.13327   0.54664   0.00000  Uiso   1.00
C639   C     0.18851   0.20035   0.59255   0.00000  Uiso   1.00
C640   C     0.18660   0.13150   0.90784   0.00000  Uiso   1.00
C641   C     0.14555   0.20177   0.90737   0.00000  Uiso   1.00
C642   C     0.24670   0.16670   0.74656   0.00000  Uiso   1.00
C643   C     0.14345   0.13318   0.59280   0.00000  Uiso   1.00
C644   C     0.16621   0.16671   0.61584   0.00000  Uiso   1.00
C645   C     0.16629   0.16666   0.88435   0.00000  Uiso   1.00
C646   C     0.16549   0.16679   0.52396   0.00000  Uiso   1.00
C647   C     0.16549   0.16659   0.97632   0.00000  Uiso   1.00
C648   C     0.29067   0.16691   0.73825   0.00000  Uiso   1.00
C649   C     0.04258   0.16696   0.73828   0.00000  Uiso   1.00
C650   C     0.16658   0.16667   0.66385   0.00000  Uiso   1.00
C651   C     0.16663   0.16666   0.83621   0.00000  Uiso   1.00
C652   C     0.19208   0.02402   0.77811   0.00000  Uiso   1.00
C653   C     0.14141   0.30931   0.72174   0.00000  Uiso   1.00
C654   C     0.14140   0.02405   0.72175   0.00000  Uiso   1.00
C655   C     0.19206   0.30927   0.77813   0.00000  Uiso   1.00
C656   C     0.02143   0.12537   0.73247   0.00000  Uiso   1.00
H657   H     0.21239   0.04234   0.80047   0.00000  Uiso   1.00
H658   H     0.24352   0.23051   0.60503   0.00000  Uiso   1.00
H659   H     0.19663   0.06503   0.89420   0.00000  Uiso   1.00
H660   H     0.23979   0.09747   0.89595   0.00000  Uiso   1.00
H661   H     0.09261   0.23590   0.89421   0.00000  Uiso   1.00
H662   H     0.13582   0.26829   0.89360   0.00000  Uiso   1.00
H663   H     0.08857   0.10317   0.60600   0.00000  Uiso   1.00
H664   H     0.12968   0.06758   0.60668   0.00000  Uiso   1.00
H665   H     0.03553   0.06917   0.69560   0.00000  Uiso   1.00
H666   H     0.03565   0.06062   0.75184   0.00000  Uiso   1.00
H667   H     0.29773   0.26757   0.70198   0.00000  Uiso   1.00
H668   H     0.12132   0.29100   0.69914   0.00000  Uiso   1.00
H669   H     0.29768   0.27211   0.75870   0.00000  Uiso   1.00
H670   H     0.29765   0.06863   0.69646   0.00000  Uiso   1.00
H671   H     0.29790   0.06080   0.75279   0.00000  Uiso   1.00
H672   H     0.03541   0.26799   0.70293   0.00000  Uiso   1.00
H673   H     0.03519   0.27190   0.75968   0.00000  Uiso   1.00
H674   H     0.12129   0.04238   0.69918   0.00000  Uiso   1.00
H675   H     0.21231   0.29092   0.80055   0.00000  Uiso   1.00
H676   H     0.20474   0.22591   0.52804   0.00000  Uiso   1.00
H677   H     0.20120   0.10482   0.97245   0.00000  Uiso   1.00
H678   H     0.12995   0.22843   0.97165   0.00000  Uiso   1.00
H679   H     0.12631   0.10766   0.52846   0.00000  Uiso   1.00
H680   H     0.20233   0.26596   0.60635   0.00000  Uiso   1.00
N681   N     0.16667   0.28573   0.75000   0.00000  Uiso   1.00
N682   N     0.04322   0.25142   0.73259   0.00000  Uiso   1.00
N683   N     0.16667   0.04760   0.75000   0.00000  Uiso   1.00
N684   N     0.21288   0.23366   0.61563   0.00000  Uiso   1.00
N685   N     0.20908   0.09651   0.88503   0.00000  Uiso   1.00
N686   N     0.12350   0.23685   0.88406   0.00000  Uiso   1.00
N687   N     0.11937   0.09989   0.61616   0.00000  Uiso   1.00
N688   N     0.04349   0.08330   0.72640   0.00000  Uiso   1.00
N689   N     0.28983   0.25131   0.73174   0.00000  Uiso   1.00
N690   N     0.28984   0.08313   0.72708   0.00000  Uiso   1.00
O691   O     0.10559   0.20487   0.74999   0.00000  Uiso   1.00
O692   O     0.22774   0.12846   0.75000   0.00000  Uiso   1.00
O693   O     0.22774   0.20487   0.75000   0.00000  Uiso   1.00
O694   O     0.10559   0.12846   0.74999   0.00000  Uiso   1.00
O695   O     0.16666   0.20489   0.68453   0.00000  Uiso   1.00
O696   O     0.16667   0.12845   0.81547   0.00000  Uiso   1.00
O697   O     0.16667   0.20489   0.81547   0.00000  Uiso   1.00
O698   O     0.16666   0.12845   0.68453   0.00000  Uiso   1.00
Zn699  Zn    0.16667   0.21771   0.75000   0.00000  Uiso   1.00
Zn700  Zn    0.16667   0.11563   0.75000   0.00000  Uiso   1.00
C701   C     0.41995   0.16672   0.74655   0.00000  Uiso   1.00
C702   C     0.64515   0.20882   0.73503   0.00000  Uiso   1.00
C703   C     0.64519   0.12532   0.73262   0.00000  Uiso   1.00
C704   C     0.35467   0.20886   0.73524   0.00000  Uiso   1.00
C705   C     0.52096   0.20034   0.54640   0.00000  Uiso   1.00
C706   C     0.51898   0.13157   0.95399   0.00000  Uiso   1.00
C707   C     0.47904   0.20163   0.95354   0.00000  Uiso   1.00
C708   C     0.47696   0.13327   0.54664   0.00000  Uiso   1.00
C709   C     0.52184   0.20035   0.59255   0.00000  Uiso   1.00
C710   C     0.51993   0.13150   0.90784   0.00000  Uiso   1.00
C711   C     0.47888   0.20177   0.90737   0.00000  Uiso   1.00
C712   C     0.58003   0.16670   0.74656   0.00000  Uiso   1.00
C713   C     0.47679   0.13318   0.59280   0.00000  Uiso   1.00
C714   C     0.49954   0.16671   0.61584   0.00000  Uiso   1.00
C715   C     0.49962   0.16666   0.88435   0.00000  Uiso   1.00
C716   C     0.49882   0.16679   0.52396   0.00000  Uiso   1.00
C717   C     0.49883   0.16659   0.97632   0.00000  Uiso   1.00
C718   C     0.62400   0.16691   0.73825   0.00000  Uiso   1.00
C719   C     0.37592   0.16696   0.73828   0.00000  Uiso   1.00
C720   C     0.49991   0.16667   0.66385   0.00000  Uiso   1.00
C721   C     0.49997   0.16666   0.83621   0.00000  Uiso   1.00
C722   C     0.52541   0.02402   0.77811   0.00000  Uiso   1.00
C723   C     0.47474   0.30931   0.72174   0.00000  Uiso   1.00
C724   C     0.47473   0.02405   0.72175   0.00000  Uiso   1.00
C725   C     0.52539   0.30927   0.77813   0.00000  Uiso   1.00
C726   C     0.35476   0.12537   0.73247   0.00000  Uiso   1.00
H727   H     0.54572   0.04234   0.80047   0.00000  Uiso   1.00
H728   H     0.57685   0.23051   0.60503   0.00000  Uiso   1.00
H729   H     0.52996   0.06503   0.89420   0.00000  Uiso   1.00
H730   H     0.57313   0.09747   0.89595   0.00000  Uiso   1.00
H731   H     0.42594   0.23590   0.89421   0.00000  Uiso   1.00
H732   H     0.46916   0.26829   0.89360   0.00000  Uiso   1.00
H733   H     0.42190   0.10317   0.60600   0.00000  Uiso   1.00
H734   H     0.46301   0.06758   0.60668   0.00000  Uiso   1.00
H735   H     0.36886   0.06917   0.69560   0.00000  Uiso   1.00
H736   H     0.36899   0.06062   0.75184   0.00000  Uiso   1.00
H737   H     0.63106   0.26757   0.70198   0.00000  Uiso   1.00
H738   H     0.45466   0.29100   0.69914   0.00000  Uiso   1.00
H739   H     0.63101   0.27211   0.75870   0.00000  Uiso   1.00
H740   H     0.63099   0.06863   0.69646   0.00000  Uiso   1.00
H741   H     0.63123   0.06080   0.75279   0.00000  Uiso   1.00
H742   H     0.36874   0.26799   0.70293   0.00000  Uiso   1.00
H743   H     0.36852   0.27190   0.75968   0.00000  Uiso   1.00
H744   H     0.45462   0.04238   0.69918   0.00000  Uiso   1.00
H745   H     0.54565   0.29092   0.80055   0.00000  Uiso   1.00
H746   H     0.53807   0.22591   0.52804   0.00000  Uiso   1.00
H747   H     0.53454   0.10482   0.97245   0.00000  Uiso   1.00
H748   H     0.46328   0.22843   0.97165   0.00000  Uiso   1.00
H749   H     0.45965   0.10766   0.52846   0.00000  Uiso   1.00
H750   H     0.53566   0.26596   0.60635   0.00000  Uiso   1.00
N751   N     0.50000   0.28573   0.75000   0.00000  Uiso   1.00
N752   N     0.37655   0.25142   0.73259   0.00000  Uiso   1.00
N753   N     0.50000   0.04760   0.75000   0.00000  Uiso   1.00
N754   N     0.54621   0.23366   0.61563   0.00000  Uiso   1.00
N755   N     0.54241   0.09651   0.88503   0.00000  Uiso   1.00
N756   N     0.45683   0.23685   0.88406   0.00000  Uiso   1.00
N757   N     0.45271   0.09989   0.61616   0.00000  Uiso   1.00
N758   N     0.37682   0.08330   0.72640   0.00000  Uiso   1.00
N759   N     0.62317   0.25131   0.73174   0.00000  Uiso   1.00
N760   N     0.62317   0.08313   0.72708   0.00000  Uiso   1.00
O761   O     0.43892   0.20487   0.74999   0.00000  Uiso   1.00
O762   O     0.56108   0.12846   0.75000   0.00000  Uiso   1.00
O763   O     0.56108   0.20487   0.75000   0.00000  Uiso   1.00
O764   O     0.43892   0.12846   0.74999   0.00000  Uiso   1.00
O765   O     0.50000   0.20489   0.68453   0.00000  Uiso   1.00
O766   O     0.50000   0.12845   0.81547   0.00000  Uiso   1.00
O767   O     0.50000   0.20489   0.81547   0.00000  Uiso   1.00
O768   O     0.50000   0.12845   0.68453   0.00000  Uiso   1.00
Zn769  Zn    0.50000   0.21771   0.75000   0.00000  Uiso   1.00
Zn770  Zn    0.50000   0.11563   0.75000   0.00000  Uiso   1.00
C771   C     0.75328   0.16672   0.74655   0.00000  Uiso   1.00
C772   C     0.97849   0.20882   0.73503   0.00000  Uiso   1.00
C773   C     0.97852   0.12532   0.73262   0.00000  Uiso   1.00
C774   C     0.68801   0.20886   0.73524   0.00000  Uiso   1.00
C775   C     0.85430   0.20034   0.54640   0.00000  Uiso   1.00
C776   C     0.85231   0.13157   0.95399   0.00000  Uiso   1.00
C777   C     0.81237   0.20163   0.95354   0.00000  Uiso   1.00
C778   C     0.81029   0.13327   0.54664   0.00000  Uiso   1.00
C779   C     0.85518   0.20035   0.59255   0.00000  Uiso   1.00
C780   C     0.85326   0.13150   0.90784   0.00000  Uiso   1.00
C781   C     0.81221   0.20177   0.90737   0.00000  Uiso   1.00
C782   C     0.91336   0.16670   0.74656   0.00000  Uiso   1.00
C783   C     0.81012   0.13318   0.59280   0.00000  Uiso   1.00
C784   C     0.83288   0.16671   0.61584   0.00000  Uiso   1.00
C785   C     0.83296   0.16666   0.88435   0.00000  Uiso   1.00
C786   C     0.83215   0.16679   0.52396   0.00000  Uiso   1.00
C787   C     0.83216   0.16659   0.97632   0.00000  Uiso   1.00
C788   C     0.95734   0.16691   0.73825   0.00000  Uiso   1.00
C789   C     0.70925   0.16696   0.73828   0.00000  Uiso   1.00
C790   C     0.83325   0.16667   0.66385   0.00000  Uiso   1.00
C791   C     0.83330   0.16666   0.83621   0.00000  Uiso   1.00
C792   C     0.85874   0.02402   0.77811   0.00000  Uiso   1.00
C793   C     0.80807   0.30931   0.72174   0.00000  Uiso   1.00
C794   C     0.80806   0.02405   0.72175   0.00000  Uiso   1.00
C795   C     0.85872   0.30927   0.77813   0.00000  Uiso   1.00
C796   C     0.68810   0.12537   0.73247   0.00000  Uiso   1.00
H797   H     0.87905   0.04234   0.80047   0.00000  Uiso   1.00
H798   H     0.91019   0.23051   0.60503   0.00000  Uiso   1.00
H799   H     0.86330   0.06503   0.89420   0.00000  Uiso   1.00
H800   H     0.90646   0.09747   0.89595   0.00000  Uiso   1.00
H801   H     0.75927   0.23590   0.89421   0.00000  Uiso   1.00
H802   H     0.80249   0.26829   0.89360   0.00000  Uiso   1.00
H803   H     0.75524   0.10317   0.60600   0.00000  Uiso   1.00
H804   H     0.79635   0.06758   0.60668   0.00000  Uiso   1.00
H805   H     0.70219   0.06917   0.69560   0.00000  Uiso   1.00
H806   H     0.70232   0.06062   0.75184   0.00000  Uiso   1.00
H807   H     0.96440   0.26757   0.70198   0.00000  Uiso   1.00
H808   H     0.78799   0.29100   0.69914   0.00000  Uiso   1.00
H809   H     0.96435   0.27211   0.75870   0.00000  Uiso   1.00
H810   H     0.96432   0.06863   0.69646   0.00000  Uiso   1.00
H811   H     0.96457   0.06080   0.75279   0.00000  Uiso   1.00
H812   H     0.70207   0.26799   0.70293   0.00000  Uiso   1.00
H813   H     0.70186   0.27190   0.75968   0.00000  Uiso   1.00
H814   H     0.78796   0.04238   0.69918   0.00000  Uiso   1.00
H815   H     0.87898   0.29092   0.80055   0.00000  Uiso   1.00
H816   H     0.87141   0.22591   0.52804   0.00000  Uiso   1.00
H817   H     0.86787   0.10482   0.97245   0.00000  Uiso   1.00
H818   H     0.79662   0.22843   0.97165   0.00000  Uiso   1.00
H819   H     0.79298   0.10766   0.52846   0.00000  Uiso   1.00
H820   H     0.86899   0.26596   0.60635   0.00000  Uiso   1.00
N821   N     0.83333   0.28573   0.75000   0.00000  Uiso   1.00
N822   N     0.70988   0.25142   0.73259   0.00000  Uiso   1.00
N823   N     0.83333   0.04760   0.75000   0.00000  Uiso   1.00
N824   N     0.87954   0.23366   0.61563   0.00000  Uiso   1.00
N825   N     0.87575   0.09651   0.88503   0.00000  Uiso   1.00
N826   N     0.79017   0.23685   0.88406   0.00000  Uiso   1.00
N827   N     0.78604   0.09989   0.61616   0.00000  Uiso   1.00
N828   N     0.71016   0.08330   0.72640   0.00000  Uiso   1.00
N829   N     0.95650   0.25131   0.73174   0.00000  Uiso   1.00
N830   N     0.95650   0.08313   0.72708   0.00000  Uiso   1.00
O831   O     0.77226   0.20487   0.74999   0.00000  Uiso   1.00
O832   O     0.89441   0.12846   0.75000   0.00000  Uiso   1.00
O833   O     0.89441   0.20487   0.75000   0.00000  Uiso   1.00
O834   O     0.77226   0.12846   0.74999   0.00000  Uiso   1.00
O835   O     0.83333   0.20489   0.68453   0.00000  Uiso   1.00
O836   O     0.83334   0.12845   0.81547   0.00000  Uiso   1.00
O837   O     0.83334   0.20489   0.81547   0.00000  Uiso   1.00
O838   O     0.83333   0.12845   0.68453   0.00000  Uiso   1.00
Zn839  Zn    0.83333   0.21771   0.75000   0.00000  Uiso   1.00
Zn840  Zn    0.83333   0.11563   0.75000   0.00000  Uiso   1.00
C841   C     0.08661   0.50005   0.74655   0.00000  Uiso   1.00
C842   C     0.31182   0.54216   0.73503   0.00000  Uiso   1.00
C843   C     0.31186   0.45865   0.73262   0.00000  Uiso   1.00
C844   C     0.02134   0.54219   0.73524   0.00000  Uiso   1.00
C845   C     0.18763   0.53367   0.54640   0.00000  Uiso   1.00
C846   C     0.18564   0.46490   0.95399   0.00000  Uiso   1.00
C847   C     0.14570   0.53497   0.95354   0.00000  Uiso   1.00
C848   C     0.14362   0.46660   0.54664   0.00000  Uiso   1.00
C849   C     0.18851   0.53369   0.59255   0.00000  Uiso   1.00
C850   C     0.18660   0.46484   0.90784   0.00000  Uiso   1.00
C851   C     0.14555   0.53510   0.90737   0.00000  Uiso   1.00
C852   C     0.24670   0.50003   0.74656   0.00000  Uiso   1.00
C853   C     0.14345   0.46651   0.59280   0.00000  Uiso   1.00
C854   C     0.16621   0.50004   0.61584   0.00000  Uiso   1.00
C855   C     0.16629   0.50000   0.88435   0.00000  Uiso   1.00
C856   C     0.16549   0.50013   0.52396   0.00000  Uiso   1.00
C857   C     0.16549   0.49993   0.97632   0.00000  Uiso   1.00
C858   C     0.29067   0.50025   0.73825   0.00000  Uiso   1.00
C859   C     0.04258   0.50029   0.73828   0.00000  Uiso   1.00
C860   C     0.16658   0.50001   0.66385   0.00000  Uiso   1.00
C861   C     0.16663   0.50000   0.83621   0.00000  Uiso   1.00
C862   C     0.19208   0.35736   0.77811   0.00000  Uiso   1.00
C863   C     0.14141   0.64264   0.72174   0.00000  Uiso   1.00
C864   C     0.14140   0.35738   0.72175   0.00000  Uiso   1.00
C865   C     0.19206   0.64261   0.77813   0.00000  Uiso   1.00
C866   C     0.02143   0.45870   0.73247   0.00000  Uiso   1.00
H867   H     0.21239   0.37567   0.80047   0.00000  Uiso   1.00
H868   H     0.24352   0.56384   0.60503   0.00000  Uiso   1.00
H869   H     0.19663   0.39836   0.89420   0.00000  Uiso   1.00
H870   H     0.23979   0.43080   0.89595   0.00000  Uiso   1.00
H871   H     0.09261   0.56923   0.89421   0.00000  Uiso   1.00
H872   H     0.13582   0.60162   0.89360   0.00000  Uiso   1.00
H873   H     0.08857   0.43650   0.60600   0.00000  Uiso   1.00
H874   H     0.12968   0.40091   0.60668   0.00000  Uiso   1.00
H875   H     0.03553   0.40251   0.69560   0.00000  Uiso   1.00
H876   H     0.03565   0.39395   0.75184   0.00000  Uiso   1.00
H877   H     0.29773   0.60090   0.70198   0.00000  Uiso   1.00
H878   H     0.12132   0.62433   0.69914   0.00000  Uiso   1.00
H879   H     0.29768   0.60544   0.75870   0.00000  Uiso   1.00
H880   H     0.29765   0.40196   0.69646   0.00000  Uiso   1.00
H881   H     0.29790   0.39414   0.75279   0.00000  Uiso   1.00
H882   H     0.03541   0.60133   0.70293   0.00000  Uiso   1.00
H883   H     0.03519   0.60524   0.75968   0.00000  Uiso   1.00
H884   H     0.12129   0.37571   0.69918   0.00000  Uiso   1.00
H885   H     0.21231   0.62426   0.80055   0.00000  Uiso   1.00
H886   H     0.20474   0.55925   0.52804   0.00000  Uiso   1.00
H887   H     0.20120   0.43815   0.97245   0.00000  Uiso   1.00
H888   H     0.12995   0.56177   0.97165   0.00000  Uiso   1.00
H889   H     0.12631   0.44099   0.52846   0.00000  Uiso   1.00
H890   H     0.20233   0.59930   0.60635   0.00000  Uiso   1.00
N891   N     0.16667   0.61907   0.75000   0.00000  Uiso   1.00
N892   N     0.04322   0.58475   0.73259   0.00000  Uiso   1.00
N893   N     0.16667   0.38093   0.75000   0.00000  Uiso   1.00
N894   N     0.21288   0.56700   0.61563   0.00000  Uiso   1.00
N895   N     0.20908   0.42984   0.88503   0.00000  Uiso   1.00
N896   N     0.12350   0.57018   0.88406   0.00000  Uiso   1.00
N897   N     0.11937   0.43323   0.61616   0.00000  Uiso   1.00
N898   N     0.04349   0.41663   0.72640   0.00000  Uiso   1.00
N899   N     0.28983   0.58464   0.73174   0.00000  Uiso   1.00
N900   N     0.28984   0.41647   0.72708   0.00000  Uiso   1.00
O901   O     0.10559   0.53821   0.74999   0.00000  Uiso   1.00
O902   O     0.22774   0.46179   0.75000   0.00000  Uiso   1.00
O903   O     0.22774   0.53821   0.75000   0.00000  Uiso   1.00
O904   O     0.10559   0.46179   0.74999   0.00000  Uiso   1.00
O905   O     0.16666   0.53822   0.68453   0.00000  Uiso   1.00
O906   O     0.16667   0.46178   0.81547   0.00000  Uiso   1.00
O907   O     0.16667   0.53822   0.81547   0.00000  Uiso   1.00
O908   O     0.16666   0.46178   0.68453   0.00000  Uiso   1.00
Zn909  Zn    0.16667   0.55104   0.75000   0.00000  Uiso   1.00
Zn910  Zn    0.16667   0.44896   0.75000   0.00000  Uiso   1.00
C911   C     0.41995   0.50005   0.74655   0.00000  Uiso   1.00
C912   C     0.64515   0.54216   0.73503   0.00000  Uiso   1.00
C913   C     0.64519   0.45865   0.73262   0.00000  Uiso   1.00
C914   C     0.35467   0.54219   0.73524   0.00000  Uiso   1.00
C915   C     0.52096   0.53367   0.54640   0.00000  Uiso   1.00
C916   C     0.51898   0.46490   0.95399   0.00000  Uiso   1.00
C917   C     0.47904   0.53497   0.95354   0.00000  Uiso   1.00
C918   C     0.47696   0.46660   0.54664   0.00000  Uiso   1.00
C919   C     0.52184   0.53369   0.59255   0.00000  Uiso   1.00
C920   C     0.51993   0.46484   0.90784   0.00000  Uiso   1.00
C921   C     0.47888   0.53510   0.90737   0.00000  Uiso   1.00
C922   C     0.58003   0.50003   0.74656   0.00000  Uiso   1.00
C923   C     0.47679   0.46651   0.59280   0.00000  Uiso   1.00
C924   C     0.49954   0.50004   0.61584   0.00000  Uiso   1.00
C925   C     0.49962   0.50000   0.88435   0.00000  Uiso   1.00
C926   C     0.49882   0.50013   0.52396   0.00000  Uiso   1.00
C927   C     0.49883   0.49993   0.97632   0.00000  Uiso   1.00
C928   C     0.62400   0.50025   0.73825   0.00000  Uiso   1.00
C929   C     0.37592   0.50029   0.73828   0.00000  Uiso   1.00
C930   C     0.49991   0.50001   0.66385   0.00000  Uiso   1.00
C931   C     0.49997   0.50000   0.83621   0.00000  Uiso   1.00
C932   C     0.52541   0.35736   0.77811   0.00000  Uiso   1.00
C933   C     0.47474   0.64264   0.72174   0.00000  Uiso   1.00
C934   C     0.47473   0.35738   0.72175   0.00000  Uiso   1.00
C935   C     0.52539   0.64261   0.77813   0.00000  Uiso   1.00
C936   C     0.35476   0.45870   0.73247   0.00000  Uiso   1.00
H937   H     0.54572   0.37567   0.80047   0.00000  Uiso   1.00
H938   H     0.57685   0.56384   0.60503   0.00000  Uiso   1.00
H939   H     0.52996   0.39836   0.89420   0.00000  Uiso   1.00
H940   H     0.57313   0.43080   0.89595   0.00000  Uiso   1.00
H941   H     0.42594   0.56923   0.89421   0.00000  Uiso   1.00
H942   H     0.46916   0.60162   0.89360   0.00000  Uiso   1.00
H943   H     0.42190   0.43650   0.60600   0.00000  Uiso   1.00
H944   H     0.46301   0.40091   0.60668   0.00000  Uiso   1.00
H945   H     0.36886   0.40251   0.69560   0.00000  Uiso   1.00
H946   H     0.36899   0.39395   0.75184   0.00000  Uiso   1.00
H947   H     0.63106   0.60090   0.70198   0.00000  Uiso   1.00
H948   H     0.45466   0.62433   0.69914   0.00000  Uiso   1.00
H949   H     0.63101   0.60544   0.75870   0.00000  Uiso   1.00
H950   H     0.63099   0.40196   0.69646   0.00000  Uiso   1.00
H951   H     0.63123   0.39414   0.75279   0.00000  Uiso   1.00
H952   H     0.36874   0.60133   0.70293   0.00000  Uiso   1.00
H953   H     0.36852   0.60524   0.75968   0.00000  Uiso   1.00
H954   H     0.45462   0.37571   0.69918   0.00000  Uiso   1.00
H955   H     0.54565   0.62426   0.80055   0.00000  Uiso   1.00
H956   H     0.53807   0.55925   0.52804   0.00000  Uiso   1.00
H957   H     0.53454   0.43815   0.97245   0.00000  Uiso   1.00
H958   H     0.46328   0.56177   0.97165   0.00000  Uiso   1.00
H959   H     0.45965   0.44099   0.52846   0.00000  Uiso   1.00
H960   H     0.53566   0.59930   0.60635   0.00000  Uiso   1.00
N961   N     0.50000   0.61907   0.75000   0.00000  Uiso   1.00
N962   N     0.37655   0.58475   0.73259   0.00000  Uiso   1.00
N963   N     0.50000   0.38093   0.75000   0.00000  Uiso   1.00
N964   N     0.54621   0.56700   0.61563   0.00000  Uiso   1.00
N965   N     0.54241   0.42984   0.88503   0.00000  Uiso   1.00
N966   N     0.45683   0.57018   0.88406   0.00000  Uiso   1.00
N967   N     0.45271   0.43323   0.61616   0.00000  Uiso   1.00
N968   N     0.37682   0.41663   0.72640   0.00000  Uiso   1.00
N969   N     0.62317   0.58464   0.73174   0.00000  Uiso   1.00
N970   N     0.62317   0.41647   0.72708   0.00000  Uiso   1.00
O971   O     0.43892   0.53821   0.74999   0.00000  Uiso   1.00
O972   O     0.56108   0.46179   0.75000   0.00000  Uiso   1.00
O973   O     0.56108   0.53821   0.75000   0.00000  Uiso   1.00
O974   O     0.43892   0.46179   0.74999   0.00000  Uiso   1.00
O975   O     0.50000   0.53822   0.68453   0.00000  Uiso   1.00
O976   O     0.50000   0.46178   0.81547   0.00000  Uiso   1.00
O977   O     0.50000   0.53822   0.81547   0.00000  Uiso   1.00
O978   O     0.50000   0.46178   0.68453   0.00000  Uiso   1.00
Zn979  Zn    0.50000   0.55104   0.75000   0.00000  Uiso   1.00
Zn980  Zn    0.50000   0.44896   0.75000   0.00000  Uiso   1.00
C981   C     0.75328   0.50005   0.74655   0.00000  Uiso   1.00
C982   C     0.97849   0.54216   0.73503   0.00000  Uiso   1.00
C983   C     0.97852   0.45865   0.73262   0.00000  Uiso   1.00
C984   C     0.68801   0.54219   0.73524   0.00000  Uiso   1.00
C985   C     0.85430   0.53367   0.54640   0.00000  Uiso   1.00
C986   C     0.85231   0.46490   0.95399   0.00000  Uiso   1.00
C987   C     0.81237   0.53497   0.95354   0.00000  Uiso   1.00
C988   C     0.81029   0.46660   0.54664   0.00000  Uiso   1.00
C989   C     0.85518   0.53369   0.59255   0.00000  Uiso   1.00
C990   C     0.85326   0.46484   0.90784   0.00000  Uiso   1.00
C991   C     0.81221   0.53510   0.90737   0.00000  Uiso   1.00
C992   C     0.91336   0.50003   0.74656   0.00000  Uiso   1.00
C993   C     0.81012   0.46651   0.59280   0.00000  Uiso   1.00
C994   C     0.83288   0.50004   0.61584   0.00000  Uiso   1.00
C995   C     0.83296   0.50000   0.88435   0.00000  Uiso   1.00
C996   C     0.83215   0.50013   0.52396   0.00000  Uiso   1.00
C997   C     0.83216   0.49993   0.97632   0.00000  Uiso   1.00
C998   C     0.95734   0.50025   0.73825   0.00000  Uiso   1.00
C999   C     0.70925   0.50029   0.73828   0.00000  Uiso   1.00
C1000  C     0.83325   0.50001   0.66385   0.00000  Uiso   1.00
C1001  C     0.83330   0.50000   0.83621   0.00000  Uiso   1.00
C1002  C     0.85874   0.35736   0.77811   0.00000  Uiso   1.00
C1003  C     0.80807   0.64264   0.72174   0.00000  Uiso   1.00
C1004  C     0.80806   0.35738   0.72175   0.00000  Uiso   1.00
C1005  C     0.85872   0.64261   0.77813   0.00000  Uiso   1.00
C1006  C     0.68810   0.45870   0.73247   0.00000  Uiso   1.00
H1007  H     0.87905   0.37567   0.80047   0.00000  Uiso   1.00
H1008  H     0.91019   0.56384   0.60503   0.00000  Uiso   1.00
H1009  H     0.86330   0.39836   0.89420   0.00000  Uiso   1.00
H1010  H     0.90646   0.43080   0.89595   0.00000  Uiso   1.00
H1011  H     0.75927   0.56923   0.89421   0.00000  Uiso   1.00
H1012  H     0.80249   0.60162   0.89360   0.00000  Uiso   1.00
H1013  H     0.75524   0.43650   0.60600   0.00000  Uiso   1.00
H1014  H     0.79635   0.40091   0.60668   0.00000  Uiso   1.00
H1015  H     0.70219   0.40251   0.69560   0.00000  Uiso   1.00
H1016  H     0.70232   0.39395   0.75184   0.00000  Uiso   1.00
H1017  H     0.96440   0.60090   0.70198   0.00000  Uiso   1.00
H1018  H     0.78799   0.62433   0.69914   0.00000  Uiso   1.00
H1019  H     0.96435   0.60544   0.75870   0.00000  Uiso   1.00
H1020  H     0.96432   0.40196   0.69646   0.00000  Uiso   1.00
H1021  H     0.96457   0.39414   0.75279   0.00000  Uiso   1.00
H1022  H     0.70207   0.60133   0.70293   0.00000  Uiso   1.00
H1023  H     0.70186   0.60524   0.75968   0.00000  Uiso   1.00
H1024  H     0.78796   0.37571   0.69918   0.00000  Uiso   1.00
H1025  H     0.87898   0.62426   0.80055   0.00000  Uiso   1.00
H1026  H     0.87141   0.55925   0.52804   0.00000  Uiso   1.00
H1027  H     0.86787   0.43815   0.97245   0.00000  Uiso   1.00
H1028  H     0.79662   0.56177   0.97165   0.00000  Uiso   1.00
H1029  H     0.79298   0.44099   0.52846   0.00000  Uiso   1.00
H1030  H     0.86899   0.59930   0.60635   0.00000  Uiso   1.00
N1031  N     0.83333   0.61907   0.75000   0.00000  Uiso   1.00
N1032  N     0.70988   0.58475   0.73259   0.00000  Uiso   1.00
N1033  N     0.83333   0.38093   0.75000   0.00000  Uiso   1.00
N1034  N     0.87954   0.56700   0.61563   0.00000  Uiso   1.00
N1035  N     0.87575   0.42984   0.88503   0.00000  Uiso   1.00
N1036  N     0.79017   0.57018   0.88406   0.00000  Uiso   1.00
N1037  N     0.78604   0.43323   0.61616   0.00000  Uiso   1.00
N1038  N     0.71016   0.41663   0.72640   0.00000  Uiso   1.00
N1039  N     0.95650   0.58464   0.73174   0.00000  Uiso   1.00
N1040  N     0.95650   0.41647   0.72708   0.00000  Uiso   1.00
O1041  O     0.77226   0.53821   0.74999   0.00000  Uiso   1.00
O1042  O     0.89441   0.46179   0.75000   0.00000  Uiso   1.00
O1043  O     0.89441   0.53821   0.75000   0.00000  Uiso   1.00
O1044  O     0.77226   0.46179   0.74999   0.00000  Uiso   1.00
O1045  O     0.83333   0.53822   0.68453   0.00000  Uiso   1.00
O1046  O     0.83334   0.46178   0.81547   0.00000  Uiso   1.00
O1047  O     0.83334   0.53822   0.81547   0.00000  Uiso   1.00
O1048  O     0.83333   0.46178   0.68453   0.00000  Uiso   1.00
Zn1049 Zn    0.83333   0.55104   0.75000   0.00000  Uiso   1.00
Zn1050 Zn    0.83333   0.44896   0.75000   0.00000  Uiso   1.00
C1051  C     0.08661   0.83338   0.74655   0.00000  Uiso   1.00
C1052  C     0.31182   0.87549   0.73503   0.00000  Uiso   1.00
C1053  C     0.31186   0.79198   0.73262   0.00000  Uiso   1.00
C1054  C     0.02134   0.87552   0.73524   0.00000  Uiso   1.00
C1055  C     0.18763   0.86700   0.54640   0.00000  Uiso   1.00
C1056  C     0.18564   0.79823   0.95399   0.00000  Uiso   1.00
C1057  C     0.14570   0.86830   0.95354   0.00000  Uiso   1.00
C1058  C     0.14362   0.79993   0.54664   0.00000  Uiso   1.00
C1059  C     0.18851   0.86702   0.59255   0.00000  Uiso   1.00
C1060  C     0.18660   0.79817   0.90784   0.00000  Uiso   1.00
C1061  C     0.14555   0.86844   0.90737   0.00000  Uiso   1.00
C1062  C     0.24670   0.83337   0.74656   0.00000  Uiso   1.00
C1063  C     0.14345   0.79985   0.59280   0.00000  Uiso   1.00
C1064  C     0.16621   0.83338   0.61584   0.00000  Uiso   1.00
C1065  C     0.16629   0.83333   0.88435   0.00000  Uiso   1.00
C1066  C     0.16549   0.83346   0.52396   0.00000  Uiso   1.00
C1067  C     0.16549   0.83326   0.97632   0.00000  Uiso   1.00
C1068  C     0.29067   0.83358   0.73825   0.00000  Uiso   1.00
C1069  C     0.04258   0.83363   0.73828   0.00000  Uiso   1.00
C1070  C     0.16658   0.83334   0.66385   0.00000  Uiso   1.00
C1071  C     0.16663   0.83333   0.83621   0.00000  Uiso   1.00
C1072  C     0.19208   0.69069   0.77811   0.00000  Uiso   1.00
C1073  C     0.14141   0.97598   0.72174   0.00000  Uiso   1.00
C1074  C     0.14140   0.69072   0.72175   0.00000  Uiso   1.00
C1075  C     0.19206   0.97594   0.77813   0.00000  Uiso   1.00
C1076  C     0.02143   0.79203   0.73247   0.00000  Uiso   1.00
H1077  H     0.21239   0.70901   0.80047   0.00000  Uiso   1.00
H1078  H     0.24352   0.89718   0.60503   0.00000  Uiso   1.00
H1079  H     0.19663   0.73170   0.89420   0.00000  Uiso   1.00
H1080  H     0.23979   0.76414   0.89595   0.00000  Uiso   1.00
H1081  H     0.09261   0.90256   0.89421   0.00000  Uiso   1.00
H1082  H     0.13582   0.93495   0.89360   0.00000  Uiso   1.00
H1083  H     0.08857   0.76984   0.60600   0.00000  Uiso   1.00
H1084  H     0.12968   0.73424   0.60668   0.00000  Uiso   1.00
H1085  H     0.03553   0.73584   0.69560   0.00000  Uiso   1.00
H1086  H     0.03565   0.72729   0.75184   0.00000  Uiso   1.00
H1087  H     0.29773   0.93424   0.70198   0.00000  Uiso   1.00
H1088  H     0.12132   0.95767   0.69914   0.00000  Uiso   1.00
H1089  H     0.29768   0.93877   0.75870   0.00000  Uiso   1.00
H1090  H     0.29765   0.73529   0.69646   0.00000  Uiso   1.00
H1091  H     0.29790   0.72747   0.75279   0.00000  Uiso   1.00
H1092  H     0.03541   0.93466   0.70293   0.00000  Uiso   1.00
H1093  H     0.03519   0.93857   0.75968   0.00000  Uiso   1.00
H1094  H     0.12129   0.70904   0.69918   0.00000  Uiso   1.00
H1095  H     0.21231   0.95759   0.80055   0.00000  Uiso   1.00
H1096  H     0.20474   0.89258   0.52804   0.00000  Uiso   1.00
H1097  H     0.20120   0.77148   0.97245   0.00000  Uiso   1.00
H1098  H     0.12995   0.89510   0.97165   0.00000  Uiso   1.00
H1099  H     0.12631   0.77433   0.52846   0.00000  Uiso   1.00
H1100  H     0.20233   0.93263   0.60635   0.00000  Uiso   1.00
N1101  N     0.16667   0.95240   0.75000   0.00000  Uiso   1.00
N1102  N     0.04322   0.91809   0.73259   0.00000  Uiso   1.00
N1103  N     0.16667   0.71427   0.75000   0.00000  Uiso   1.00
N1104  N     0.21288   0.90033   0.61563   0.00000  Uiso   1.00
N1105  N     0.20908   0.76317   0.88503   0.00000  Uiso   1.00
N1106  N     0.12350   0.90351   0.88406   0.00000  Uiso   1.00
N1107  N     0.11937   0.76656   0.61616   0.00000  Uiso   1.00
N1108  N     0.04349   0.74996   0.72640   0.00000  Uiso   1.00
N1109  N     0.28983   0.91797   0.73174   0.00000  Uiso   1.00
N1110  N     0.28984   0.74980   0.72708   0.00000  Uiso   1.00
O1111  O     0.10559   0.87154   0.74999   0.00000  Uiso   1.00
O1112  O     0.22774   0.79513   0.75000   0.00000  Uiso   1.00
O1113  O     0.22774   0.87154   0.75000   0.00000  Uiso   1.00
O1114  O     0.10559   0.79513   0.74999   0.00000  Uiso   1.00
O1115  O     0.16666   0.87155   0.68453   0.00000  Uiso   1.00
O1116  O     0.16667   0.79511   0.81547   0.00000  Uiso   1.00
O1117  O     0.16667   0.87155   0.81547   0.00000  Uiso   1.00
O1118  O     0.16666   0.79511   0.68453   0.00000  Uiso   1.00
Zn1119 Zn    0.16667   0.88437   0.75000   0.00000  Uiso   1.00
Zn1120 Zn    0.16667   0.78229   0.75000   0.00000  Uiso   1.00
C1121  C     0.41995   0.83338   0.74655   0.00000  Uiso   1.00
C1122  C     0.64515   0.87549   0.73503   0.00000  Uiso   1.00
C1123  C     0.64519   0.79198   0.73262   0.00000  Uiso   1.00
C1124  C     0.35467   0.87552   0.73524   0.00000  Uiso   1.00
C1125  C     0.52096   0.86700   0.54640   0.00000  Uiso   1.00
C1126  C     0.51898   0.79823   0.95399   0.00000  Uiso   1.00
C1127  C     0.47904   0.86830   0.95354   0.00000  Uiso   1.00
C1128  C     0.47696   0.79993   0.54664   0.00000  Uiso   1.00
C1129  C     0.52184   0.86702   0.59255   0.00000  Uiso   1.00
C1130  C     0.51993   0.79817   0.90784   0.00000  Uiso   1.00
C1131  C     0.47888   0.86844   0.90737   0.00000  Uiso   1.00
C1132  C     0.58003   0.83337   0.74656   0.00000  Uiso   1.00
C1133  C     0.47679   0.79985   0.59280   0.00000  Uiso   1.00
C1134  C     0.49954   0.83338   0.61584   0.00000  Uiso   1.00
C1135  C     0.49962   0.83333   0.88435   0.00000  Uiso   1.00
C1136  C     0.49882   0.83346   0.52396   0.00000  Uiso   1.00
C1137  C     0.49883   0.83326   0.97632   0.00000  Uiso   1.00
C1138  C     0.62400   0.83358   0.73825   0.00000  Uiso   1.00
C1139  C     0.37592   0.83363   0.73828   0.00000  Uiso   1.00
C1140  C     0.49991   0.83334   0.66385   0.00000  Uiso   1.00
C1141  C     0.49997   0.83333   0.83621   0.00000  Uiso   1.00
C1142  C     0.52541   0.69069   0.77811   0.00000  Uiso   1.00
C1143  C     0.47474   0.97598   0.72174   0.00000  Uiso   1.00
C1144  C     0.47473   0.69072   0.72175   0.00000  Uiso   1.00
C1145  C     0.52539   0.97594   0.77813   0.00000  Uiso   1.00
C1146  C     0.35476   0.79203   0.73247   0.00000  Uiso   1.00
H1147  H     0.54572   0.70901   0.80047   0.00000  Uiso   1.00
H1148  H     0.57685   0.89718   0.60503   0.00000  Uiso   1.00
H1149  H     0.52996   0.73170   0.89420   0.00000  Uiso   1.00
H1150  H     0.57313   0.76414   0.89595   0.00000  Uiso   1.00
H1151  H     0.42594   0.90256   0.89421   0.00000  Uiso   1.00
H1152  H     0.46916   0.93495   0.89360   0.00000  Uiso   1.00
H1153  H     0.42190   0.76984   0.60600   0.00000  Uiso   1.00
H1154  H     0.46301   0.73424   0.60668   0.00000  Uiso   1.00
H1155  H     0.36886   0.73584   0.69560   0.00000  Uiso   1.00
H1156  H     0.36899   0.72729   0.75184   0.00000  Uiso   1.00
H1157  H     0.63106   0.93424   0.70198   0.00000  Uiso   1.00
H1158  H     0.45466   0.95767   0.69914   0.00000  Uiso   1.00
H1159  H     0.63101   0.93877   0.75870   0.00000  Uiso   1.00
H1160  H     0.63099   0.73529   0.69646   0.00000  Uiso   1.00
H1161  H     0.63123   0.72747   0.75279   0.00000  Uiso   1.00
H1162  H     0.36874   0.93466   0.70293   0.00000  Uiso   1.00
H1163  H     0.36852   0.93857   0.75968   0.00000  Uiso   1.00
H1164  H     0.45462   0.70904   0.69918   0.00000  Uiso   1.00
H1165  H     0.54565   0.95759   0.80055   0.00000  Uiso   1.00
H1166  H     0.53807   0.89258   0.52804   0.00000  Uiso   1.00
H1167  H     0.53454   0.77148   0.97245   0.00000  Uiso   1.00
H1168  H     0.46328   0.89510   0.97165   0.00000  Uiso   1.00
H1169  H     0.45965   0.77433   0.52846   0.00000  Uiso   1.00
H1170  H     0.53566   0.93263   0.60635   0.00000  Uiso   1.00
N1171  N     0.50000   0.95240   0.75000   0.00000  Uiso   1.00
N1172  N     0.37655   0.91809   0.73259   0.00000  Uiso   1.00
N1173  N     0.50000   0.71427   0.75000   0.00000  Uiso   1.00
N1174  N     0.54621   0.90033   0.61563   0.00000  Uiso   1.00
N1175  N     0.54241   0.76317   0.88503   0.00000  Uiso   1.00
N1176  N     0.45683   0.90351   0.88406   0.00000  Uiso   1.00
N1177  N     0.45271   0.76656   0.61616   0.00000  Uiso   1.00
N1178  N     0.37682   0.74996   0.72640   0.00000  Uiso   1.00
N1179  N     0.62317   0.91797   0.73174   0.00000  Uiso   1.00
N1180  N     0.62317   0.74980   0.72708   0.00000  Uiso   1.00
O1181  O     0.43892   0.87154   0.74999   0.00000  Uiso   1.00
O1182  O     0.56108   0.79513   0.75000   0.00000  Uiso   1.00
O1183  O     0.56108   0.87154   0.75000   0.00000  Uiso   1.00
O1184  O     0.43892   0.79513   0.74999   0.00000  Uiso   1.00
O1185  O     0.50000   0.87155   0.68453   0.00000  Uiso   1.00
O1186  O     0.50000   0.79511   0.81547   0.00000  Uiso   1.00
O1187  O     0.50000   0.87155   0.81547   0.00000  Uiso   1.00
O1188  O     0.50000   0.79511   0.68453   0.00000  Uiso   1.00
Zn1189 Zn    0.50000   0.88437   0.75000   0.00000  Uiso   1.00
Zn1190 Zn    0.50000   0.78229   0.75000   0.00000  Uiso   1.00
C1191  C     0.75328   0.83338   0.74655   0.00000  Uiso   1.00
C1192  C     0.97849   0.87549   0.73503   0.00000  Uiso   1.00
C1193  C     0.97852   0.79198   0.73262   0.00000  Uiso   1.00
C1194  C     0.68801   0.87552   0.73524   0.00000  Uiso   1.00
C1195  C     0.85430   0.86700   0.54640   0.00000  Uiso   1.00
C1196  C     0.85231   0.79823   0.95399   0.00000  Uiso   1.00
C1197  C     0.81237   0.86830   0.95354   0.00000  Uiso   1.00
C1198  C     0.81029   0.79993   0.54664   0.00000  Uiso   1.00
C1199  C     0.85518   0.86702   0.59255   0.00000  Uiso   1.00
C1200  C     0.85326   0.79817   0.90784   0.00000  Uiso   1.00
C1201  C     0.81221   0.86844   0.90737   0.00000  Uiso   1.00
C1202  C     0.91336   0.83337   0.74656   0.00000  Uiso   1.00
C1203  C     0.81012   0.79985   0.59280   0.00000  Uiso   1.00
C1204  C     0.83288   0.83338   0.61584   0.00000  Uiso   1.00
C1205  C     0.83296   0.83333   0.88435   0.00000  Uiso   1.00
C1206  C     0.83215   0.83346   0.52396   0.00000  Uiso   1.00
C1207  C     0.83216   0.83326   0.97632   0.00000  Uiso   1.00
C1208  C     0.95734   0.83358   0.73825   0.00000  Uiso   1.00
C1209  C     0.70925   0.83363   0.73828   0.00000  Uiso   1.00
C1210  C     0.83325   0.83334   0.66385   0.00000  Uiso   1.00
C1211  C     0.83330   0.83333   0.83621   0.00000  Uiso   1.00
C1212  C     0.85874   0.69069   0.77811   0.00000  Uiso   1.00
C1213  C     0.80807   0.97598   0.72174   0.00000  Uiso   1.00
C1214  C     0.80806   0.69072   0.72175   0.00000  Uiso   1.00
C1215  C     0.85872   0.97594   0.77813   0.00000  Uiso   1.00
C1216  C     0.68810   0.79203   0.73247   0.00000  Uiso   1.00
H1217  H     0.87905   0.70901   0.80047   0.00000  Uiso   1.00
H1218  H     0.91019   0.89718   0.60503   0.00000  Uiso   1.00
H1219  H     0.86330   0.73170   0.89420   0.00000  Uiso   1.00
H1220  H     0.90646   0.76414   0.89595   0.00000  Uiso   1.00
H1221  H     0.75927   0.90256   0.89421   0.00000  Uiso   1.00
H1222  H     0.80249   0.93495   0.89360   0.00000  Uiso   1.00
H1223  H     0.75524   0.76984   0.60600   0.00000  Uiso   1.00
H1224  H     0.79635   0.73424   0.60668   0.00000  Uiso   1.00
H1225  H     0.70219   0.73584   0.69560   0.00000  Uiso   1.00
H1226  H     0.70232   0.72729   0.75184   0.00000  Uiso   1.00
H1227  H     0.96440   0.93424   0.70198   0.00000  Uiso   1.00
H1228  H     0.78799   0.95767   0.69914   0.00000  Uiso   1.00
H1229  H     0.96435   0.93877   0.75870   0.00000  Uiso   1.00
H1230  H     0.96432   0.73529   0.69646   0.00000  Uiso   1.00
H1231  H     0.96457   0.72747   0.75279   0.00000  Uiso   1.00
H1232  H     0.70207   0.93466   0.70293   0.00000  Uiso   1.00
H1233  H     0.70186   0.93857   0.75968   0.00000  Uiso   1.00
H1234  H     0.78796   0.70904   0.69918   0.00000  Uiso   1.00
H1235  H     0.87898   0.95759   0.80055   0.00000  Uiso   1.00
H1236  H     0.87141   0.89258   0.52804   0.00000  Uiso   1.00
H1237  H     0.86787   0.77148   0.97245   0.00000  Uiso   1.00
H1238  H     0.79662   0.89510   0.97165   0.00000  Uiso   1.00
H1239  H     0.79298   0.77433   0.52846   0.00000  Uiso   1.00
H1240  H     0.86899   0.93263   0.60635   0.00000  Uiso   1.00
N1241  N     0.83333   0.95240   0.75000   0.00000  Uiso   1.00
N1242  N     0.70988   0.91809   0.73259   0.00000  Uiso   1.00
N1243  N     0.83333   0.71427   0.75000   0.00000  Uiso   1.00
N1244  N     0.87954   0.90033   0.61563   0.00000  Uiso   1.00
N1245  N     0.87575   0.76317   0.88503   0.00000  Uiso   1.00
N1246  N     0.79017   0.90351   0.88406   0.00000  Uiso   1.00
N1247  N     0.78604   0.76656   0.61616   0.00000  Uiso   1.00
N1248  N     0.71016   0.74996   0.72640   0.00000  Uiso   1.00
N1249  N     0.95650   0.91797   0.73174   0.00000  Uiso   1.00
N1250  N     0.95650   0.74980   0.72708   0.00000  Uiso   1.00
O1251  O     0.77226   0.87154   0.74999   0.00000  Uiso   1.00
O1252  O     0.89441   0.79513   0.75000   0.00000  Uiso   1.00
O1253  O     0.89441   0.87154   0.75000   0.00000  Uiso   1.00
O1254  O     0.77226   0.79513   0.74999   0.00000  Uiso   1.00
O1255  O     0.83333   0.87155   0.68453   0.00000  Uiso   1.00
O1256  O     0.83334   0.79511   0.81547   0.00000  Uiso   1.00
O1257  O     0.83334   0.87155   0.81547   0.00000  Uiso   1.00
O1258  O     0.83333   0.79511   0.68453   0.00000  Uiso   1.00
Zn1259 Zn    0.83333   0.88437   0.75000   0.00000  Uiso   1.00
Zn1260 Zn    0.83333   0.78229   0.75000   0.00000  Uiso   1.00
loop_
_geom_bond_atom_site_label_1
_geom_bond_atom_site_label_2
_geom_bond_distance
_geom_bond_site_symmetry_2
_ccdc_geom_bond_type
C1     C19     1.445   .     S
C1     O64     1.284   .     A
C1     O61     1.282   .     A
C2     C18     1.412   .     A
C2     N59     1.439   .     S
C2     C74     1.386   .     S
C3     N60     1.439   .     S
C3     C18     1.411   .     A
C3     C96     1.388   .     S
C4     N52     1.439   .     S
C4     C19     1.412   .     A
C4     C142    1.386   1_455 S
C5     C9      1.386   .     A
C5     H46     1.084   .     S
C5     C16     1.391   .     A
C6     C10     1.386   .     A
C6     H47     1.085   .     S
C6     C17     1.391   .     A
C7     H48     1.084   .     S
C7     C11     1.386   .     A
C7     C17     1.391   .     A
C8     C13     1.386   .     A
C8     C16     1.391   .     A
C8     H49     1.084   .     S
C9     C14     1.410   .     A
C9     N54     1.434   .     S
C10    N55     1.434   .     S
C10    C15     1.411   .     A
C11    C15     1.412   .     A
C11    N56     1.434   .     S
C12    O62     1.284   .     A
C12    C18     1.445   .     S
C12    O63     1.282   .     A
C13    C14     1.410   .     A
C13    N57     1.434   .     S
C14    C20     1.441   .     S
C15    C21     1.445   .     S
C16    C647    1.430   1_554 S
C17    C646    1.430   .     S
C19    C26     1.411   .     A
C20    O68     1.283   .     A
C20    O65     1.283   .     A
C21    O66     1.284   .     A
C21    O67     1.284   .     A
C22    N53     1.365   .     A
C22    H27     1.082   .     S
C22    C445    1.412   1_545 S
C23    H38     1.082   .     S
C23    N51     1.365   .     A
C23    C234    1.412   .     S
C24    H44     1.081   .     S
C24    N53     1.365   .     A
C24    C443    1.412   1_545 S
C25    N51     1.365   .     A
C25    H45     1.082   .     S
C25    C232    1.412   .     S
C26    N58     1.439   .     S
C26    C143    1.388   1_455 S
H28    N54     1.046   .     S
H29    N55     1.046   .     S
H30    N55     1.046   .     S
H31    N56     1.046   .     S
H32    N56     1.046   .     S
H33    N57     1.046   .     S
H34    N57     1.046   .     S
H35    N58     1.045   .     S
H36    N58     1.045   .     S
H37    N59     1.045   .     S
H39    N59     1.045   .     S
H40    N60     1.045   .     S
H41    N60     1.045   .     S
H42    N52     1.045   .     S
H43    N52     1.045   .     S
H50    N54     1.046   .     S
N51    Zn69    1.998   .     S
N53    Zn70    1.998   .     S
O61    Zn69    2.011   .     S
O62    Zn70    2.011   .     S
O63    Zn69    2.011   .     S
O64    Zn70    2.011   .     S
O65    Zn69    2.001   .     S
O66    Zn70    2.001   .     S
O67    Zn69    2.001   .     S
O68    Zn70    2.001   .     S
C71    C89     1.445   .     S
C71    O134    1.284   .     A
C71    O131    1.282   .     A
C72    C88     1.412   .     A
C72    N129    1.439   .     S
C72    C144    1.386   .     S
C73    N130    1.439   .     S
C73    C88     1.411   .     A
C73    C166    1.388   .     S
C74    N122    1.439   .     S
C74    C89     1.412   .     A
C75    C79     1.386   .     A
C75    H116    1.084   .     S
C75    C86     1.391   .     A
C76    C80     1.386   .     A
C76    H117    1.085   .     S
C76    C87     1.391   .     A
C77    H118    1.084   .     S
C77    C81     1.386   .     A
C77    C87     1.391   .     A
C78    C83     1.386   .     A
C78    C86     1.391   .     A
C78    H119    1.084   .     S
C79    C84     1.410   .     A
C79    N124    1.434   .     S
C80    N125    1.434   .     S
C80    C85     1.411   .     A
C81    C85     1.412   .     A
C81    N126    1.434   .     S
C82    O132    1.284   .     A
C82    C88     1.445   .     S
C82    O133    1.282   .     A
C83    C84     1.410   .     A
C83    N127    1.434   .     S
C84    C90     1.441   .     S
C85    C91     1.445   .     S
C86    C717    1.430   1_554 S
C87    C716    1.430   .     S
C89    C96     1.411   .     A
C90    O138    1.283   .     A
C90    O135    1.283   .     A
C91    O136    1.284   .     A
C91    O137    1.284   .     A
C92    N123    1.365   .     A
C92    H97     1.082   .     S
C92    C515    1.412   1_545 S
C93    H108    1.082   .     S
C93    N121    1.365   .     A
C93    C304    1.412   .     S
C94    H114    1.081   .     S
C94    N123    1.365   .     A
C94    C513    1.412   1_545 S
C95    N121    1.365   .     A
C95    H115    1.082   .     S
C95    C302    1.412   .     S
C96    N128    1.439   .     S
H98    N124    1.046   .     S
H99    N125    1.046   .     S
H100   N125    1.046   .     S
H101   N126    1.046   .     S
H102   N126    1.046   .     S
H103   N127    1.046   .     S
H104   N127    1.046   .     S
H105   N128    1.045   .     S
H106   N128    1.045   .     S
H107   N129    1.045   .     S
H109   N129    1.045   .     S
H110   N130    1.045   .     S
H111   N130    1.045   .     S
H112   N122    1.045   .     S
H113   N122    1.045   .     S
H120   N124    1.046   .     S
N121   Zn139   1.998   .     S
N123   Zn140   1.998   .     S
O131   Zn139   2.011   .     S
O132   Zn140   2.011   .     S
O133   Zn139   2.011   .     S
O134   Zn140   2.011   .     S
O135   Zn139   2.001   .     S
O136   Zn140   2.001   .     S
O137   Zn139   2.001   .     S
O138   Zn140   2.001   .     S
C141   C159    1.445   .     S
C141   O204    1.284   .     A
C141   O201    1.282   .     A
C142   C158    1.412   .     A
C142   N199    1.439   .     S
C142   C4      1.386   1_655 S
C143   N200    1.439   .     S
C143   C158    1.411   .     A
C143   C26     1.388   1_655 S
C144   N192    1.439   .     S
C144   C159    1.412   .     A
C145   C149    1.386   .     A
C145   H186    1.084   .     S
C145   C156    1.391   .     A
C146   C150    1.386   .     A
C146   H187    1.085   .     S
C146   C157    1.391   .     A
C147   H188    1.084   .     S
C147   C151    1.386   .     A
C147   C157    1.391   .     A
C148   C153    1.386   .     A
C148   C156    1.391   .     A
C148   H189    1.084   .     S
C149   C154    1.410   .     A
C149   N194    1.434   .     S
C150   N195    1.434   .     S
C150   C155    1.411   .     A
C151   C155    1.412   .     A
C151   N196    1.434   .     S
C152   O202    1.284   .     A
C152   C158    1.445   .     S
C152   O203    1.282   .     A
C153   C154    1.410   .     A
C153   N197    1.434   .     S
C154   C160    1.441   .     S
C155   C161    1.445   .     S
C156   C787    1.430   1_554 S
C157   C786    1.430   .     S
C159   C166    1.411   .     A
C160   O208    1.283   .     A
C160   O205    1.283   .     A
C161   O206    1.284   .     A
C161   O207    1.284   .     A
C162   N193    1.365   .     A
C162   H167    1.082   .     S
C162   C585    1.412   1_545 S
C163   H178    1.082   .     S
C163   N191    1.365   .     A
C163   C374    1.412   .     S
C164   H184    1.081   .     S
C164   N193    1.365   .     A
C164   C583    1.412   1_545 S
C165   N191    1.365   .     A
C165   H185    1.082   .     S
C165   C372    1.412   .     S
C166   N198    1.439   .     S
H168   N194    1.046   .     S
H169   N195    1.046   .     S
H170   N195    1.046   .     S
H171   N196    1.046   .     S
H172   N196    1.046   .     S
H173   N197    1.046   .     S
H174   N197    1.046   .     S
H175   N198    1.045   .     S
H176   N198    1.045   .     S
H177   N199    1.045   .     S
H179   N199    1.045   .     S
H180   N200    1.045   .     S
H181   N200    1.045   .     S
H182   N192    1.045   .     S
H183   N192    1.045   .     S
H190   N194    1.046   .     S
N191   Zn209   1.998   .     S
N193   Zn210   1.998   .     S
O201   Zn209   2.011   .     S
O202   Zn210   2.011   .     S
O203   Zn209   2.011   .     S
O204   Zn210   2.011   .     S
O205   Zn209   2.001   .     S
O206   Zn210   2.001   .     S
O207   Zn209   2.001   .     S
O208   Zn210   2.001   .     S
C211   C229    1.445   .     S
C211   O274    1.284   .     A
C211   O271    1.282   .     A
C212   C228    1.412   .     A
C212   N269    1.439   .     S
C212   C284    1.386   .     S
C213   N270    1.439   .     S
C213   C228    1.411   .     A
C213   C306    1.388   .     S
C214   N262    1.439   .     S
C214   C229    1.412   .     A
C214   C352    1.386   1_455 S
C215   C219    1.386   .     A
C215   H256    1.084   .     S
C215   C226    1.391   .     A
C216   C220    1.386   .     A
C216   H257    1.085   .     S
C216   C227    1.391   .     A
C217   H258    1.084   .     S
C217   C221    1.386   .     A
C217   C227    1.391   .     A
C218   C223    1.386   .     A
C218   C226    1.391   .     A
C218   H259    1.084   .     S
C219   C224    1.410   .     A
C219   N264    1.434   .     S
C220   N265    1.434   .     S
C220   C225    1.411   .     A
C221   C225    1.412   .     A
C221   N266    1.434   .     S
C222   O272    1.284   .     A
C222   C228    1.445   .     S
C222   O273    1.282   .     A
C223   C224    1.410   .     A
C223   N267    1.434   .     S
C224   C230    1.441   .     S
C225   C231    1.445   .     S
C226   C857    1.430   1_554 S
C227   C856    1.430   .     S
C229   C236    1.411   .     A
C230   O278    1.283   .     A
C230   O275    1.283   .     A
C231   O276    1.284   .     A
C231   O277    1.284   .     A
C232   N263    1.365   .     A
C232   H237    1.082   .     S
C233   H248    1.082   .     S
C233   N261    1.365   .     A
C233   C444    1.412   .     S
C234   H254    1.081   .     S
C234   N263    1.365   .     A
C235   N261    1.365   .     A
C235   H255    1.082   .     S
C235   C442    1.412   .     S
C236   N268    1.439   .     S
C236   C353    1.388   1_455 S
H238   N264    1.046   .     S
H239   N265    1.046   .     S
H240   N265    1.046   .     S
H241   N266    1.046   .     S
H242   N266    1.046   .     S
H243   N267    1.046   .     S
H244   N267    1.046   .     S
H245   N268    1.045   .     S
H246   N268    1.045   .     S
H247   N269    1.045   .     S
H249   N269    1.045   .     S
H250   N270    1.045   .     S
H251   N270    1.045   .     S
H252   N262    1.045   .     S
H253   N262    1.045   .     S
H260   N264    1.046   .     S
N261   Zn279   1.998   .     S
N263   Zn280   1.998   .     S
O271   Zn279   2.011   .     S
O272   Zn280   2.011   .     S
O273   Zn279   2.011   .     S
O274   Zn280   2.011   .     S
O275   Zn279   2.001   .     S
O276   Zn280   2.001   .     S
O277   Zn279   2.001   .     S
O278   Zn280   2.001   .     S
C281   C299    1.445   .     S
C281   O344    1.284   .     A
C281   O341    1.282   .     A
C282   C298    1.412   .     A
C282   N339    1.439   .     S
C282   C354    1.386   .     S
C283   N340    1.439   .     S
C283   C298    1.411   .     A
C283   C376    1.388   .     S
C284   N332    1.439   .     S
C284   C299    1.412   .     A
C285   C289    1.386   .     A
C285   H326    1.084   .     S
C285   C296    1.391   .     A
C286   C290    1.386   .     A
C286   H327    1.085   .     S
C286   C297    1.391   .     A
C287   H328    1.084   .     S
C287   C291    1.386   .     A
C287   C297    1.391   .     A
C288   C293    1.386   .     A
C288   C296    1.391   .     A
C288   H329    1.084   .     S
C289   C294    1.410   .     A
C289   N334    1.434   .     S
C290   N335    1.434   .     S
C290   C295    1.411   .     A
C291   C295    1.412   .     A
C291   N336    1.434   .     S
C292   O342    1.284   .     A
C292   C298    1.445   .     S
C292   O343    1.282   .     A
C293   C294    1.410   .     A
C293   N337    1.434   .     S
C294   C300    1.441   .     S
C295   C301    1.445   .     S
C296   C927    1.430   1_554 S
C297   C926    1.430   .     S
C299   C306    1.411   .     A
C300   O348    1.283   .     A
C300   O345    1.283   .     A
C301   O346    1.284   .     A
C301   O347    1.284   .     A
C302   N333    1.365   .     A
C302   H307    1.082   .     S
C303   H318    1.082   .     S
C303   N331    1.365   .     A
C303   C514    1.412   .     S
C304   H324    1.081   .     S
C304   N333    1.365   .     A
C305   N331    1.365   .     A
C305   H325    1.082   .     S
C305   C512    1.412   .     S
C306   N338    1.439   .     S
H308   N334    1.046   .     S
H309   N335    1.046   .     S
H310   N335    1.046   .     S
H311   N336    1.046   .     S
H312   N336    1.046   .     S
H313   N337    1.046   .     S
H314   N337    1.046   .     S
H315   N338    1.045   .     S
H316   N338    1.045   .     S
H317   N339    1.045   .     S
H319   N339    1.045   .     S
H320   N340    1.045   .     S
H321   N340    1.045   .     S
H322   N332    1.045   .     S
H323   N332    1.045   .     S
H330   N334    1.046   .     S
N331   Zn349   1.998   .     S
N333   Zn350   1.998   .     S
O341   Zn349   2.011   .     S
O342   Zn350   2.011   .     S
O343   Zn349   2.011   .     S
O344   Zn350   2.011   .     S
O345   Zn349   2.001   .     S
O346   Zn350   2.001   .     S
O347   Zn349   2.001   .     S
O348   Zn350   2.001   .     S
C351   C369    1.445   .     S
C351   O414    1.284   .     A
C351   O411    1.282   .     A
C352   C368    1.412   .     A
C352   N409    1.439   .     S
C352   C214    1.386   1_655 S
C353   N410    1.439   .     S
C353   C368    1.411   .     A
C353   C236    1.388   1_655 S
C354   N402    1.439   .     S
C354   C369    1.412   .     A
C355   C359    1.386   .     A
C355   H396    1.084   .     S
C355   C366    1.391   .     A
C356   C360    1.386   .     A
C356   H397    1.085   .     S
C356   C367    1.391   .     A
C357   H398    1.084   .     S
C357   C361    1.386   .     A
C357   C367    1.391   .     A
C358   C363    1.386   .     A
C358   C366    1.391   .     A
C358   H399    1.084   .     S
C359   C364    1.410   .     A
C359   N404    1.434   .     S
C360   N405    1.434   .     S
C360   C365    1.411   .     A
C361   C365    1.412   .     A
C361   N406    1.434   .     S
C362   O412    1.284   .     A
C362   C368    1.445   .     S
C362   O413    1.282   .     A
C363   C364    1.410   .     A
C363   N407    1.434   .     S
C364   C370    1.441   .     S
C365   C371    1.445   .     S
C366   C997    1.430   1_554 S
C367   C996    1.430   .     S
C369   C376    1.411   .     A
C370   O418    1.283   .     A
C370   O415    1.283   .     A
C371   O416    1.284   .     A
C371   O417    1.284   .     A
C372   N403    1.365   .     A
C372   H377    1.082   .     S
C373   H388    1.082   .     S
C373   N401    1.365   .     A
C373   C584    1.412   .     S
C374   H394    1.081   .     S
C374   N403    1.365   .     A
C375   N401    1.365   .     A
C375   H395    1.082   .     S
C375   C582    1.412   .     S
C376   N408    1.439   .     S
H378   N404    1.046   .     S
H379   N405    1.046   .     S
H380   N405    1.046   .     S
H381   N406    1.046   .     S
H382   N406    1.046   .     S
H383   N407    1.046   .     S
H384   N407    1.046   .     S
H385   N408    1.045   .     S
H386   N408    1.045   .     S
H387   N409    1.045   .     S
H389   N409    1.045   .     S
H390   N410    1.045   .     S
H391   N410    1.045   .     S
H392   N402    1.045   .     S
H393   N402    1.045   .     S
H400   N404    1.046   .     S
N401   Zn419   1.998   .     S
N403   Zn420   1.998   .     S
O411   Zn419   2.011   .     S
O412   Zn420   2.011   .     S
O413   Zn419   2.011   .     S
O414   Zn420   2.011   .     S
O415   Zn419   2.001   .     S
O416   Zn420   2.001   .     S
O417   Zn419   2.001   .     S
O418   Zn420   2.001   .     S
C421   C439    1.445   .     S
C421   O484    1.284   .     A
C421   O481    1.282   .     A
C422   C438    1.412   .     A
C422   N479    1.439   .     S
C422   C494    1.386   .     S
C423   N480    1.439   .     S
C423   C438    1.411   .     A
C423   C516    1.388   .     S
C424   N472    1.439   .     S
C424   C439    1.412   .     A
C424   C562    1.386   1_455 S
C425   C429    1.386   .     A
C425   H466    1.084   .     S
C425   C436    1.391   .     A
C426   C430    1.386   .     A
C426   H467    1.085   .     S
C426   C437    1.391   .     A
C427   H468    1.084   .     S
C427   C431    1.386   .     A
C427   C437    1.391   .     A
C428   C433    1.386   .     A
C428   C436    1.391   .     A
C428   H469    1.084   .     S
C429   C434    1.410   .     A
C429   N474    1.434   .     S
C430   N475    1.434   .     S
C430   C435    1.411   .     A
C431   C435    1.412   .     A
C431   N476    1.434   .     S
C432   O482    1.284   .     A
C432   C438    1.445   .     S
C432   O483    1.282   .     A
C433   C434    1.410   .     A
C433   N477    1.434   .     S
C434   C440    1.441   .     S
C435   C441    1.445   .     S
C436   C1067   1.430   1_554 S
C437   C1066   1.430   .     S
C439   C446    1.411   .     A
C440   O488    1.283   .     A
C440   O485    1.283   .     A
C441   O486    1.284   .     A
C441   O487    1.284   .     A
C442   N473    1.365   .     A
C442   H447    1.082   .     S
C443   H458    1.082   .     S
C443   N471    1.365   .     A
C443   C24     1.412   1_565 S
C444   H464    1.081   .     S
C444   N473    1.365   .     A
C445   N471    1.365   .     A
C445   H465    1.082   .     S
C445   C22     1.412   1_565 S
C446   N478    1.439   .     S
C446   C563    1.388   1_455 S
H448   N474    1.046   .     S
H449   N475    1.046   .     S
H450   N475    1.046   .     S
H451   N476    1.046   .     S
H452   N476    1.046   .     S
H453   N477    1.046   .     S
H454   N477    1.046   .     S
H455   N478    1.045   .     S
H456   N478    1.045   .     S
H457   N479    1.045   .     S
H459   N479    1.045   .     S
H460   N480    1.045   .     S
H461   N480    1.045   .     S
H462   N472    1.045   .     S
H463   N472    1.045   .     S
H470   N474    1.046   .     S
N471   Zn489   1.998   .     S
N473   Zn490   1.998   .     S
O481   Zn489   2.011   .     S
O482   Zn490   2.011   .     S
O483   Zn489   2.011   .     S
O484   Zn490   2.011   .     S
O485   Zn489   2.001   .     S
O486   Zn490   2.001   .     S
O487   Zn489   2.001   .     S
O488   Zn490   2.001   .     S
C491   C509    1.445   .     S
C491   O554    1.284   .     A
C491   O551    1.282   .     A
C492   C508    1.412   .     A
C492   N549    1.439   .     S
C492   C564    1.386   .     S
C493   N550    1.439   .     S
C493   C508    1.411   .     A
C493   C586    1.388   .     S
C494   N542    1.439   .     S
C494   C509    1.412   .     A
C495   C499    1.386   .     A
C495   H536    1.084   .     S
C495   C506    1.391   .     A
C496   C500    1.386   .     A
C496   H537    1.085   .     S
C496   C507    1.391   .     A
C497   H538    1.084   .     S
C497   C501    1.386   .     A
C497   C507    1.391   .     A
C498   C503    1.386   .     A
C498   C506    1.391   .     A
C498   H539    1.084   .     S
C499   C504    1.410   .     A
C499   N544    1.434   .     S
C500   N545    1.434   .     S
C500   C505    1.411   .     A
C501   C505    1.412   .     A
C501   N546    1.434   .     S
C502   O552    1.284   .     A
C502   C508    1.445   .     S
C502   O553    1.282   .     A
C503   C504    1.410   .     A
C503   N547    1.434   .     S
C504   C510    1.441   .     S
C505   C511    1.445   .     S
C506   C1137   1.430   1_554 S
C507   C1136   1.430   .     S
C509   C516    1.411   .     A
C510   O558    1.283   .     A
C510   O555    1.283   .     A
C511   O556    1.284   .     A
C511   O557    1.284   .     A
C512   N543    1.365   .     A
C512   H517    1.082   .     S
C513   H528    1.082   .     S
C513   N541    1.365   .     A
C513   C94     1.412   1_565 S
C514   H534    1.081   .     S
C514   N543    1.365   .     A
C515   N541    1.365   .     A
C515   H535    1.082   .     S
C515   C92     1.412   1_565 S
C516   N548    1.439   .     S
H518   N544    1.046   .     S
H519   N545    1.046   .     S
H520   N545    1.046   .     S
H521   N546    1.046   .     S
H522   N546    1.046   .     S
H523   N547    1.046   .     S
H524   N547    1.046   .     S
H525   N548    1.045   .     S
H526   N548    1.045   .     S
H527   N549    1.045   .     S
H529   N549    1.045   .     S
H530   N550    1.045   .     S
H531   N550    1.045   .     S
H532   N542    1.045   .     S
H533   N542    1.045   .     S
H540   N544    1.046   .     S
N541   Zn559   1.998   .     S
N543   Zn560   1.998   .     S
O551   Zn559   2.011   .     S
O552   Zn560   2.011   .     S
O553   Zn559   2.011   .     S
O554   Zn560   2.011   .     S
O555   Zn559   2.001   .     S
O556   Zn560   2.001   .     S
O557   Zn559   2.001   .     S
O558   Zn560   2.001   .     S
C561   C579    1.445   .     S
C561   O624    1.284   .     A
C561   O621    1.282   .     A
C562   C578    1.412   .     A
C562   N619    1.439   .     S
C562   C424    1.386   1_655 S
C563   N620    1.439   .     S
C563   C578    1.411   .     A
C563   C446    1.388   1_655 S
C564   N612    1.439   .     S
C564   C579    1.412   .     A
C565   C569    1.386   .     A
C565   H606    1.084   .     S
C565   C576    1.391   .     A
C566   C570    1.386   .     A
C566   H607    1.085   .     S
C566   C577    1.391   .     A
C567   H608    1.084   .     S
C567   C571    1.386   .     A
C567   C577    1.391   .     A
C568   C573    1.386   .     A
C568   C576    1.391   .     A
C568   H609    1.084   .     S
C569   C574    1.410   .     A
C569   N614    1.434   .     S
C570   N615    1.434   .     S
C570   C575    1.411   .     A
C571   C575    1.412   .     A
C571   N616    1.434   .     S
C572   O622    1.284   .     A
C572   C578    1.445   .     S
C572   O623    1.282   .     A
C573   C574    1.410   .     A
C573   N617    1.434   .     S
C574   C580    1.441   .     S
C575   C581    1.445   .     S
C576   C1207   1.430   1_554 S
C577   C1206   1.430   .     S
C579   C586    1.411   .     A
C580   O628    1.283   .     A
C580   O625    1.283   .     A
C581   O626    1.284   .     A
C581   O627    1.284   .     A
C582   N613    1.365   .     A
C582   H587    1.082   .     S
C583   H598    1.082   .     S
C583   N611    1.365   .     A
C583   C164    1.412   1_565 S
C584   H604    1.081   .     S
C584   N613    1.365   .     A
C585   N611    1.365   .     A
C585   H605    1.082   .     S
C585   C162    1.412   1_565 S
C586   N618    1.439   .     S
H588   N614    1.046   .     S
H589   N615    1.046   .     S
H590   N615    1.046   .     S
H591   N616    1.046   .     S
H592   N616    1.046   .     S
H593   N617    1.046   .     S
H594   N617    1.046   .     S
H595   N618    1.045   .     S
H596   N618    1.045   .     S
H597   N619    1.045   .     S
H599   N619    1.045   .     S
H600   N620    1.045   .     S
H601   N620    1.045   .     S
H602   N612    1.045   .     S
H603   N612    1.045   .     S
H610   N614    1.046   .     S
N611   Zn629   1.998   .     S
N613   Zn630   1.998   .     S
O621   Zn629   2.011   .     S
O622   Zn630   2.011   .     S
O623   Zn629   2.011   .     S
O624   Zn630   2.011   .     S
O625   Zn629   2.001   .     S
O626   Zn630   2.001   .     S
O627   Zn629   2.001   .     S
O628   Zn630   2.001   .     S
C631   C649    1.445   .     S
C631   O694    1.284   .     A
C631   O691    1.282   .     A
C632   C648    1.412   .     A
C632   N689    1.439   .     S
C632   C704    1.386   .     S
C633   N690    1.439   .     S
C633   C648    1.411   .     A
C633   C726    1.388   .     S
C634   N682    1.439   .     S
C634   C649    1.412   .     A
C634   C772    1.386   1_455 S
C635   C639    1.386   .     A
C635   H676    1.084   .     S
C635   C646    1.391   .     A
C636   C640    1.386   .     A
C636   H677    1.085   .     S
C636   C647    1.391   .     A
C637   H678    1.084   .     S
C637   C641    1.386   .     A
C637   C647    1.391   .     A
C638   C643    1.386   .     A
C638   C646    1.391   .     A
C638   H679    1.084   .     S
C639   C644    1.410   .     A
C639   N684    1.434   .     S
C640   N685    1.434   .     S
C640   C645    1.411   .     A
C641   C645    1.412   .     A
C641   N686    1.434   .     S
C642   O692    1.284   .     A
C642   C648    1.445   .     S
C642   O693    1.282   .     A
C643   C644    1.410   .     A
C643   N687    1.434   .     S
C644   C650    1.441   .     S
C645   C651    1.445   .     S
C647   C16     1.430   1_556 S
C649   C656    1.411   .     A
C650   O698    1.283   .     A
C650   O695    1.283   .     A
C651   O696    1.284   .     A
C651   O697    1.284   .     A
C652   N683    1.365   .     A
C652   H657    1.082   .     S
C652   C1075   1.412   1_545 S
C653   H668    1.082   .     S
C653   N681    1.365   .     A
C653   C864    1.412   .     S
C654   H674    1.081   .     S
C654   N683    1.365   .     A
C654   C1073   1.412   1_545 S
C655   N681    1.365   .     A
C655   H675    1.082   .     S
C655   C862    1.412   .     S
C656   N688    1.439   .     S
C656   C773    1.388   1_455 S
H658   N684    1.046   .     S
H659   N685    1.046   .     S
H660   N685    1.046   .     S
H661   N686    1.046   .     S
H662   N686    1.046   .     S
H663   N687    1.046   .     S
H664   N687    1.046   .     S
H665   N688    1.045   .     S
H666   N688    1.045   .     S
H667   N689    1.045   .     S
H669   N689    1.045   .     S
H670   N690    1.045   .     S
H671   N690    1.045   .     S
H672   N682    1.045   .     S
H673   N682    1.045   .     S
H680   N684    1.046   .     S
N681   Zn699   1.998   .     S
N683   Zn700   1.998   .     S
O691   Zn699   2.011   .     S
O692   Zn700   2.011   .     S
O693   Zn699   2.011   .     S
O694   Zn700   2.011   .     S
O695   Zn699   2.001   .     S
O696   Zn700   2.001   .     S
O697   Zn699   2.001   .     S
O698   Zn700   2.001   .     S
C701   C719    1.445   .     S
C701   O764    1.284   .     A
C701   O761    1.282   .     A
C702   C718    1.412   .     A
C702   N759    1.439   .     S
C702   C774    1.386   .     S
C703   N760    1.439   .     S
C703   C718    1.411   .     A
C703   C796    1.388   .     S
C704   N752    1.439   .     S
C704   C719    1.412   .     A
C705   C709    1.386   .     A
C705   H746    1.084   .     S
C705   C716    1.391   .     A
C706   C710    1.386   .     A
C706   H747    1.085   .     S
C706   C717    1.391   .     A
C707   H748    1.084   .     S
C707   C711    1.386   .     A
C707   C717    1.391   .     A
C708   C713    1.386   .     A
C708   C716    1.391   .     A
C708   H749    1.084   .     S
C709   C714    1.410   .     A
C709   N754    1.434   .     S
C710   N755    1.434   .     S
C710   C715    1.411   .     A
C711   C715    1.412   .     A
C711   N756    1.434   .     S
C712   O762    1.284   .     A
C712   C718    1.445   .     S
C712   O763    1.282   .     A
C713   C714    1.410   .     A
C713   N757    1.434   .     S
C714   C720    1.441   .     S
C715   C721    1.445   .     S
C717   C86     1.430   1_556 S
C719   C726    1.411   .     A
C720   O768    1.283   .     A
C720   O765    1.283   .     A
C721   O766    1.284   .     A
C721   O767    1.284   .     A
C722   N753    1.365   .     A
C722   H727    1.082   .     S
C722   C1145   1.412   1_545 S
C723   H738    1.082   .     S
C723   N751    1.365   .     A
C723   C934    1.412   .     S
C724   H744    1.081   .     S
C724   N753    1.365   .     A
C724   C1143   1.412   1_545 S
C725   N751    1.365   .     A
C725   H745    1.082   .     S
C725   C932    1.412   .     S
C726   N758    1.439   .     S
H728   N754    1.046   .     S
H729   N755    1.046   .     S
H730   N755    1.046   .     S
H731   N756    1.046   .     S
H732   N756    1.046   .     S
H733   N757    1.046   .     S
H734   N757    1.046   .     S
H735   N758    1.045   .     S
H736   N758    1.045   .     S
H737   N759    1.045   .     S
H739   N759    1.045   .     S
H740   N760    1.045   .     S
H741   N760    1.045   .     S
H742   N752    1.045   .     S
H743   N752    1.045   .     S
H750   N754    1.046   .     S
N751   Zn769   1.998   .     S
N753   Zn770   1.998   .     S
O761   Zn769   2.011   .     S
O762   Zn770   2.011   .     S
O763   Zn769   2.011   .     S
O764   Zn770   2.011   .     S
O765   Zn769   2.001   .     S
O766   Zn770   2.001   .     S
O767   Zn769   2.001   .     S
O768   Zn770   2.001   .     S
C771   C789    1.445   .     S
C771   O834    1.284   .     A
C771   O831    1.282   .     A
C772   C788    1.412   .     A
C772   N829    1.439   .     S
C772   C634    1.386   1_655 S
C773   N830    1.439   .     S
C773   C788    1.411   .     A
C773   C656    1.388   1_655 S
C774   N822    1.439   .     S
C774   C789    1.412   .     A
C775   C779    1.386   .     A
C775   H816    1.084   .     S
C775   C786    1.391   .     A
C776   C780    1.386   .     A
C776   H817    1.085   .     S
C776   C787    1.391   .     A
C777   H818    1.084   .     S
C777   C781    1.386   .     A
C777   C787    1.391   .     A
C778   C783    1.386   .     A
C778   C786    1.391   .     A
C778   H819    1.084   .     S
C779   C784    1.410   .     A
C779   N824    1.434   .     S
C780   N825    1.434   .     S
C780   C785    1.411   .     A
C781   C785    1.412   .     A
C781   N826    1.434   .     S
C782   O832    1.284   .     A
C782   C788    1.445   .     S
C782   O833    1.282   .     A
C783   C784    1.410   .     A
C783   N827    1.434   .     S
C784   C790    1.441   .     S
C785   C791    1.445   .     S
C787   C156    1.430   1_556 S
C789   C796    1.411   .     A
C790   O838    1.283   .     A
C790   O835    1.283   .     A
C791   O836    1.284   .     A
C791   O837    1.284   .     A
C792   N823    1.365   .     A
C792   H797    1.082   .     S
C792   C1215   1.412   1_545 S
C793   H808    1.082   .     S
C793   N821    1.365   .     A
C793   C1004   1.412   .     S
C794   H814    1.081   .     S
C794   N823    1.365   .     A
C794   C1213   1.412   1_545 S
C795   N821    1.365   .     A
C795   H815    1.082   .     S
C795   C1002   1.412   .     S
C796   N828    1.439   .     S
H798   N824    1.046   .     S
H799   N825    1.046   .     S
H800   N825    1.046   .     S
H801   N826    1.046   .     S
H802   N826    1.046   .     S
H803   N827    1.046   .     S
H804   N827    1.046   .     S
H805   N828    1.045   .     S
H806   N828    1.045   .     S
H807   N829    1.045   .     S
H809   N829    1.045   .     S
H810   N830    1.045   .     S
H811   N830    1.045   .     S
H812   N822    1.045   .     S
H813   N822    1.045   .     S
H820   N824    1.046   .     S
N821   Zn839   1.998   .     S
N823   Zn840   1.998   .     S
O831   Zn839   2.011   .     S
O832   Zn840   2.011   .     S
O833   Zn839   2.011   .     S
O834   Zn840   2.011   .     S
O835   Zn839   2.001   .     S
O836   Zn840   2.001   .     S
O837   Zn839   2.001   .     S
O838   Zn840   2.001   .     S
C841   C859    1.445   .     S
C841   O904    1.284   .     A
C841   O901    1.282   .     A
C842   C858    1.412   .     A
C842   N899    1.439   .     S
C842   C914    1.386   .     S
C843   N900    1.439   .     S
C843   C858    1.411   .     A
C843   C936    1.388   .     S
C844   N892    1.439   .     S
C844   C859    1.412   .     A
C844   C982    1.386   1_455 S
C845   C849    1.386   .     A
C845   H886    1.084   .     S
C845   C856    1.391   .     A
C846   C850    1.386   .     A
C846   H887    1.085   .     S
C846   C857    1.391   .     A
C847   H888    1.084   .     S
C847   C851    1.386   .     A
C847   C857    1.391   .     A
C848   C853    1.386   .     A
C848   C856    1.391   .     A
C848   H889    1.084   .     S
C849   C854    1.410   .     A
C849   N894    1.434   .     S
C850   N895    1.434   .     S
C850   C855    1.411   .     A
C851   C855    1.412   .     A
C851   N896    1.434   .     S
C852   O902    1.284   .     A
C852   C858    1.445   .     S
C852   O903    1.282   .     A
C853   C854    1.410   .     A
C853   N897    1.434   .     S
C854   C860    1.441   .     S
C855   C861    1.445   .     S
C857   C226    1.430   1_556 S
C859   C866    1.411   .     A
C860   O908    1.283   .     A
C860   O905    1.283   .     A
C861   O906    1.284   .     A
C861   O907    1.284   .     A
C862   N893    1.365   .     A
C862   H867    1.082   .     S
C863   H878    1.082   .     S
C863   N891    1.365   .     A
C863   C1074   1.412   .     S
C864   H884    1.081   .     S
C864   N893    1.365   .     A
C865   N891    1.365   .     A
C865   H885    1.082   .     S
C865   C1072   1.412   .     S
C866   N898    1.439   .     S
C866   C983    1.388   1_455 S
H868   N894    1.046   .     S
H869   N895    1.046   .     S
H870   N895    1.046   .     S
H871   N896    1.046   .     S
H872   N896    1.046   .     S
H873   N897    1.046   .     S
H874   N897    1.046   .     S
H875   N898    1.045   .     S
H876   N898    1.045   .     S
H877   N899    1.045   .     S
H879   N899    1.045   .     S
H880   N900    1.045   .     S
H881   N900    1.045   .     S
H882   N892    1.045   .     S
H883   N892    1.045   .     S
H890   N894    1.046   .     S
N891   Zn909   1.998   .     S
N893   Zn910   1.998   .     S
O901   Zn909   2.011   .     S
O902   Zn910   2.011   .     S
O903   Zn909   2.011   .     S
O904   Zn910   2.011   .     S
O905   Zn909   2.001   .     S
O906   Zn910   2.001   .     S
O907   Zn909   2.001   .     S
O908   Zn910   2.001   .     S
C911   C929    1.445   .     S
C911   O974    1.284   .     A
C911   O971    1.282   .     A
C912   C928    1.412   .     A
C912   N969    1.439   .     S
C912   C984    1.386   .     S
C913   N970    1.439   .     S
C913   C928    1.411   .     A
C913   C1006   1.388   .     S
C914   N962    1.439   .     S
C914   C929    1.412   .     A
C915   C919    1.386   .     A
C915   H956    1.084   .     S
C915   C926    1.391   .     A
C916   C920    1.386   .     A
C916   H957    1.085   .     S
C916   C927    1.391   .     A
C917   H958    1.084   .     S
C917   C921    1.386   .     A
C917   C927    1.391   .     A
C918   C923    1.386   .     A
C918   C926    1.391   .     A
C918   H959    1.084   .     S
C919   C924    1.410   .     A
C919   N964    1.434   .     S
C920   N965    1.434   .     S
C920   C925    1.411   .     A
C921   C925    1.412   .     A
C921   N966    1.434   .     S
C922   O972    1.284   .     A
C922   C928    1.445   .     S
C922   O973    1.282   .     A
C923   C924    1.410   .     A
C923   N967    1.434   .     S
C924   C930    1.441   .     S
C925   C931    1.445   .     S
C927   C296    1.430   1_556 S
C929   C936    1.411   .     A
C930   O978    1.283   .     A
C930   O975    1.283   .     A
C931   O976    1.284   .     A
C931   O977    1.284   .     A
C932   N963    1.365   .     A
C932   H937    1.082   .     S
C933   H948    1.082   .     S
C933   N961    1.365   .     A
C933   C1144   1.412   .     S
C934   H954    1.081   .     S
C934   N963    1.365   .     A
C935   N961    1.365   .     A
C935   H955    1.082   .     S
C935   C1142   1.412   .     S
C936   N968    1.439   .     S
H938   N964    1.046   .     S
H939   N965    1.046   .     S
H940   N965    1.046   .     S
H941   N966    1.046   .     S
H942   N966    1.046   .     S
H943   N967    1.046   .     S
H944   N967    1.046   .     S
H945   N968    1.045   .     S
H946   N968    1.045   .     S
H947   N969    1.045   .     S
H949   N969    1.045   .     S
H950   N970    1.045   .     S
H951   N970    1.045   .     S
H952   N962    1.045   .     S
H953   N962    1.045   .     S
H960   N964    1.046   .     S
N961   Zn979   1.998   .     S
N963   Zn980   1.998   .     S
O971   Zn979   2.011   .     S
O972   Zn980   2.011   .     S
O973   Zn979   2.011   .     S
O974   Zn980   2.011   .     S
O975   Zn979   2.001   .     S
O976   Zn980   2.001   .     S
O977   Zn979   2.001   .     S
O978   Zn980   2.001   .     S
C981   C999    1.445   .     S
C981   O1044   1.284   .     A
C981   O1041   1.282   .     A
C982   C998    1.412   .     A
C982   N1039   1.439   .     S
C982   C844    1.386   1_655 S
C983   N1040   1.439   .     S
C983   C998    1.411   .     A
C983   C866    1.388   1_655 S
C984   N1032   1.439   .     S
C984   C999    1.412   .     A
C985   C989    1.386   .     A
C985   H1026   1.084   .     S
C985   C996    1.391   .     A
C986   C990    1.386   .     A
C986   H1027   1.085   .     S
C986   C997    1.391   .     A
C987   H1028   1.084   .     S
C987   C991    1.386   .     A
C987   C997    1.391   .     A
C988   C993    1.386   .     A
C988   C996    1.391   .     A
C988   H1029   1.084   .     S
C989   C994    1.410   .     A
C989   N1034   1.434   .     S
C990   N1035   1.434   .     S
C990   C995    1.411   .     A
C991   C995    1.412   .     A
C991   N1036   1.434   .     S
C992   O1042   1.284   .     A
C992   C998    1.445   .     S
C992   O1043   1.282   .     A
C993   C994    1.410   .     A
C993   N1037   1.434   .     S
C994   C1000   1.441   .     S
C995   C1001   1.445   .     S
C997   C366    1.430   1_556 S
C999   C1006   1.411   .     A
C1000  O1048   1.283   .     A
C1000  O1045   1.283   .     A
C1001  O1046   1.284   .     A
C1001  O1047   1.284   .     A
C1002  N1033   1.365   .     A
C1002  H1007   1.082   .     S
C1003  H1018   1.082   .     S
C1003  N1031   1.365   .     A
C1003  C1214   1.412   .     S
C1004  H1024   1.081   .     S
C1004  N1033   1.365   .     A
C1005  N1031   1.365   .     A
C1005  H1025   1.082   .     S
C1005  C1212   1.412   .     S
C1006  N1038   1.439   .     S
H1008  N1034   1.046   .     S
H1009  N1035   1.046   .     S
H1010  N1035   1.046   .     S
H1011  N1036   1.046   .     S
H1012  N1036   1.046   .     S
H1013  N1037   1.046   .     S
H1014  N1037   1.046   .     S
H1015  N1038   1.045   .     S
H1016  N1038   1.045   .     S
H1017  N1039   1.045   .     S
H1019  N1039   1.045   .     S
H1020  N1040   1.045   .     S
H1021  N1040   1.045   .     S
H1022  N1032   1.045   .     S
H1023  N1032   1.045   .     S
H1030  N1034   1.046   .     S
N1031  Zn1049  1.998   .     S
N1033  Zn1050  1.998   .     S
O1041  Zn1049  2.011   .     S
O1042  Zn1050  2.011   .     S
O1043  Zn1049  2.011   .     S
O1044  Zn1050  2.011   .     S
O1045  Zn1049  2.001   .     S
O1046  Zn1050  2.001   .     S
O1047  Zn1049  2.001   .     S
O1048  Zn1050  2.001   .     S
C1051  C1069   1.445   .     S
C1051  O1114   1.284   .     A
C1051  O1111   1.282   .     A
C1052  C1068   1.412   .     A
C1052  N1109   1.439   .     S
C1052  C1124   1.386   .     S
C1053  N1110   1.439   .     S
C1053  C1068   1.411   .     A
C1053  C1146   1.388   .     S
C1054  N1102   1.439   .     S
C1054  C1069   1.412   .     A
C1054  C1192   1.386   1_455 S
C1055  C1059   1.386   .     A
C1055  H1096   1.084   .     S
C1055  C1066   1.391   .     A
C1056  C1060   1.386   .     A
C1056  H1097   1.085   .     S
C1056  C1067   1.391   .     A
C1057  H1098   1.084   .     S
C1057  C1061   1.386   .     A
C1057  C1067   1.391   .     A
C1058  C1063   1.386   .     A
C1058  C1066   1.391   .     A
C1058  H1099   1.084   .     S
C1059  C1064   1.410   .     A
C1059  N1104   1.434   .     S
C1060  N1105   1.434   .     S
C1060  C1065   1.411   .     A
C1061  C1065   1.412   .     A
C1061  N1106   1.434   .     S
C1062  O1112   1.284   .     A
C1062  C1068   1.445   .     S
C1062  O1113   1.282   .     A
C1063  C1064   1.410   .     A
C1063  N1107   1.434   .     S
C1064  C1070   1.441   .     S
C1065  C1071   1.445   .     S
C1067  C436    1.430   1_556 S
C1069  C1076   1.411   .     A
C1070  O1118   1.283   .     A
C1070  O1115   1.283   .     A
C1071  O1116   1.284   .     A
C1071  O1117   1.284   .     A
C1072  N1103   1.365   .     A
C1072  H1077   1.082   .     S
C1073  H1088   1.082   .     S
C1073  N1101   1.365   .     A
C1073  C654    1.412   1_565 S
C1074  H1094   1.081   .     S
C1074  N1103   1.365   .     A
C1075  N1101   1.365   .     A
C1075  H1095   1.082   .     S
C1075  C652    1.412   1_565 S
C1076  N1108   1.439   .     S
C1076  C1193   1.388   1_455 S
H1078  N1104   1.046   .     S
H1079  N1105   1.046   .     S
H1080  N1105   1.046   .     S
H1081  N1106   1.046   .     S
H1082  N1106   1.046   .     S
H1083  N1107   1.046   .     S
H1084  N1107   1.046   .     S
H1085  N1108   1.045   .     S
H1086  N1108   1.045   .     S
H1087  N1109   1.045   .     S
H1089  N1109   1.045   .     S
H1090  N1110   1.045   .     S
H1091  N1110   1.045   .     S
H1092  N1102   1.045   .     S
H1093  N1102   1.045   .     S
H1100  N1104   1.046   .     S
N1101  Zn1119  1.998   .     S
N1103  Zn1120  1.998   .     S
O1111  Zn1119  2.011   .     S
O1112  Zn1120  2.011   .     S
O1113  Zn1119  2.011   .     S
O1114  Zn1120  2.011   .     S
O1115  Zn1119  2.001   .     S
O1116  Zn1120  2.001   .     S
O1117  Zn1119  2.001   .     S
O1118  Zn1120  2.001   .     S
C1121  C1139   1.445   .     S
C1121  O1184   1.284   .     A
C1121  O1181   1.282   .     A
C1122  C1138   1.412   .     A
C1122  N1179   1.439   .     S
C1122  C1194   1.386   .     S
C1123  N1180   1.439   .     S
C1123  C1138   1.411   .     A
C1123  C1216   1.388   .     S
C1124  N1172   1.439   .     S
C1124  C1139   1.412   .     A
C1125  C1129   1.386   .     A
C1125  H1166   1.084   .     S
C1125  C1136   1.391   .     A
C1126  C1130   1.386   .     A
C1126  H1167   1.085   .     S
C1126  C1137   1.391   .     A
C1127  H1168   1.084   .     S
C1127  C1131   1.386   .     A
C1127  C1137   1.391   .     A
C1128  C1133   1.386   .     A
C1128  C1136   1.391   .     A
C1128  H1169   1.084   .     S
C1129  C1134   1.410   .     A
C1129  N1174   1.434   .     S
C1130  N1175   1.434   .     S
C1130  C1135   1.411   .     A
C1131  C1135   1.412   .     A
C1131  N1176   1.434   .     S
C1132  O1182   1.284   .     A
C1132  C1138   1.445   .     S
C1132  O1183   1.282   .     A
C1133  C1134   1.410   .     A
C1133  N1177   1.434   .     S
C1134  C1140   1.441   .     S
C1135  C1141   1.445   .     S
C1137  C506    1.430   1_556 S
C1139  C1146   1.411   .     A
C1140  O1188   1.283   .     A
C1140  O1185   1.283   .     A
C1141  O1186   1.284   .     A
C1141  O1187   1.284   .     A
C1142  N1173   1.365   .     A
C1142  H1147   1.082   .     S
C1143  H1158   1.082   .     S
C1143  N1171   1.365   .     A
C1143  C724    1.412   1_565 S
C1144  H1164   1.081   .     S
C1144  N1173   1.365   .     A
C1145  N1171   1.365   .     A
C1145  H1165   1.082   .     S
C1145  C722    1.412   1_565 S
C1146  N1178   1.439   .     S
H1148  N1174   1.046   .     S
H1149  N1175   1.046   .     S
H1150  N1175   1.046   .     S
H1151  N1176   1.046   .     S
H1152  N1176   1.046   .     S
H1153  N1177   1.046   .     S
H1154  N1177   1.046   .     S
H1155  N1178   1.045   .     S
H1156  N1178   1.045   .     S
H1157  N1179   1.045   .     S
H1159  N1179   1.045   .     S
H1160  N1180   1.045   .     S
H1161  N1180   1.045   .     S
H1162  N1172   1.045   .     S
H1163  N1172   1.045   .     S
H1170  N1174   1.046   .     S
N1171  Zn1189  1.998   .     S
N1173  Zn1190  1.998   .     S
O1181  Zn1189  2.011   .     S
O1182  Zn1190  2.011   .     S
O1183  Zn1189  2.011   .     S
O1184  Zn1190  2.011   .     S
O1185  Zn1189  2.001   .     S
O1186  Zn1190  2.001   .     S
O1187  Zn1189  2.001   .     S
O1188  Zn1190  2.001   .     S
C1191  C1209   1.445   .     S
C1191  O1254   1.284   .     A
C1191  O1251   1.282   .     A
C1192  C1208   1.412   .     A
C1192  N1249   1.439   .     S
C1192  C1054   1.386   1_655 S
C1193  N1250   1.439   .     S
C1193  C1208   1.411   .     A
C1193  C1076   1.388   1_655 S
C1194  N1242   1.439   .     S
C1194  C1209   1.412   .     A
C1195  C1199   1.386   .     A
C1195  H1236   1.084   .     S
C1195  C1206   1.391   .     A
C1196  C1200   1.386   .     A
C1196  H1237   1.085   .     S
C1196  C1207   1.391   .     A
C1197  H1238   1.084   .     S
C1197  C1201   1.386   .     A
C1197  C1207   1.391   .     A
C1198  C1203   1.386   .     A
C1198  C1206   1.391   .     A
C1198  H1239   1.084   .     S
C1199  C1204   1.410   .     A
C1199  N1244   1.434   .     S
C1200  N1245   1.434   .     S
C1200  C1205   1.411   .     A
C1201  C1205   1.412   .     A
C1201  N1246   1.434   .     S
C1202  O1252   1.284   .     A
C1202  C1208   1.445   .     S
C1202  O1253   1.282   .     A
C1203  C1204   1.410   .     A
C1203  N1247   1.434   .     S
C1204  C1210   1.441   .     S
C1205  C1211   1.445   .     S
C1207  C576    1.430   1_556 S
C1209  C1216   1.411   .     A
C1210  O1258   1.283   .     A
C1210  O1255   1.283   .     A
C1211  O1256   1.284   .     A
C1211  O1257   1.284   .     A
C1212  N1243   1.365   .     A
C1212  H1217   1.082   .     S
C1213  H1228   1.082   .     S
C1213  N1241   1.365   .     A
C1213  C794    1.412   1_565 S
C1214  H1234   1.081   .     S
C1214  N1243   1.365   .     A
C1215  N1241   1.365   .     A
C1215  H1235   1.082   .     S
C1215  C792    1.412   1_565 S
C1216  N1248   1.439   .     S
H1218  N1244   1.046   .     S
H1219  N1245   1.046   .     S
H1220  N1245   1.046   .     S
H1221  N1246   1.046   .     S
H1222  N1246   1.046   .     S
H1223  N1247   1.046   .     S
H1224  N1247   1.046   .     S
H1225  N1248   1.045   .     S
H1226  N1248   1.045   .     S
H1227  N1249   1.045   .     S
H1229  N1249   1.045   .     S
H1230  N1250   1.045   .     S
H1231  N1250   1.045   .     S
H1232  N1242   1.045   .     S
H1233  N1242   1.045   .     S
H1240  N1244   1.046   .     S
N1241  Zn1259  1.998   .     S
N1243  Zn1260  1.998   .     S
O1251  Zn1259  2.011   .     S
O1252  Zn1260  2.011   .     S
O1253  Zn1259  2.011   .     S
O1254  Zn1260  2.011   .     S
O1255  Zn1259  2.001   .     S
O1256  Zn1260  2.001   .     S
O1257  Zn1259  2.001   .     S
O1258  Zn1260  2.001   .     S
