data_str_m3_o10_o18_pcu_sym.54
_audit_creation_date              2020-01-03
_audit_creation_method            'Materials Studio'
_symmetry_space_group_name_H-M    'P1'
_symmetry_Int_Tables_number       1
_symmetry_cell_setting            triclinic
loop_
_symmetry_equiv_pos_as_xyz
  x,y,z
_cell_length_a                    23.5435
_cell_length_b                    25.6909
_cell_length_c                    27.0621
_cell_angle_alpha                 93.7939
_cell_angle_beta                  92.4042
_cell_angle_gamma                 94.1926
loop_
_atom_site_label
_atom_site_type_symbol
_atom_site_fract_x
_atom_site_fract_y
_atom_site_fract_z
_atom_site_U_iso_or_equiv
_atom_site_adp_type
_atom_site_occupancy
O1     O     0.29719   0.24631   0.25310   0.00000  Uiso   1.00
O2     O     0.03614   0.08702   0.24691   0.00000  Uiso   1.00
O3     O     0.05822   0.23702   0.24502   0.00000  Uiso   1.00
O4     O     0.27512   0.09632   0.25499   0.00000  Uiso   1.00
C5     C     0.01504   0.26490   0.24877   0.00000  Uiso   1.00
C6     C     0.31827   0.06843   0.25114   0.00000  Uiso   1.00
O7     O     0.30328   0.17397   0.32247   0.00000  Uiso   1.00
O8     O     0.03005   0.15937   0.17753   0.00000  Uiso   1.00
O9     O     0.06431   0.16467   0.31439   0.00000  Uiso   1.00
O10    O     0.26902   0.16866   0.18561   0.00000  Uiso   1.00
C11    C     0.02064   0.17158   0.34154   0.00000  Uiso   1.00
C12    C     0.31270   0.16176   0.15846   0.00000  Uiso   1.00
Zn13   Zn    0.27033   0.17287   0.25540   0.00000  Uiso   1.00
Zn14   Zn    0.06300   0.16046   0.24461   0.00000  Uiso   1.00
C15    C     0.02946   0.17785   0.39532   0.00000  Uiso   1.00
C16    C     0.30392   0.15551   0.10468   0.00000  Uiso   1.00
C17    C     0.02317   0.22807   0.47361   0.00000  Uiso   1.00
C18    C     0.31025   0.10532   0.02638   0.00000  Uiso   1.00
C19    C     0.00392   0.21696   0.42434   0.00000  Uiso   1.00
C20    C     0.32947   0.11641   0.07566   0.00000  Uiso   1.00
C21    C     0.07093   0.14900   0.41679   0.00000  Uiso   1.00
C22    C     0.26249   0.18440   0.08319   0.00000  Uiso   1.00
C23    C     0.09951   0.16989   0.46133   0.00000  Uiso   1.00
C24    C     0.23397   0.16357   0.03863   0.00000  Uiso   1.00
C25    C     0.07156   0.20598   0.49180   0.00000  Uiso   1.00
C26    C     0.26191   0.12746   0.00816   0.00000  Uiso   1.00
C27    C     0.15538   0.15803   0.47592   0.00000  Uiso   1.00
C28    C     0.17812   0.17546   0.02403   0.00000  Uiso   1.00
C29    C     0.14295   0.20119   0.05698   0.00000  Uiso   1.00
C30    C     0.19054   0.13228   0.44298   0.00000  Uiso   1.00
C31    C     0.09211   0.21918   0.04025   0.00000  Uiso   1.00
C32    C     0.24139   0.11429   0.45970   0.00000  Uiso   1.00
H33    H     0.06861   0.24298   0.06541   0.00000  Uiso   1.00
H34    H     0.26490   0.09049   0.43453   0.00000  Uiso   1.00
H35    H     0.00231   0.25625   0.49679   0.00000  Uiso   1.00
H36    H     0.33111   0.07714   0.00320   0.00000  Uiso   1.00
H37    H     0.15410   0.20772   0.09590   0.00000  Uiso   1.00
H38    H     0.17928   0.12566   0.40409   0.00000  Uiso   1.00
C39    C     0.02284   0.31945   0.24788   0.00000  Uiso   1.00
C40    C     0.31043   0.01386   0.25181   0.00000  Uiso   1.00
H41    H     0.06592   0.00325   0.24402   0.00000  Uiso   1.00
H42    H     0.26734   0.33005   0.25560   0.00000  Uiso   1.00
N43    N     0.14695   0.15216   0.23740   0.00000  Uiso   1.00
N44    N     0.18638   0.18117   0.26261   0.00000  Uiso   1.00
H45    H     0.16227   0.12430   0.21341   0.00000  Uiso   1.00
H46    H     0.17106   0.20902   0.28660   0.00000  Uiso   1.00
S47    S     0.26158   0.25190   0.10402   0.00000  Uiso   1.00
O48    O     0.22498   0.25818   0.14791   0.00000  Uiso   1.00
O49    O     0.32126   0.27310   0.11963   0.00000  Uiso   1.00
O50    O     0.23705   0.28645   0.05803   0.00000  Uiso   1.00
H51    H     0.24259   0.32349   0.07113   0.00000  Uiso   1.00
S52    S     0.07215   0.08160   0.39564   0.00000  Uiso   1.00
O53    O     0.09389   0.05044   0.43659   0.00000  Uiso   1.00
O54    O     0.01261   0.06034   0.37958   0.00000  Uiso   1.00
O55    O     0.11338   0.07494   0.34664   0.00000  Uiso   1.00
H56    H     0.10865   0.03719   0.33580   0.00000  Uiso   1.00
N57    N     0.04050   0.08709   0.09527   0.00000  Uiso   1.00
O58    O     0.08871   0.11112   0.11191   0.00000  Uiso   1.00
O59    O     0.03826   0.03675   0.08519   0.00000  Uiso   1.00
N60    N     0.29294   0.24633   0.40471   0.00000  Uiso   1.00
O61    O     0.29529   0.29669   0.41470   0.00000  Uiso   1.00
O62    O     0.24469   0.22234   0.38810   0.00000  Uiso   1.00
O63    O     0.63052   0.24631   0.25310   0.00000  Uiso   1.00
O64    O     0.36948   0.08702   0.24691   0.00000  Uiso   1.00
O65    O     0.39155   0.23702   0.24502   0.00000  Uiso   1.00
O66    O     0.60845   0.09632   0.25499   0.00000  Uiso   1.00
C67    C     0.34838   0.26490   0.24877   0.00000  Uiso   1.00
C68    C     0.65161   0.06843   0.25114   0.00000  Uiso   1.00
O69    O     0.63662   0.17397   0.32247   0.00000  Uiso   1.00
O70    O     0.36338   0.15937   0.17753   0.00000  Uiso   1.00
O71    O     0.39764   0.16467   0.31439   0.00000  Uiso   1.00
O72    O     0.60236   0.16866   0.18561   0.00000  Uiso   1.00
C73    C     0.35397   0.17158   0.34154   0.00000  Uiso   1.00
C74    C     0.64604   0.16176   0.15846   0.00000  Uiso   1.00
Zn75   Zn    0.60366   0.17287   0.25540   0.00000  Uiso   1.00
Zn76   Zn    0.39634   0.16046   0.24461   0.00000  Uiso   1.00
C77    C     0.36279   0.17785   0.39532   0.00000  Uiso   1.00
C78    C     0.63725   0.15551   0.10468   0.00000  Uiso   1.00
C79    C     0.35651   0.22807   0.47361   0.00000  Uiso   1.00
C80    C     0.64358   0.10532   0.02638   0.00000  Uiso   1.00
C81    C     0.33726   0.21696   0.42434   0.00000  Uiso   1.00
C82    C     0.66280   0.11641   0.07566   0.00000  Uiso   1.00
C83    C     0.40426   0.14900   0.41679   0.00000  Uiso   1.00
C84    C     0.59583   0.18440   0.08319   0.00000  Uiso   1.00
C85    C     0.43284   0.16989   0.46133   0.00000  Uiso   1.00
C86    C     0.56730   0.16357   0.03863   0.00000  Uiso   1.00
C87    C     0.40490   0.20598   0.49180   0.00000  Uiso   1.00
C88    C     0.59524   0.12746   0.00816   0.00000  Uiso   1.00
C89    C     0.48871   0.15803   0.47592   0.00000  Uiso   1.00
C90    C     0.51146   0.17546   0.02403   0.00000  Uiso   1.00
C91    C     0.47628   0.20119   0.05698   0.00000  Uiso   1.00
C92    C     0.52388   0.13228   0.44298   0.00000  Uiso   1.00
C93    C     0.42544   0.21918   0.04025   0.00000  Uiso   1.00
C94    C     0.57472   0.11429   0.45970   0.00000  Uiso   1.00
H95    H     0.40194   0.24298   0.06541   0.00000  Uiso   1.00
H96    H     0.59823   0.09049   0.43453   0.00000  Uiso   1.00
H97    H     0.33565   0.25625   0.49679   0.00000  Uiso   1.00
H98    H     0.66444   0.07714   0.00320   0.00000  Uiso   1.00
H99    H     0.48743   0.20772   0.09590   0.00000  Uiso   1.00
H100   H     0.51261   0.12566   0.40409   0.00000  Uiso   1.00
C101   C     0.35618   0.31945   0.24788   0.00000  Uiso   1.00
C102   C     0.64376   0.01386   0.25181   0.00000  Uiso   1.00
H103   H     0.39926   0.00325   0.24402   0.00000  Uiso   1.00
H104   H     0.60067   0.33005   0.25560   0.00000  Uiso   1.00
N105   N     0.48029   0.15216   0.23740   0.00000  Uiso   1.00
N106   N     0.51971   0.18117   0.26261   0.00000  Uiso   1.00
H107   H     0.49561   0.12430   0.21341   0.00000  Uiso   1.00
H108   H     0.50439   0.20902   0.28660   0.00000  Uiso   1.00
S109   S     0.59492   0.25190   0.10402   0.00000  Uiso   1.00
O110   O     0.55832   0.25818   0.14791   0.00000  Uiso   1.00
O111   O     0.65459   0.27310   0.11963   0.00000  Uiso   1.00
O112   O     0.57039   0.28645   0.05803   0.00000  Uiso   1.00
H113   H     0.57592   0.32349   0.07113   0.00000  Uiso   1.00
S114   S     0.40549   0.08160   0.39564   0.00000  Uiso   1.00
O115   O     0.42723   0.05044   0.43659   0.00000  Uiso   1.00
O116   O     0.34594   0.06034   0.37958   0.00000  Uiso   1.00
O117   O     0.44672   0.07494   0.34664   0.00000  Uiso   1.00
H118   H     0.44198   0.03719   0.33580   0.00000  Uiso   1.00
N119   N     0.37383   0.08709   0.09527   0.00000  Uiso   1.00
O120   O     0.42204   0.11112   0.11191   0.00000  Uiso   1.00
O121   O     0.37160   0.03675   0.08519   0.00000  Uiso   1.00
N122   N     0.62628   0.24633   0.40471   0.00000  Uiso   1.00
O123   O     0.62863   0.29669   0.41470   0.00000  Uiso   1.00
O124   O     0.57802   0.22234   0.38810   0.00000  Uiso   1.00
O125   O     0.96386   0.24631   0.25310   0.00000  Uiso   1.00
O126   O     0.70281   0.08702   0.24691   0.00000  Uiso   1.00
O127   O     0.72488   0.23702   0.24502   0.00000  Uiso   1.00
O128   O     0.94178   0.09632   0.25499   0.00000  Uiso   1.00
C129   C     0.68171   0.26490   0.24877   0.00000  Uiso   1.00
C130   C     0.98494   0.06843   0.25114   0.00000  Uiso   1.00
O131   O     0.96995   0.17397   0.32247   0.00000  Uiso   1.00
O132   O     0.69672   0.15937   0.17753   0.00000  Uiso   1.00
O133   O     0.73098   0.16467   0.31439   0.00000  Uiso   1.00
O134   O     0.93569   0.16866   0.18561   0.00000  Uiso   1.00
C135   C     0.68731   0.17158   0.34154   0.00000  Uiso   1.00
C136   C     0.97937   0.16176   0.15846   0.00000  Uiso   1.00
Zn137  Zn    0.93700   0.17287   0.25540   0.00000  Uiso   1.00
Zn138  Zn    0.72967   0.16046   0.24461   0.00000  Uiso   1.00
C139   C     0.69613   0.17785   0.39532   0.00000  Uiso   1.00
C140   C     0.97059   0.15551   0.10468   0.00000  Uiso   1.00
C141   C     0.68984   0.22807   0.47361   0.00000  Uiso   1.00
C142   C     0.97692   0.10532   0.02638   0.00000  Uiso   1.00
C143   C     0.67059   0.21696   0.42434   0.00000  Uiso   1.00
C144   C     0.99614   0.11641   0.07566   0.00000  Uiso   1.00
C145   C     0.73760   0.14900   0.41679   0.00000  Uiso   1.00
C146   C     0.92916   0.18440   0.08319   0.00000  Uiso   1.00
C147   C     0.76618   0.16989   0.46133   0.00000  Uiso   1.00
C148   C     0.90063   0.16357   0.03863   0.00000  Uiso   1.00
C149   C     0.73823   0.20598   0.49180   0.00000  Uiso   1.00
C150   C     0.92857   0.12746   0.00816   0.00000  Uiso   1.00
C151   C     0.82205   0.15803   0.47592   0.00000  Uiso   1.00
C152   C     0.84479   0.17546   0.02403   0.00000  Uiso   1.00
C153   C     0.80961   0.20119   0.05698   0.00000  Uiso   1.00
C154   C     0.85721   0.13228   0.44298   0.00000  Uiso   1.00
C155   C     0.75877   0.21918   0.04025   0.00000  Uiso   1.00
C156   C     0.90806   0.11429   0.45970   0.00000  Uiso   1.00
H157   H     0.73528   0.24298   0.06541   0.00000  Uiso   1.00
H158   H     0.93156   0.09049   0.43453   0.00000  Uiso   1.00
H159   H     0.66898   0.25625   0.49679   0.00000  Uiso   1.00
H160   H     0.99777   0.07714   0.00320   0.00000  Uiso   1.00
H161   H     0.82077   0.20772   0.09590   0.00000  Uiso   1.00
H162   H     0.84595   0.12566   0.40409   0.00000  Uiso   1.00
C163   C     0.68951   0.31945   0.24788   0.00000  Uiso   1.00
C164   C     0.97710   0.01386   0.25181   0.00000  Uiso   1.00
H165   H     0.73259   0.00325   0.24402   0.00000  Uiso   1.00
H166   H     0.93401   0.33005   0.25560   0.00000  Uiso   1.00
N167   N     0.81362   0.15216   0.23740   0.00000  Uiso   1.00
N168   N     0.85305   0.18117   0.26261   0.00000  Uiso   1.00
H169   H     0.82894   0.12430   0.21341   0.00000  Uiso   1.00
H170   H     0.83773   0.20902   0.28660   0.00000  Uiso   1.00
S171   S     0.92825   0.25190   0.10402   0.00000  Uiso   1.00
O172   O     0.89165   0.25818   0.14791   0.00000  Uiso   1.00
O173   O     0.98793   0.27310   0.11963   0.00000  Uiso   1.00
O174   O     0.90372   0.28645   0.05803   0.00000  Uiso   1.00
H175   H     0.90925   0.32349   0.07113   0.00000  Uiso   1.00
S176   S     0.73882   0.08160   0.39564   0.00000  Uiso   1.00
O177   O     0.76056   0.05044   0.43659   0.00000  Uiso   1.00
O178   O     0.67928   0.06034   0.37958   0.00000  Uiso   1.00
O179   O     0.78005   0.07494   0.34664   0.00000  Uiso   1.00
H180   H     0.77531   0.03719   0.33580   0.00000  Uiso   1.00
N181   N     0.70716   0.08709   0.09527   0.00000  Uiso   1.00
O182   O     0.75538   0.11112   0.11191   0.00000  Uiso   1.00
O183   O     0.70493   0.03675   0.08519   0.00000  Uiso   1.00
N184   N     0.95961   0.24633   0.40471   0.00000  Uiso   1.00
O185   O     0.96196   0.29669   0.41470   0.00000  Uiso   1.00
O186   O     0.91136   0.22234   0.38810   0.00000  Uiso   1.00
O187   O     0.29719   0.57964   0.25310   0.00000  Uiso   1.00
O188   O     0.03614   0.42036   0.24691   0.00000  Uiso   1.00
O189   O     0.05822   0.57035   0.24502   0.00000  Uiso   1.00
O190   O     0.27512   0.42965   0.25499   0.00000  Uiso   1.00
C191   C     0.01504   0.59823   0.24877   0.00000  Uiso   1.00
C192   C     0.31827   0.40176   0.25114   0.00000  Uiso   1.00
O193   O     0.30328   0.50730   0.32247   0.00000  Uiso   1.00
O194   O     0.03005   0.49270   0.17753   0.00000  Uiso   1.00
O195   O     0.06431   0.49801   0.31439   0.00000  Uiso   1.00
O196   O     0.26902   0.50199   0.18561   0.00000  Uiso   1.00
C197   C     0.02064   0.50492   0.34154   0.00000  Uiso   1.00
C198   C     0.31270   0.49510   0.15846   0.00000  Uiso   1.00
Zn199  Zn    0.27033   0.50621   0.25540   0.00000  Uiso   1.00
Zn200  Zn    0.06300   0.49379   0.24461   0.00000  Uiso   1.00
C201   C     0.02946   0.51119   0.39532   0.00000  Uiso   1.00
C202   C     0.30392   0.48884   0.10468   0.00000  Uiso   1.00
C203   C     0.02317   0.56140   0.47361   0.00000  Uiso   1.00
C204   C     0.31025   0.43866   0.02638   0.00000  Uiso   1.00
C205   C     0.00392   0.55030   0.42434   0.00000  Uiso   1.00
C206   C     0.32947   0.44974   0.07566   0.00000  Uiso   1.00
C207   C     0.07093   0.48233   0.41679   0.00000  Uiso   1.00
C208   C     0.26249   0.51773   0.08319   0.00000  Uiso   1.00
C209   C     0.09951   0.50322   0.46133   0.00000  Uiso   1.00
C210   C     0.23397   0.49690   0.03863   0.00000  Uiso   1.00
C211   C     0.07156   0.53931   0.49180   0.00000  Uiso   1.00
C212   C     0.26191   0.46080   0.00816   0.00000  Uiso   1.00
C213   C     0.15538   0.49136   0.47592   0.00000  Uiso   1.00
C214   C     0.17812   0.50879   0.02403   0.00000  Uiso   1.00
C215   C     0.14295   0.53453   0.05698   0.00000  Uiso   1.00
C216   C     0.19054   0.46561   0.44298   0.00000  Uiso   1.00
C217   C     0.09211   0.55251   0.04025   0.00000  Uiso   1.00
C218   C     0.24139   0.44763   0.45970   0.00000  Uiso   1.00
H219   H     0.06861   0.57631   0.06541   0.00000  Uiso   1.00
H220   H     0.26490   0.42382   0.43453   0.00000  Uiso   1.00
H221   H     0.00231   0.58958   0.49679   0.00000  Uiso   1.00
H222   H     0.33111   0.41048   0.00320   0.00000  Uiso   1.00
H223   H     0.15410   0.54105   0.09590   0.00000  Uiso   1.00
H224   H     0.17928   0.45900   0.40409   0.00000  Uiso   1.00
C225   C     0.02284   0.65278   0.24788   0.00000  Uiso   1.00
C226   C     0.31043   0.34719   0.25181   0.00000  Uiso   1.00
H227   H     0.06592   0.33658   0.24402   0.00000  Uiso   1.00
H228   H     0.26734   0.66339   0.25560   0.00000  Uiso   1.00
N229   N     0.14695   0.48550   0.23740   0.00000  Uiso   1.00
N230   N     0.18638   0.51450   0.26261   0.00000  Uiso   1.00
H231   H     0.16227   0.45764   0.21341   0.00000  Uiso   1.00
H232   H     0.17106   0.54235   0.28660   0.00000  Uiso   1.00
S233   S     0.26158   0.58523   0.10402   0.00000  Uiso   1.00
O234   O     0.22498   0.59151   0.14791   0.00000  Uiso   1.00
O235   O     0.32126   0.60643   0.11963   0.00000  Uiso   1.00
O236   O     0.23705   0.61978   0.05803   0.00000  Uiso   1.00
H237   H     0.24259   0.65682   0.07113   0.00000  Uiso   1.00
S238   S     0.07215   0.41493   0.39564   0.00000  Uiso   1.00
O239   O     0.09389   0.38377   0.43659   0.00000  Uiso   1.00
O240   O     0.01261   0.39368   0.37958   0.00000  Uiso   1.00
O241   O     0.11338   0.40827   0.34664   0.00000  Uiso   1.00
H242   H     0.10865   0.37053   0.33580   0.00000  Uiso   1.00
N243   N     0.04050   0.42042   0.09527   0.00000  Uiso   1.00
O244   O     0.08871   0.44446   0.11191   0.00000  Uiso   1.00
O245   O     0.03826   0.37008   0.08519   0.00000  Uiso   1.00
N246   N     0.29294   0.57966   0.40471   0.00000  Uiso   1.00
O247   O     0.29529   0.63002   0.41470   0.00000  Uiso   1.00
O248   O     0.24469   0.55568   0.38810   0.00000  Uiso   1.00
O249   O     0.63052   0.57964   0.25310   0.00000  Uiso   1.00
O250   O     0.36948   0.42036   0.24691   0.00000  Uiso   1.00
O251   O     0.39155   0.57035   0.24502   0.00000  Uiso   1.00
O252   O     0.60845   0.42965   0.25499   0.00000  Uiso   1.00
C253   C     0.34838   0.59823   0.24877   0.00000  Uiso   1.00
C254   C     0.65161   0.40176   0.25114   0.00000  Uiso   1.00
O255   O     0.63662   0.50730   0.32247   0.00000  Uiso   1.00
O256   O     0.36338   0.49270   0.17753   0.00000  Uiso   1.00
O257   O     0.39764   0.49801   0.31439   0.00000  Uiso   1.00
O258   O     0.60236   0.50199   0.18561   0.00000  Uiso   1.00
C259   C     0.35397   0.50492   0.34154   0.00000  Uiso   1.00
C260   C     0.64604   0.49510   0.15846   0.00000  Uiso   1.00
Zn261  Zn    0.60366   0.50621   0.25540   0.00000  Uiso   1.00
Zn262  Zn    0.39634   0.49379   0.24461   0.00000  Uiso   1.00
C263   C     0.36279   0.51119   0.39532   0.00000  Uiso   1.00
C264   C     0.63725   0.48884   0.10468   0.00000  Uiso   1.00
C265   C     0.35651   0.56140   0.47361   0.00000  Uiso   1.00
C266   C     0.64358   0.43866   0.02638   0.00000  Uiso   1.00
C267   C     0.33726   0.55030   0.42434   0.00000  Uiso   1.00
C268   C     0.66280   0.44974   0.07566   0.00000  Uiso   1.00
C269   C     0.40426   0.48233   0.41679   0.00000  Uiso   1.00
C270   C     0.59583   0.51773   0.08319   0.00000  Uiso   1.00
C271   C     0.43284   0.50322   0.46133   0.00000  Uiso   1.00
C272   C     0.56730   0.49690   0.03863   0.00000  Uiso   1.00
C273   C     0.40490   0.53931   0.49180   0.00000  Uiso   1.00
C274   C     0.59524   0.46080   0.00816   0.00000  Uiso   1.00
C275   C     0.48871   0.49136   0.47592   0.00000  Uiso   1.00
C276   C     0.51146   0.50879   0.02403   0.00000  Uiso   1.00
C277   C     0.47628   0.53453   0.05698   0.00000  Uiso   1.00
C278   C     0.52388   0.46561   0.44298   0.00000  Uiso   1.00
C279   C     0.42544   0.55251   0.04025   0.00000  Uiso   1.00
C280   C     0.57472   0.44763   0.45970   0.00000  Uiso   1.00
H281   H     0.40194   0.57631   0.06541   0.00000  Uiso   1.00
H282   H     0.59823   0.42382   0.43453   0.00000  Uiso   1.00
H283   H     0.33565   0.58958   0.49679   0.00000  Uiso   1.00
H284   H     0.66444   0.41048   0.00320   0.00000  Uiso   1.00
H285   H     0.48743   0.54105   0.09590   0.00000  Uiso   1.00
H286   H     0.51261   0.45900   0.40409   0.00000  Uiso   1.00
C287   C     0.35618   0.65278   0.24788   0.00000  Uiso   1.00
C288   C     0.64376   0.34719   0.25181   0.00000  Uiso   1.00
H289   H     0.39926   0.33658   0.24402   0.00000  Uiso   1.00
H290   H     0.60067   0.66339   0.25560   0.00000  Uiso   1.00
N291   N     0.48029   0.48550   0.23740   0.00000  Uiso   1.00
N292   N     0.51971   0.51450   0.26261   0.00000  Uiso   1.00
H293   H     0.49561   0.45764   0.21341   0.00000  Uiso   1.00
H294   H     0.50439   0.54235   0.28660   0.00000  Uiso   1.00
S295   S     0.59492   0.58523   0.10402   0.00000  Uiso   1.00
O296   O     0.55832   0.59151   0.14791   0.00000  Uiso   1.00
O297   O     0.65459   0.60643   0.11963   0.00000  Uiso   1.00
O298   O     0.57039   0.61978   0.05803   0.00000  Uiso   1.00
H299   H     0.57592   0.65682   0.07113   0.00000  Uiso   1.00
S300   S     0.40549   0.41493   0.39564   0.00000  Uiso   1.00
O301   O     0.42723   0.38377   0.43659   0.00000  Uiso   1.00
O302   O     0.34594   0.39368   0.37958   0.00000  Uiso   1.00
O303   O     0.44672   0.40827   0.34664   0.00000  Uiso   1.00
H304   H     0.44198   0.37053   0.33580   0.00000  Uiso   1.00
N305   N     0.37383   0.42042   0.09527   0.00000  Uiso   1.00
O306   O     0.42204   0.44446   0.11191   0.00000  Uiso   1.00
O307   O     0.37160   0.37008   0.08519   0.00000  Uiso   1.00
N308   N     0.62628   0.57966   0.40471   0.00000  Uiso   1.00
O309   O     0.62863   0.63002   0.41470   0.00000  Uiso   1.00
O310   O     0.57802   0.55568   0.38810   0.00000  Uiso   1.00
O311   O     0.96386   0.57964   0.25310   0.00000  Uiso   1.00
O312   O     0.70281   0.42036   0.24691   0.00000  Uiso   1.00
O313   O     0.72488   0.57035   0.24502   0.00000  Uiso   1.00
O314   O     0.94178   0.42965   0.25499   0.00000  Uiso   1.00
C315   C     0.68171   0.59823   0.24877   0.00000  Uiso   1.00
C316   C     0.98494   0.40176   0.25114   0.00000  Uiso   1.00
O317   O     0.96995   0.50730   0.32247   0.00000  Uiso   1.00
O318   O     0.69672   0.49270   0.17753   0.00000  Uiso   1.00
O319   O     0.73098   0.49801   0.31439   0.00000  Uiso   1.00
O320   O     0.93569   0.50199   0.18561   0.00000  Uiso   1.00
C321   C     0.68731   0.50492   0.34154   0.00000  Uiso   1.00
C322   C     0.97937   0.49510   0.15846   0.00000  Uiso   1.00
Zn323  Zn    0.93700   0.50621   0.25540   0.00000  Uiso   1.00
Zn324  Zn    0.72967   0.49379   0.24461   0.00000  Uiso   1.00
C325   C     0.69613   0.51119   0.39532   0.00000  Uiso   1.00
C326   C     0.97059   0.48884   0.10468   0.00000  Uiso   1.00
C327   C     0.68984   0.56140   0.47361   0.00000  Uiso   1.00
C328   C     0.97692   0.43866   0.02638   0.00000  Uiso   1.00
C329   C     0.67059   0.55030   0.42434   0.00000  Uiso   1.00
C330   C     0.99614   0.44974   0.07566   0.00000  Uiso   1.00
C331   C     0.73760   0.48233   0.41679   0.00000  Uiso   1.00
C332   C     0.92916   0.51773   0.08319   0.00000  Uiso   1.00
C333   C     0.76618   0.50322   0.46133   0.00000  Uiso   1.00
C334   C     0.90063   0.49690   0.03863   0.00000  Uiso   1.00
C335   C     0.73823   0.53931   0.49180   0.00000  Uiso   1.00
C336   C     0.92857   0.46080   0.00816   0.00000  Uiso   1.00
C337   C     0.82205   0.49136   0.47592   0.00000  Uiso   1.00
C338   C     0.84479   0.50879   0.02403   0.00000  Uiso   1.00
C339   C     0.80961   0.53453   0.05698   0.00000  Uiso   1.00
C340   C     0.85721   0.46561   0.44298   0.00000  Uiso   1.00
C341   C     0.75877   0.55251   0.04025   0.00000  Uiso   1.00
C342   C     0.90806   0.44763   0.45970   0.00000  Uiso   1.00
H343   H     0.73528   0.57631   0.06541   0.00000  Uiso   1.00
H344   H     0.93156   0.42382   0.43453   0.00000  Uiso   1.00
H345   H     0.66898   0.58958   0.49679   0.00000  Uiso   1.00
H346   H     0.99777   0.41048   0.00320   0.00000  Uiso   1.00
H347   H     0.82077   0.54105   0.09590   0.00000  Uiso   1.00
H348   H     0.84595   0.45900   0.40409   0.00000  Uiso   1.00
C349   C     0.68951   0.65278   0.24788   0.00000  Uiso   1.00
C350   C     0.97710   0.34719   0.25181   0.00000  Uiso   1.00
H351   H     0.73259   0.33658   0.24402   0.00000  Uiso   1.00
H352   H     0.93401   0.66339   0.25560   0.00000  Uiso   1.00
N353   N     0.81362   0.48550   0.23740   0.00000  Uiso   1.00
N354   N     0.85305   0.51450   0.26261   0.00000  Uiso   1.00
H355   H     0.82894   0.45764   0.21341   0.00000  Uiso   1.00
H356   H     0.83773   0.54235   0.28660   0.00000  Uiso   1.00
S357   S     0.92825   0.58523   0.10402   0.00000  Uiso   1.00
O358   O     0.89165   0.59151   0.14791   0.00000  Uiso   1.00
O359   O     0.98793   0.60643   0.11963   0.00000  Uiso   1.00
O360   O     0.90372   0.61978   0.05803   0.00000  Uiso   1.00
H361   H     0.90925   0.65682   0.07113   0.00000  Uiso   1.00
S362   S     0.73882   0.41493   0.39564   0.00000  Uiso   1.00
O363   O     0.76056   0.38377   0.43659   0.00000  Uiso   1.00
O364   O     0.67928   0.39368   0.37958   0.00000  Uiso   1.00
O365   O     0.78005   0.40827   0.34664   0.00000  Uiso   1.00
H366   H     0.77531   0.37053   0.33580   0.00000  Uiso   1.00
N367   N     0.70716   0.42042   0.09527   0.00000  Uiso   1.00
O368   O     0.75538   0.44446   0.11191   0.00000  Uiso   1.00
O369   O     0.70493   0.37008   0.08519   0.00000  Uiso   1.00
N370   N     0.95961   0.57966   0.40471   0.00000  Uiso   1.00
O371   O     0.96196   0.63002   0.41470   0.00000  Uiso   1.00
O372   O     0.91136   0.55568   0.38810   0.00000  Uiso   1.00
O373   O     0.29719   0.91298   0.25310   0.00000  Uiso   1.00
O374   O     0.03614   0.75369   0.24691   0.00000  Uiso   1.00
O375   O     0.05822   0.90368   0.24502   0.00000  Uiso   1.00
O376   O     0.27512   0.76298   0.25499   0.00000  Uiso   1.00
C377   C     0.01504   0.93156   0.24877   0.00000  Uiso   1.00
C378   C     0.31827   0.73509   0.25114   0.00000  Uiso   1.00
O379   O     0.30328   0.84063   0.32247   0.00000  Uiso   1.00
O380   O     0.03005   0.82603   0.17753   0.00000  Uiso   1.00
O381   O     0.06431   0.83134   0.31439   0.00000  Uiso   1.00
O382   O     0.26902   0.83533   0.18561   0.00000  Uiso   1.00
C383   C     0.02064   0.83825   0.34154   0.00000  Uiso   1.00
C384   C     0.31270   0.82843   0.15846   0.00000  Uiso   1.00
Zn385  Zn    0.27033   0.83954   0.25540   0.00000  Uiso   1.00
Zn386  Zn    0.06300   0.82713   0.24461   0.00000  Uiso   1.00
C387   C     0.02946   0.84452   0.39532   0.00000  Uiso   1.00
C388   C     0.30392   0.82217   0.10468   0.00000  Uiso   1.00
C389   C     0.02317   0.89474   0.47361   0.00000  Uiso   1.00
C390   C     0.31025   0.77199   0.02638   0.00000  Uiso   1.00
C391   C     0.00392   0.88363   0.42434   0.00000  Uiso   1.00
C392   C     0.32947   0.78307   0.07566   0.00000  Uiso   1.00
C393   C     0.07093   0.81567   0.41679   0.00000  Uiso   1.00
C394   C     0.26249   0.85106   0.08319   0.00000  Uiso   1.00
C395   C     0.09951   0.83655   0.46133   0.00000  Uiso   1.00
C396   C     0.23397   0.83024   0.03863   0.00000  Uiso   1.00
C397   C     0.07156   0.87265   0.49180   0.00000  Uiso   1.00
C398   C     0.26191   0.79413   0.00816   0.00000  Uiso   1.00
C399   C     0.15538   0.82470   0.47592   0.00000  Uiso   1.00
C400   C     0.17812   0.84213   0.02403   0.00000  Uiso   1.00
C401   C     0.14295   0.86786   0.05698   0.00000  Uiso   1.00
C402   C     0.19054   0.79895   0.44298   0.00000  Uiso   1.00
C403   C     0.09211   0.88584   0.04025   0.00000  Uiso   1.00
C404   C     0.24139   0.78096   0.45970   0.00000  Uiso   1.00
H405   H     0.06861   0.90965   0.06541   0.00000  Uiso   1.00
H406   H     0.26490   0.75715   0.43453   0.00000  Uiso   1.00
H407   H     0.00231   0.92291   0.49679   0.00000  Uiso   1.00
H408   H     0.33111   0.74381   0.00320   0.00000  Uiso   1.00
H409   H     0.15410   0.87438   0.09590   0.00000  Uiso   1.00
H410   H     0.17928   0.79233   0.40409   0.00000  Uiso   1.00
C411   C     0.02284   0.98611   0.24788   0.00000  Uiso   1.00
C412   C     0.31043   0.68052   0.25181   0.00000  Uiso   1.00
H413   H     0.06592   0.66991   0.24402   0.00000  Uiso   1.00
H414   H     0.26734   0.99672   0.25560   0.00000  Uiso   1.00
N415   N     0.14695   0.81883   0.23740   0.00000  Uiso   1.00
N416   N     0.18638   0.84784   0.26261   0.00000  Uiso   1.00
H417   H     0.16227   0.79097   0.21341   0.00000  Uiso   1.00
H418   H     0.17106   0.87569   0.28660   0.00000  Uiso   1.00
S419   S     0.26158   0.91857   0.10402   0.00000  Uiso   1.00
O420   O     0.22498   0.92485   0.14791   0.00000  Uiso   1.00
O421   O     0.32126   0.93976   0.11963   0.00000  Uiso   1.00
O422   O     0.23705   0.95312   0.05803   0.00000  Uiso   1.00
H423   H     0.24259   0.99015   0.07113   0.00000  Uiso   1.00
S424   S     0.07215   0.74827   0.39564   0.00000  Uiso   1.00
O425   O     0.09389   0.71711   0.43659   0.00000  Uiso   1.00
O426   O     0.01261   0.72701   0.37958   0.00000  Uiso   1.00
O427   O     0.11338   0.74160   0.34664   0.00000  Uiso   1.00
H428   H     0.10865   0.70386   0.33580   0.00000  Uiso   1.00
N429   N     0.04050   0.75375   0.09527   0.00000  Uiso   1.00
O430   O     0.08871   0.77779   0.11191   0.00000  Uiso   1.00
O431   O     0.03826   0.70342   0.08519   0.00000  Uiso   1.00
N432   N     0.29294   0.91299   0.40471   0.00000  Uiso   1.00
O433   O     0.29529   0.96335   0.41470   0.00000  Uiso   1.00
O434   O     0.24469   0.88901   0.38810   0.00000  Uiso   1.00
O435   O     0.63052   0.91298   0.25310   0.00000  Uiso   1.00
O436   O     0.36948   0.75369   0.24691   0.00000  Uiso   1.00
O437   O     0.39155   0.90368   0.24502   0.00000  Uiso   1.00
O438   O     0.60845   0.76298   0.25499   0.00000  Uiso   1.00
C439   C     0.34838   0.93156   0.24877   0.00000  Uiso   1.00
C440   C     0.65161   0.73509   0.25114   0.00000  Uiso   1.00
O441   O     0.63662   0.84063   0.32247   0.00000  Uiso   1.00
O442   O     0.36338   0.82603   0.17753   0.00000  Uiso   1.00
O443   O     0.39764   0.83134   0.31439   0.00000  Uiso   1.00
O444   O     0.60236   0.83533   0.18561   0.00000  Uiso   1.00
C445   C     0.35397   0.83825   0.34154   0.00000  Uiso   1.00
C446   C     0.64604   0.82843   0.15846   0.00000  Uiso   1.00
Zn447  Zn    0.60366   0.83954   0.25540   0.00000  Uiso   1.00
Zn448  Zn    0.39634   0.82713   0.24461   0.00000  Uiso   1.00
C449   C     0.36279   0.84452   0.39532   0.00000  Uiso   1.00
C450   C     0.63725   0.82217   0.10468   0.00000  Uiso   1.00
C451   C     0.35651   0.89474   0.47361   0.00000  Uiso   1.00
C452   C     0.64358   0.77199   0.02638   0.00000  Uiso   1.00
C453   C     0.33726   0.88363   0.42434   0.00000  Uiso   1.00
C454   C     0.66280   0.78307   0.07566   0.00000  Uiso   1.00
C455   C     0.40426   0.81567   0.41679   0.00000  Uiso   1.00
C456   C     0.59583   0.85106   0.08319   0.00000  Uiso   1.00
C457   C     0.43284   0.83655   0.46133   0.00000  Uiso   1.00
C458   C     0.56730   0.83024   0.03863   0.00000  Uiso   1.00
C459   C     0.40490   0.87265   0.49180   0.00000  Uiso   1.00
C460   C     0.59524   0.79413   0.00816   0.00000  Uiso   1.00
C461   C     0.48871   0.82470   0.47592   0.00000  Uiso   1.00
C462   C     0.51146   0.84213   0.02403   0.00000  Uiso   1.00
C463   C     0.47628   0.86786   0.05698   0.00000  Uiso   1.00
C464   C     0.52388   0.79895   0.44298   0.00000  Uiso   1.00
C465   C     0.42544   0.88584   0.04025   0.00000  Uiso   1.00
C466   C     0.57472   0.78096   0.45970   0.00000  Uiso   1.00
H467   H     0.40194   0.90965   0.06541   0.00000  Uiso   1.00
H468   H     0.59823   0.75715   0.43453   0.00000  Uiso   1.00
H469   H     0.33565   0.92291   0.49679   0.00000  Uiso   1.00
H470   H     0.66444   0.74381   0.00320   0.00000  Uiso   1.00
H471   H     0.48743   0.87438   0.09590   0.00000  Uiso   1.00
H472   H     0.51261   0.79233   0.40409   0.00000  Uiso   1.00
C473   C     0.35618   0.98611   0.24788   0.00000  Uiso   1.00
C474   C     0.64376   0.68052   0.25181   0.00000  Uiso   1.00
H475   H     0.39926   0.66991   0.24402   0.00000  Uiso   1.00
H476   H     0.60067   0.99672   0.25560   0.00000  Uiso   1.00
N477   N     0.48029   0.81883   0.23740   0.00000  Uiso   1.00
N478   N     0.51971   0.84784   0.26261   0.00000  Uiso   1.00
H479   H     0.49561   0.79097   0.21341   0.00000  Uiso   1.00
H480   H     0.50439   0.87569   0.28660   0.00000  Uiso   1.00
S481   S     0.59492   0.91857   0.10402   0.00000  Uiso   1.00
O482   O     0.55832   0.92485   0.14791   0.00000  Uiso   1.00
O483   O     0.65459   0.93976   0.11963   0.00000  Uiso   1.00
O484   O     0.57039   0.95312   0.05803   0.00000  Uiso   1.00
H485   H     0.57592   0.99015   0.07113   0.00000  Uiso   1.00
S486   S     0.40549   0.74827   0.39564   0.00000  Uiso   1.00
O487   O     0.42723   0.71711   0.43659   0.00000  Uiso   1.00
O488   O     0.34594   0.72701   0.37958   0.00000  Uiso   1.00
O489   O     0.44672   0.74160   0.34664   0.00000  Uiso   1.00
H490   H     0.44198   0.70386   0.33580   0.00000  Uiso   1.00
N491   N     0.37383   0.75375   0.09527   0.00000  Uiso   1.00
O492   O     0.42204   0.77779   0.11191   0.00000  Uiso   1.00
O493   O     0.37160   0.70342   0.08519   0.00000  Uiso   1.00
N494   N     0.62628   0.91299   0.40471   0.00000  Uiso   1.00
O495   O     0.62863   0.96335   0.41470   0.00000  Uiso   1.00
O496   O     0.57802   0.88901   0.38810   0.00000  Uiso   1.00
O497   O     0.96386   0.91298   0.25310   0.00000  Uiso   1.00
O498   O     0.70281   0.75369   0.24691   0.00000  Uiso   1.00
O499   O     0.72488   0.90368   0.24502   0.00000  Uiso   1.00
O500   O     0.94178   0.76298   0.25499   0.00000  Uiso   1.00
C501   C     0.68171   0.93156   0.24877   0.00000  Uiso   1.00
C502   C     0.98494   0.73509   0.25114   0.00000  Uiso   1.00
O503   O     0.96995   0.84063   0.32247   0.00000  Uiso   1.00
O504   O     0.69672   0.82603   0.17753   0.00000  Uiso   1.00
O505   O     0.73098   0.83134   0.31439   0.00000  Uiso   1.00
O506   O     0.93569   0.83533   0.18561   0.00000  Uiso   1.00
C507   C     0.68731   0.83825   0.34154   0.00000  Uiso   1.00
C508   C     0.97937   0.82843   0.15846   0.00000  Uiso   1.00
Zn509  Zn    0.93700   0.83954   0.25540   0.00000  Uiso   1.00
Zn510  Zn    0.72967   0.82713   0.24461   0.00000  Uiso   1.00
C511   C     0.69613   0.84452   0.39532   0.00000  Uiso   1.00
C512   C     0.97059   0.82217   0.10468   0.00000  Uiso   1.00
C513   C     0.68984   0.89474   0.47361   0.00000  Uiso   1.00
C514   C     0.97692   0.77199   0.02638   0.00000  Uiso   1.00
C515   C     0.67059   0.88363   0.42434   0.00000  Uiso   1.00
C516   C     0.99614   0.78307   0.07566   0.00000  Uiso   1.00
C517   C     0.73760   0.81567   0.41679   0.00000  Uiso   1.00
C518   C     0.92916   0.85106   0.08319   0.00000  Uiso   1.00
C519   C     0.76618   0.83655   0.46133   0.00000  Uiso   1.00
C520   C     0.90063   0.83024   0.03863   0.00000  Uiso   1.00
C521   C     0.73823   0.87265   0.49180   0.00000  Uiso   1.00
C522   C     0.92857   0.79413   0.00816   0.00000  Uiso   1.00
C523   C     0.82205   0.82470   0.47592   0.00000  Uiso   1.00
C524   C     0.84479   0.84213   0.02403   0.00000  Uiso   1.00
C525   C     0.80961   0.86786   0.05698   0.00000  Uiso   1.00
C526   C     0.85721   0.79895   0.44298   0.00000  Uiso   1.00
C527   C     0.75877   0.88584   0.04025   0.00000  Uiso   1.00
C528   C     0.90806   0.78096   0.45970   0.00000  Uiso   1.00
H529   H     0.73528   0.90965   0.06541   0.00000  Uiso   1.00
H530   H     0.93156   0.75715   0.43453   0.00000  Uiso   1.00
H531   H     0.66898   0.92291   0.49679   0.00000  Uiso   1.00
H532   H     0.99777   0.74381   0.00320   0.00000  Uiso   1.00
H533   H     0.82077   0.87438   0.09590   0.00000  Uiso   1.00
H534   H     0.84595   0.79233   0.40409   0.00000  Uiso   1.00
C535   C     0.68951   0.98611   0.24788   0.00000  Uiso   1.00
C536   C     0.97710   0.68052   0.25181   0.00000  Uiso   1.00
H537   H     0.73259   0.66991   0.24402   0.00000  Uiso   1.00
H538   H     0.93401   0.99672   0.25560   0.00000  Uiso   1.00
N539   N     0.81362   0.81883   0.23740   0.00000  Uiso   1.00
N540   N     0.85305   0.84784   0.26261   0.00000  Uiso   1.00
H541   H     0.82894   0.79097   0.21341   0.00000  Uiso   1.00
H542   H     0.83773   0.87569   0.28660   0.00000  Uiso   1.00
S543   S     0.92825   0.91857   0.10402   0.00000  Uiso   1.00
O544   O     0.89165   0.92485   0.14791   0.00000  Uiso   1.00
O545   O     0.98793   0.93976   0.11963   0.00000  Uiso   1.00
O546   O     0.90372   0.95312   0.05803   0.00000  Uiso   1.00
H547   H     0.90925   0.99015   0.07113   0.00000  Uiso   1.00
S548   S     0.73882   0.74827   0.39564   0.00000  Uiso   1.00
O549   O     0.76056   0.71711   0.43659   0.00000  Uiso   1.00
O550   O     0.67928   0.72701   0.37958   0.00000  Uiso   1.00
O551   O     0.78005   0.74160   0.34664   0.00000  Uiso   1.00
H552   H     0.77531   0.70386   0.33580   0.00000  Uiso   1.00
N553   N     0.70716   0.75375   0.09527   0.00000  Uiso   1.00
O554   O     0.75538   0.77779   0.11191   0.00000  Uiso   1.00
O555   O     0.70493   0.70342   0.08519   0.00000  Uiso   1.00
N556   N     0.95961   0.91299   0.40471   0.00000  Uiso   1.00
O557   O     0.96196   0.96335   0.41470   0.00000  Uiso   1.00
O558   O     0.91136   0.88901   0.38810   0.00000  Uiso   1.00
O559   O     0.29719   0.24631   0.75310   0.00000  Uiso   1.00
O560   O     0.03614   0.08702   0.74691   0.00000  Uiso   1.00
O561   O     0.05822   0.23702   0.74502   0.00000  Uiso   1.00
O562   O     0.27512   0.09632   0.75499   0.00000  Uiso   1.00
C563   C     0.01504   0.26490   0.74877   0.00000  Uiso   1.00
C564   C     0.31827   0.06843   0.75114   0.00000  Uiso   1.00
O565   O     0.30328   0.17397   0.82247   0.00000  Uiso   1.00
O566   O     0.03005   0.15937   0.67753   0.00000  Uiso   1.00
O567   O     0.06431   0.16467   0.81439   0.00000  Uiso   1.00
O568   O     0.26902   0.16866   0.68561   0.00000  Uiso   1.00
C569   C     0.02064   0.17158   0.84154   0.00000  Uiso   1.00
C570   C     0.31270   0.16176   0.65846   0.00000  Uiso   1.00
Zn571  Zn    0.27033   0.17287   0.75540   0.00000  Uiso   1.00
Zn572  Zn    0.06300   0.16046   0.74461   0.00000  Uiso   1.00
C573   C     0.02946   0.17785   0.89532   0.00000  Uiso   1.00
C574   C     0.30392   0.15551   0.60468   0.00000  Uiso   1.00
C575   C     0.02317   0.22807   0.97361   0.00000  Uiso   1.00
C576   C     0.31025   0.10532   0.52638   0.00000  Uiso   1.00
C577   C     0.00392   0.21696   0.92434   0.00000  Uiso   1.00
C578   C     0.32947   0.11641   0.57566   0.00000  Uiso   1.00
C579   C     0.07093   0.14900   0.91679   0.00000  Uiso   1.00
C580   C     0.26249   0.18440   0.58319   0.00000  Uiso   1.00
C581   C     0.09951   0.16989   0.96133   0.00000  Uiso   1.00
C582   C     0.23397   0.16357   0.53863   0.00000  Uiso   1.00
C583   C     0.07156   0.20598   0.99180   0.00000  Uiso   1.00
C584   C     0.26191   0.12746   0.50816   0.00000  Uiso   1.00
C585   C     0.15538   0.15803   0.97592   0.00000  Uiso   1.00
C586   C     0.17812   0.17546   0.52403   0.00000  Uiso   1.00
C587   C     0.14295   0.20119   0.55698   0.00000  Uiso   1.00
C588   C     0.19054   0.13228   0.94298   0.00000  Uiso   1.00
C589   C     0.09211   0.21918   0.54025   0.00000  Uiso   1.00
C590   C     0.24139   0.11429   0.95970   0.00000  Uiso   1.00
H591   H     0.06861   0.24298   0.56541   0.00000  Uiso   1.00
H592   H     0.26490   0.09049   0.93453   0.00000  Uiso   1.00
H593   H     0.00231   0.25625   0.99679   0.00000  Uiso   1.00
H594   H     0.33111   0.07714   0.50320   0.00000  Uiso   1.00
H595   H     0.15410   0.20772   0.59590   0.00000  Uiso   1.00
H596   H     0.17928   0.12566   0.90409   0.00000  Uiso   1.00
C597   C     0.02284   0.31945   0.74788   0.00000  Uiso   1.00
C598   C     0.31043   0.01386   0.75181   0.00000  Uiso   1.00
H599   H     0.06592   0.00325   0.74402   0.00000  Uiso   1.00
H600   H     0.26734   0.33005   0.75560   0.00000  Uiso   1.00
N601   N     0.14695   0.15216   0.73740   0.00000  Uiso   1.00
N602   N     0.18638   0.18117   0.76261   0.00000  Uiso   1.00
H603   H     0.16227   0.12430   0.71341   0.00000  Uiso   1.00
H604   H     0.17106   0.20902   0.78660   0.00000  Uiso   1.00
S605   S     0.26158   0.25190   0.60402   0.00000  Uiso   1.00
O606   O     0.22498   0.25818   0.64791   0.00000  Uiso   1.00
O607   O     0.32126   0.27310   0.61963   0.00000  Uiso   1.00
O608   O     0.23705   0.28645   0.55803   0.00000  Uiso   1.00
H609   H     0.24259   0.32349   0.57113   0.00000  Uiso   1.00
S610   S     0.07215   0.08160   0.89564   0.00000  Uiso   1.00
O611   O     0.09389   0.05044   0.93659   0.00000  Uiso   1.00
O612   O     0.01261   0.06034   0.87958   0.00000  Uiso   1.00
O613   O     0.11338   0.07494   0.84664   0.00000  Uiso   1.00
H614   H     0.10865   0.03719   0.83580   0.00000  Uiso   1.00
N615   N     0.04050   0.08709   0.59527   0.00000  Uiso   1.00
O616   O     0.08871   0.11112   0.61191   0.00000  Uiso   1.00
O617   O     0.03826   0.03675   0.58519   0.00000  Uiso   1.00
N618   N     0.29294   0.24633   0.90471   0.00000  Uiso   1.00
O619   O     0.29529   0.29669   0.91470   0.00000  Uiso   1.00
O620   O     0.24469   0.22234   0.88810   0.00000  Uiso   1.00
O621   O     0.63052   0.24631   0.75310   0.00000  Uiso   1.00
O622   O     0.36948   0.08702   0.74691   0.00000  Uiso   1.00
O623   O     0.39155   0.23702   0.74502   0.00000  Uiso   1.00
O624   O     0.60845   0.09632   0.75499   0.00000  Uiso   1.00
C625   C     0.34838   0.26490   0.74877   0.00000  Uiso   1.00
C626   C     0.65161   0.06843   0.75114   0.00000  Uiso   1.00
O627   O     0.63662   0.17397   0.82247   0.00000  Uiso   1.00
O628   O     0.36338   0.15937   0.67753   0.00000  Uiso   1.00
O629   O     0.39764   0.16467   0.81439   0.00000  Uiso   1.00
O630   O     0.60236   0.16866   0.68561   0.00000  Uiso   1.00
C631   C     0.35397   0.17158   0.84154   0.00000  Uiso   1.00
C632   C     0.64604   0.16176   0.65846   0.00000  Uiso   1.00
Zn633  Zn    0.60366   0.17287   0.75540   0.00000  Uiso   1.00
Zn634  Zn    0.39634   0.16046   0.74461   0.00000  Uiso   1.00
C635   C     0.36279   0.17785   0.89532   0.00000  Uiso   1.00
C636   C     0.63725   0.15551   0.60468   0.00000  Uiso   1.00
C637   C     0.35651   0.22807   0.97361   0.00000  Uiso   1.00
C638   C     0.64358   0.10532   0.52638   0.00000  Uiso   1.00
C639   C     0.33726   0.21696   0.92434   0.00000  Uiso   1.00
C640   C     0.66280   0.11641   0.57566   0.00000  Uiso   1.00
C641   C     0.40426   0.14900   0.91679   0.00000  Uiso   1.00
C642   C     0.59583   0.18440   0.58319   0.00000  Uiso   1.00
C643   C     0.43284   0.16989   0.96133   0.00000  Uiso   1.00
C644   C     0.56730   0.16357   0.53863   0.00000  Uiso   1.00
C645   C     0.40490   0.20598   0.99180   0.00000  Uiso   1.00
C646   C     0.59524   0.12746   0.50816   0.00000  Uiso   1.00
C647   C     0.48871   0.15803   0.97592   0.00000  Uiso   1.00
C648   C     0.51146   0.17546   0.52403   0.00000  Uiso   1.00
C649   C     0.47628   0.20119   0.55698   0.00000  Uiso   1.00
C650   C     0.52388   0.13228   0.94298   0.00000  Uiso   1.00
C651   C     0.42544   0.21918   0.54025   0.00000  Uiso   1.00
C652   C     0.57472   0.11429   0.95970   0.00000  Uiso   1.00
H653   H     0.40194   0.24298   0.56541   0.00000  Uiso   1.00
H654   H     0.59823   0.09049   0.93453   0.00000  Uiso   1.00
H655   H     0.33565   0.25625   0.99679   0.00000  Uiso   1.00
H656   H     0.66444   0.07714   0.50320   0.00000  Uiso   1.00
H657   H     0.48743   0.20772   0.59590   0.00000  Uiso   1.00
H658   H     0.51261   0.12566   0.90409   0.00000  Uiso   1.00
C659   C     0.35618   0.31945   0.74788   0.00000  Uiso   1.00
C660   C     0.64376   0.01386   0.75181   0.00000  Uiso   1.00
H661   H     0.39926   0.00325   0.74402   0.00000  Uiso   1.00
H662   H     0.60067   0.33005   0.75560   0.00000  Uiso   1.00
N663   N     0.48029   0.15216   0.73740   0.00000  Uiso   1.00
N664   N     0.51971   0.18117   0.76261   0.00000  Uiso   1.00
H665   H     0.49561   0.12430   0.71341   0.00000  Uiso   1.00
H666   H     0.50439   0.20902   0.78660   0.00000  Uiso   1.00
S667   S     0.59492   0.25190   0.60402   0.00000  Uiso   1.00
O668   O     0.55832   0.25818   0.64791   0.00000  Uiso   1.00
O669   O     0.65459   0.27310   0.61963   0.00000  Uiso   1.00
O670   O     0.57039   0.28645   0.55803   0.00000  Uiso   1.00
H671   H     0.57592   0.32349   0.57113   0.00000  Uiso   1.00
S672   S     0.40549   0.08160   0.89564   0.00000  Uiso   1.00
O673   O     0.42723   0.05044   0.93659   0.00000  Uiso   1.00
O674   O     0.34594   0.06034   0.87958   0.00000  Uiso   1.00
O675   O     0.44672   0.07494   0.84664   0.00000  Uiso   1.00
H676   H     0.44198   0.03719   0.83580   0.00000  Uiso   1.00
N677   N     0.37383   0.08709   0.59527   0.00000  Uiso   1.00
O678   O     0.42204   0.11112   0.61191   0.00000  Uiso   1.00
O679   O     0.37160   0.03675   0.58519   0.00000  Uiso   1.00
N680   N     0.62628   0.24633   0.90471   0.00000  Uiso   1.00
O681   O     0.62863   0.29669   0.91470   0.00000  Uiso   1.00
O682   O     0.57802   0.22234   0.88810   0.00000  Uiso   1.00
O683   O     0.96386   0.24631   0.75310   0.00000  Uiso   1.00
O684   O     0.70281   0.08702   0.74691   0.00000  Uiso   1.00
O685   O     0.72488   0.23702   0.74502   0.00000  Uiso   1.00
O686   O     0.94178   0.09632   0.75499   0.00000  Uiso   1.00
C687   C     0.68171   0.26490   0.74877   0.00000  Uiso   1.00
C688   C     0.98494   0.06843   0.75114   0.00000  Uiso   1.00
O689   O     0.96995   0.17397   0.82247   0.00000  Uiso   1.00
O690   O     0.69672   0.15937   0.67753   0.00000  Uiso   1.00
O691   O     0.73098   0.16467   0.81439   0.00000  Uiso   1.00
O692   O     0.93569   0.16866   0.68561   0.00000  Uiso   1.00
C693   C     0.68731   0.17158   0.84154   0.00000  Uiso   1.00
C694   C     0.97937   0.16176   0.65846   0.00000  Uiso   1.00
Zn695  Zn    0.93700   0.17287   0.75540   0.00000  Uiso   1.00
Zn696  Zn    0.72967   0.16046   0.74461   0.00000  Uiso   1.00
C697   C     0.69613   0.17785   0.89532   0.00000  Uiso   1.00
C698   C     0.97059   0.15551   0.60468   0.00000  Uiso   1.00
C699   C     0.68984   0.22807   0.97361   0.00000  Uiso   1.00
C700   C     0.97692   0.10532   0.52638   0.00000  Uiso   1.00
C701   C     0.67059   0.21696   0.92434   0.00000  Uiso   1.00
C702   C     0.99614   0.11641   0.57566   0.00000  Uiso   1.00
C703   C     0.73760   0.14900   0.91679   0.00000  Uiso   1.00
C704   C     0.92916   0.18440   0.58319   0.00000  Uiso   1.00
C705   C     0.76618   0.16989   0.96133   0.00000  Uiso   1.00
C706   C     0.90063   0.16357   0.53863   0.00000  Uiso   1.00
C707   C     0.73823   0.20598   0.99180   0.00000  Uiso   1.00
C708   C     0.92857   0.12746   0.50816   0.00000  Uiso   1.00
C709   C     0.82205   0.15803   0.97592   0.00000  Uiso   1.00
C710   C     0.84479   0.17546   0.52403   0.00000  Uiso   1.00
C711   C     0.80961   0.20119   0.55698   0.00000  Uiso   1.00
C712   C     0.85721   0.13228   0.94298   0.00000  Uiso   1.00
C713   C     0.75877   0.21918   0.54025   0.00000  Uiso   1.00
C714   C     0.90806   0.11429   0.95970   0.00000  Uiso   1.00
H715   H     0.73528   0.24298   0.56541   0.00000  Uiso   1.00
H716   H     0.93156   0.09049   0.93453   0.00000  Uiso   1.00
H717   H     0.66898   0.25625   0.99679   0.00000  Uiso   1.00
H718   H     0.99777   0.07714   0.50320   0.00000  Uiso   1.00
H719   H     0.82077   0.20772   0.59590   0.00000  Uiso   1.00
H720   H     0.84595   0.12566   0.90409   0.00000  Uiso   1.00
C721   C     0.68951   0.31945   0.74788   0.00000  Uiso   1.00
C722   C     0.97710   0.01386   0.75181   0.00000  Uiso   1.00
H723   H     0.73259   0.00325   0.74402   0.00000  Uiso   1.00
H724   H     0.93401   0.33005   0.75560   0.00000  Uiso   1.00
N725   N     0.81362   0.15216   0.73740   0.00000  Uiso   1.00
N726   N     0.85305   0.18117   0.76261   0.00000  Uiso   1.00
H727   H     0.82894   0.12430   0.71341   0.00000  Uiso   1.00
H728   H     0.83773   0.20902   0.78660   0.00000  Uiso   1.00
S729   S     0.92825   0.25190   0.60402   0.00000  Uiso   1.00
O730   O     0.89165   0.25818   0.64791   0.00000  Uiso   1.00
O731   O     0.98793   0.27310   0.61963   0.00000  Uiso   1.00
O732   O     0.90372   0.28645   0.55803   0.00000  Uiso   1.00
H733   H     0.90925   0.32349   0.57113   0.00000  Uiso   1.00
S734   S     0.73882   0.08160   0.89564   0.00000  Uiso   1.00
O735   O     0.76056   0.05044   0.93659   0.00000  Uiso   1.00
O736   O     0.67928   0.06034   0.87958   0.00000  Uiso   1.00
O737   O     0.78005   0.07494   0.84664   0.00000  Uiso   1.00
H738   H     0.77531   0.03719   0.83580   0.00000  Uiso   1.00
N739   N     0.70716   0.08709   0.59527   0.00000  Uiso   1.00
O740   O     0.75538   0.11112   0.61191   0.00000  Uiso   1.00
O741   O     0.70493   0.03675   0.58519   0.00000  Uiso   1.00
N742   N     0.95961   0.24633   0.90471   0.00000  Uiso   1.00
O743   O     0.96196   0.29669   0.91470   0.00000  Uiso   1.00
O744   O     0.91136   0.22234   0.88810   0.00000  Uiso   1.00
O745   O     0.29719   0.57964   0.75310   0.00000  Uiso   1.00
O746   O     0.03614   0.42036   0.74691   0.00000  Uiso   1.00
O747   O     0.05822   0.57035   0.74502   0.00000  Uiso   1.00
O748   O     0.27512   0.42965   0.75499   0.00000  Uiso   1.00
C749   C     0.01504   0.59823   0.74877   0.00000  Uiso   1.00
C750   C     0.31827   0.40176   0.75114   0.00000  Uiso   1.00
O751   O     0.30328   0.50730   0.82247   0.00000  Uiso   1.00
O752   O     0.03005   0.49270   0.67753   0.00000  Uiso   1.00
O753   O     0.06431   0.49801   0.81439   0.00000  Uiso   1.00
O754   O     0.26902   0.50199   0.68561   0.00000  Uiso   1.00
C755   C     0.02064   0.50492   0.84154   0.00000  Uiso   1.00
C756   C     0.31270   0.49510   0.65846   0.00000  Uiso   1.00
Zn757  Zn    0.27033   0.50621   0.75540   0.00000  Uiso   1.00
Zn758  Zn    0.06300   0.49379   0.74461   0.00000  Uiso   1.00
C759   C     0.02946   0.51119   0.89532   0.00000  Uiso   1.00
C760   C     0.30392   0.48884   0.60468   0.00000  Uiso   1.00
C761   C     0.02317   0.56140   0.97361   0.00000  Uiso   1.00
C762   C     0.31025   0.43866   0.52638   0.00000  Uiso   1.00
C763   C     0.00392   0.55030   0.92434   0.00000  Uiso   1.00
C764   C     0.32947   0.44974   0.57566   0.00000  Uiso   1.00
C765   C     0.07093   0.48233   0.91679   0.00000  Uiso   1.00
C766   C     0.26249   0.51773   0.58319   0.00000  Uiso   1.00
C767   C     0.09951   0.50322   0.96133   0.00000  Uiso   1.00
C768   C     0.23397   0.49690   0.53863   0.00000  Uiso   1.00
C769   C     0.07156   0.53931   0.99180   0.00000  Uiso   1.00
C770   C     0.26191   0.46080   0.50816   0.00000  Uiso   1.00
C771   C     0.15538   0.49136   0.97592   0.00000  Uiso   1.00
C772   C     0.17812   0.50879   0.52403   0.00000  Uiso   1.00
C773   C     0.14295   0.53453   0.55698   0.00000  Uiso   1.00
C774   C     0.19054   0.46561   0.94298   0.00000  Uiso   1.00
C775   C     0.09211   0.55251   0.54025   0.00000  Uiso   1.00
C776   C     0.24139   0.44763   0.95970   0.00000  Uiso   1.00
H777   H     0.06861   0.57631   0.56541   0.00000  Uiso   1.00
H778   H     0.26490   0.42382   0.93453   0.00000  Uiso   1.00
H779   H     0.00231   0.58958   0.99679   0.00000  Uiso   1.00
H780   H     0.33111   0.41048   0.50320   0.00000  Uiso   1.00
H781   H     0.15410   0.54105   0.59590   0.00000  Uiso   1.00
H782   H     0.17928   0.45900   0.90409   0.00000  Uiso   1.00
C783   C     0.02284   0.65278   0.74788   0.00000  Uiso   1.00
C784   C     0.31043   0.34719   0.75181   0.00000  Uiso   1.00
H785   H     0.06592   0.33658   0.74402   0.00000  Uiso   1.00
H786   H     0.26734   0.66339   0.75560   0.00000  Uiso   1.00
N787   N     0.14695   0.48550   0.73740   0.00000  Uiso   1.00
N788   N     0.18638   0.51450   0.76261   0.00000  Uiso   1.00
H789   H     0.16227   0.45764   0.71341   0.00000  Uiso   1.00
H790   H     0.17106   0.54235   0.78660   0.00000  Uiso   1.00
S791   S     0.26158   0.58523   0.60402   0.00000  Uiso   1.00
O792   O     0.22498   0.59151   0.64791   0.00000  Uiso   1.00
O793   O     0.32126   0.60643   0.61963   0.00000  Uiso   1.00
O794   O     0.23705   0.61978   0.55803   0.00000  Uiso   1.00
H795   H     0.24259   0.65682   0.57113   0.00000  Uiso   1.00
S796   S     0.07215   0.41493   0.89564   0.00000  Uiso   1.00
O797   O     0.09389   0.38377   0.93659   0.00000  Uiso   1.00
O798   O     0.01261   0.39368   0.87958   0.00000  Uiso   1.00
O799   O     0.11338   0.40827   0.84664   0.00000  Uiso   1.00
H800   H     0.10865   0.37053   0.83580   0.00000  Uiso   1.00
N801   N     0.04050   0.42042   0.59527   0.00000  Uiso   1.00
O802   O     0.08871   0.44446   0.61191   0.00000  Uiso   1.00
O803   O     0.03826   0.37008   0.58519   0.00000  Uiso   1.00
N804   N     0.29294   0.57966   0.90471   0.00000  Uiso   1.00
O805   O     0.29529   0.63002   0.91470   0.00000  Uiso   1.00
O806   O     0.24469   0.55568   0.88810   0.00000  Uiso   1.00
O807   O     0.63052   0.57964   0.75310   0.00000  Uiso   1.00
O808   O     0.36948   0.42036   0.74691   0.00000  Uiso   1.00
O809   O     0.39155   0.57035   0.74502   0.00000  Uiso   1.00
O810   O     0.60845   0.42965   0.75499   0.00000  Uiso   1.00
C811   C     0.34838   0.59823   0.74877   0.00000  Uiso   1.00
C812   C     0.65161   0.40176   0.75114   0.00000  Uiso   1.00
O813   O     0.63662   0.50730   0.82247   0.00000  Uiso   1.00
O814   O     0.36338   0.49270   0.67753   0.00000  Uiso   1.00
O815   O     0.39764   0.49801   0.81439   0.00000  Uiso   1.00
O816   O     0.60236   0.50199   0.68561   0.00000  Uiso   1.00
C817   C     0.35397   0.50492   0.84154   0.00000  Uiso   1.00
C818   C     0.64604   0.49510   0.65846   0.00000  Uiso   1.00
Zn819  Zn    0.60366   0.50621   0.75540   0.00000  Uiso   1.00
Zn820  Zn    0.39634   0.49379   0.74461   0.00000  Uiso   1.00
C821   C     0.36279   0.51119   0.89532   0.00000  Uiso   1.00
C822   C     0.63725   0.48884   0.60468   0.00000  Uiso   1.00
C823   C     0.35651   0.56140   0.97361   0.00000  Uiso   1.00
C824   C     0.64358   0.43866   0.52638   0.00000  Uiso   1.00
C825   C     0.33726   0.55030   0.92434   0.00000  Uiso   1.00
C826   C     0.66280   0.44974   0.57566   0.00000  Uiso   1.00
C827   C     0.40426   0.48233   0.91679   0.00000  Uiso   1.00
C828   C     0.59583   0.51773   0.58319   0.00000  Uiso   1.00
C829   C     0.43284   0.50322   0.96133   0.00000  Uiso   1.00
C830   C     0.56730   0.49690   0.53863   0.00000  Uiso   1.00
C831   C     0.40490   0.53931   0.99180   0.00000  Uiso   1.00
C832   C     0.59524   0.46080   0.50816   0.00000  Uiso   1.00
C833   C     0.48871   0.49136   0.97592   0.00000  Uiso   1.00
C834   C     0.51146   0.50879   0.52403   0.00000  Uiso   1.00
C835   C     0.47628   0.53453   0.55698   0.00000  Uiso   1.00
C836   C     0.52388   0.46561   0.94298   0.00000  Uiso   1.00
C837   C     0.42544   0.55251   0.54025   0.00000  Uiso   1.00
C838   C     0.57472   0.44763   0.95970   0.00000  Uiso   1.00
H839   H     0.40194   0.57631   0.56541   0.00000  Uiso   1.00
H840   H     0.59823   0.42382   0.93453   0.00000  Uiso   1.00
H841   H     0.33565   0.58958   0.99679   0.00000  Uiso   1.00
H842   H     0.66444   0.41048   0.50320   0.00000  Uiso   1.00
H843   H     0.48743   0.54105   0.59590   0.00000  Uiso   1.00
H844   H     0.51261   0.45900   0.90409   0.00000  Uiso   1.00
C845   C     0.35618   0.65278   0.74788   0.00000  Uiso   1.00
C846   C     0.64376   0.34719   0.75181   0.00000  Uiso   1.00
H847   H     0.39926   0.33658   0.74402   0.00000  Uiso   1.00
H848   H     0.60067   0.66339   0.75560   0.00000  Uiso   1.00
N849   N     0.48029   0.48550   0.73740   0.00000  Uiso   1.00
N850   N     0.51971   0.51450   0.76261   0.00000  Uiso   1.00
H851   H     0.49561   0.45764   0.71341   0.00000  Uiso   1.00
H852   H     0.50439   0.54235   0.78660   0.00000  Uiso   1.00
S853   S     0.59492   0.58523   0.60402   0.00000  Uiso   1.00
O854   O     0.55832   0.59151   0.64791   0.00000  Uiso   1.00
O855   O     0.65459   0.60643   0.61963   0.00000  Uiso   1.00
O856   O     0.57039   0.61978   0.55803   0.00000  Uiso   1.00
H857   H     0.57592   0.65682   0.57113   0.00000  Uiso   1.00
S858   S     0.40549   0.41493   0.89564   0.00000  Uiso   1.00
O859   O     0.42723   0.38377   0.93659   0.00000  Uiso   1.00
O860   O     0.34594   0.39368   0.87958   0.00000  Uiso   1.00
O861   O     0.44672   0.40827   0.84664   0.00000  Uiso   1.00
H862   H     0.44198   0.37053   0.83580   0.00000  Uiso   1.00
N863   N     0.37383   0.42042   0.59527   0.00000  Uiso   1.00
O864   O     0.42204   0.44446   0.61191   0.00000  Uiso   1.00
O865   O     0.37160   0.37008   0.58519   0.00000  Uiso   1.00
N866   N     0.62628   0.57966   0.90471   0.00000  Uiso   1.00
O867   O     0.62863   0.63002   0.91470   0.00000  Uiso   1.00
O868   O     0.57802   0.55568   0.88810   0.00000  Uiso   1.00
O869   O     0.96386   0.57964   0.75310   0.00000  Uiso   1.00
O870   O     0.70281   0.42036   0.74691   0.00000  Uiso   1.00
O871   O     0.72488   0.57035   0.74502   0.00000  Uiso   1.00
O872   O     0.94178   0.42965   0.75499   0.00000  Uiso   1.00
C873   C     0.68171   0.59823   0.74877   0.00000  Uiso   1.00
C874   C     0.98494   0.40176   0.75114   0.00000  Uiso   1.00
O875   O     0.96995   0.50730   0.82247   0.00000  Uiso   1.00
O876   O     0.69672   0.49270   0.67753   0.00000  Uiso   1.00
O877   O     0.73098   0.49801   0.81439   0.00000  Uiso   1.00
O878   O     0.93569   0.50199   0.68561   0.00000  Uiso   1.00
C879   C     0.68731   0.50492   0.84154   0.00000  Uiso   1.00
C880   C     0.97937   0.49510   0.65846   0.00000  Uiso   1.00
Zn881  Zn    0.93700   0.50621   0.75540   0.00000  Uiso   1.00
Zn882  Zn    0.72967   0.49379   0.74461   0.00000  Uiso   1.00
C883   C     0.69613   0.51119   0.89532   0.00000  Uiso   1.00
C884   C     0.97059   0.48884   0.60468   0.00000  Uiso   1.00
C885   C     0.68984   0.56140   0.97361   0.00000  Uiso   1.00
C886   C     0.97692   0.43866   0.52638   0.00000  Uiso   1.00
C887   C     0.67059   0.55030   0.92434   0.00000  Uiso   1.00
C888   C     0.99614   0.44974   0.57566   0.00000  Uiso   1.00
C889   C     0.73760   0.48233   0.91679   0.00000  Uiso   1.00
C890   C     0.92916   0.51773   0.58319   0.00000  Uiso   1.00
C891   C     0.76618   0.50322   0.96133   0.00000  Uiso   1.00
C892   C     0.90063   0.49690   0.53863   0.00000  Uiso   1.00
C893   C     0.73823   0.53931   0.99180   0.00000  Uiso   1.00
C894   C     0.92857   0.46080   0.50816   0.00000  Uiso   1.00
C895   C     0.82205   0.49136   0.97592   0.00000  Uiso   1.00
C896   C     0.84479   0.50879   0.52403   0.00000  Uiso   1.00
C897   C     0.80961   0.53453   0.55698   0.00000  Uiso   1.00
C898   C     0.85721   0.46561   0.94298   0.00000  Uiso   1.00
C899   C     0.75877   0.55251   0.54025   0.00000  Uiso   1.00
C900   C     0.90806   0.44763   0.95970   0.00000  Uiso   1.00
H901   H     0.73528   0.57631   0.56541   0.00000  Uiso   1.00
H902   H     0.93156   0.42382   0.93453   0.00000  Uiso   1.00
H903   H     0.66898   0.58958   0.99679   0.00000  Uiso   1.00
H904   H     0.99777   0.41048   0.50320   0.00000  Uiso   1.00
H905   H     0.82077   0.54105   0.59590   0.00000  Uiso   1.00
H906   H     0.84595   0.45900   0.90409   0.00000  Uiso   1.00
C907   C     0.68951   0.65278   0.74788   0.00000  Uiso   1.00
C908   C     0.97710   0.34719   0.75181   0.00000  Uiso   1.00
H909   H     0.73259   0.33658   0.74402   0.00000  Uiso   1.00
H910   H     0.93401   0.66339   0.75560   0.00000  Uiso   1.00
N911   N     0.81362   0.48550   0.73740   0.00000  Uiso   1.00
N912   N     0.85305   0.51450   0.76261   0.00000  Uiso   1.00
H913   H     0.82894   0.45764   0.71341   0.00000  Uiso   1.00
H914   H     0.83773   0.54235   0.78660   0.00000  Uiso   1.00
S915   S     0.92825   0.58523   0.60402   0.00000  Uiso   1.00
O916   O     0.89165   0.59151   0.64791   0.00000  Uiso   1.00
O917   O     0.98793   0.60643   0.61963   0.00000  Uiso   1.00
O918   O     0.90372   0.61978   0.55803   0.00000  Uiso   1.00
H919   H     0.90925   0.65682   0.57113   0.00000  Uiso   1.00
S920   S     0.73882   0.41493   0.89564   0.00000  Uiso   1.00
O921   O     0.76056   0.38377   0.93659   0.00000  Uiso   1.00
O922   O     0.67928   0.39368   0.87958   0.00000  Uiso   1.00
O923   O     0.78005   0.40827   0.84664   0.00000  Uiso   1.00
H924   H     0.77531   0.37053   0.83580   0.00000  Uiso   1.00
N925   N     0.70716   0.42042   0.59527   0.00000  Uiso   1.00
O926   O     0.75538   0.44446   0.61191   0.00000  Uiso   1.00
O927   O     0.70493   0.37008   0.58519   0.00000  Uiso   1.00
N928   N     0.95961   0.57966   0.90471   0.00000  Uiso   1.00
O929   O     0.96196   0.63002   0.91470   0.00000  Uiso   1.00
O930   O     0.91136   0.55568   0.88810   0.00000  Uiso   1.00
O931   O     0.29719   0.91298   0.75310   0.00000  Uiso   1.00
O932   O     0.03614   0.75369   0.74691   0.00000  Uiso   1.00
O933   O     0.05822   0.90368   0.74502   0.00000  Uiso   1.00
O934   O     0.27512   0.76298   0.75499   0.00000  Uiso   1.00
C935   C     0.01504   0.93156   0.74877   0.00000  Uiso   1.00
C936   C     0.31827   0.73509   0.75114   0.00000  Uiso   1.00
O937   O     0.30328   0.84063   0.82247   0.00000  Uiso   1.00
O938   O     0.03005   0.82603   0.67753   0.00000  Uiso   1.00
O939   O     0.06431   0.83134   0.81439   0.00000  Uiso   1.00
O940   O     0.26902   0.83533   0.68561   0.00000  Uiso   1.00
C941   C     0.02064   0.83825   0.84154   0.00000  Uiso   1.00
C942   C     0.31270   0.82843   0.65846   0.00000  Uiso   1.00
Zn943  Zn    0.27033   0.83954   0.75540   0.00000  Uiso   1.00
Zn944  Zn    0.06300   0.82713   0.74461   0.00000  Uiso   1.00
C945   C     0.02946   0.84452   0.89532   0.00000  Uiso   1.00
C946   C     0.30392   0.82217   0.60468   0.00000  Uiso   1.00
C947   C     0.02317   0.89474   0.97361   0.00000  Uiso   1.00
C948   C     0.31025   0.77199   0.52638   0.00000  Uiso   1.00
C949   C     0.00392   0.88363   0.92434   0.00000  Uiso   1.00
C950   C     0.32947   0.78307   0.57566   0.00000  Uiso   1.00
C951   C     0.07093   0.81567   0.91679   0.00000  Uiso   1.00
C952   C     0.26249   0.85106   0.58319   0.00000  Uiso   1.00
C953   C     0.09951   0.83655   0.96133   0.00000  Uiso   1.00
C954   C     0.23397   0.83024   0.53863   0.00000  Uiso   1.00
C955   C     0.07156   0.87265   0.99180   0.00000  Uiso   1.00
C956   C     0.26191   0.79413   0.50816   0.00000  Uiso   1.00
C957   C     0.15538   0.82470   0.97592   0.00000  Uiso   1.00
C958   C     0.17812   0.84213   0.52403   0.00000  Uiso   1.00
C959   C     0.14295   0.86786   0.55698   0.00000  Uiso   1.00
C960   C     0.19054   0.79895   0.94298   0.00000  Uiso   1.00
C961   C     0.09211   0.88584   0.54025   0.00000  Uiso   1.00
C962   C     0.24139   0.78096   0.95970   0.00000  Uiso   1.00
H963   H     0.06861   0.90965   0.56541   0.00000  Uiso   1.00
H964   H     0.26490   0.75715   0.93453   0.00000  Uiso   1.00
H965   H     0.00231   0.92291   0.99679   0.00000  Uiso   1.00
H966   H     0.33111   0.74381   0.50320   0.00000  Uiso   1.00
H967   H     0.15410   0.87438   0.59590   0.00000  Uiso   1.00
H968   H     0.17928   0.79233   0.90409   0.00000  Uiso   1.00
C969   C     0.02284   0.98611   0.74788   0.00000  Uiso   1.00
C970   C     0.31043   0.68052   0.75181   0.00000  Uiso   1.00
H971   H     0.06592   0.66991   0.74402   0.00000  Uiso   1.00
H972   H     0.26734   0.99672   0.75560   0.00000  Uiso   1.00
N973   N     0.14695   0.81883   0.73740   0.00000  Uiso   1.00
N974   N     0.18638   0.84784   0.76261   0.00000  Uiso   1.00
H975   H     0.16227   0.79097   0.71341   0.00000  Uiso   1.00
H976   H     0.17106   0.87569   0.78660   0.00000  Uiso   1.00
S977   S     0.26158   0.91857   0.60402   0.00000  Uiso   1.00
O978   O     0.22498   0.92485   0.64791   0.00000  Uiso   1.00
O979   O     0.32126   0.93976   0.61963   0.00000  Uiso   1.00
O980   O     0.23705   0.95312   0.55803   0.00000  Uiso   1.00
H981   H     0.24259   0.99015   0.57113   0.00000  Uiso   1.00
S982   S     0.07215   0.74827   0.89564   0.00000  Uiso   1.00
O983   O     0.09389   0.71711   0.93659   0.00000  Uiso   1.00
O984   O     0.01261   0.72701   0.87958   0.00000  Uiso   1.00
O985   O     0.11338   0.74160   0.84664   0.00000  Uiso   1.00
H986   H     0.10865   0.70386   0.83580   0.00000  Uiso   1.00
N987   N     0.04050   0.75375   0.59527   0.00000  Uiso   1.00
O988   O     0.08871   0.77779   0.61191   0.00000  Uiso   1.00
O989   O     0.03826   0.70342   0.58519   0.00000  Uiso   1.00
N990   N     0.29294   0.91299   0.90471   0.00000  Uiso   1.00
O991   O     0.29529   0.96335   0.91470   0.00000  Uiso   1.00
O992   O     0.24469   0.88901   0.88810   0.00000  Uiso   1.00
O993   O     0.63052   0.91298   0.75310   0.00000  Uiso   1.00
O994   O     0.36948   0.75369   0.74691   0.00000  Uiso   1.00
O995   O     0.39155   0.90368   0.74502   0.00000  Uiso   1.00
O996   O     0.60845   0.76298   0.75499   0.00000  Uiso   1.00
C997   C     0.34838   0.93156   0.74877   0.00000  Uiso   1.00
C998   C     0.65161   0.73509   0.75114   0.00000  Uiso   1.00
O999   O     0.63662   0.84063   0.82247   0.00000  Uiso   1.00
O1000  O     0.36338   0.82603   0.67753   0.00000  Uiso   1.00
O1001  O     0.39764   0.83134   0.81439   0.00000  Uiso   1.00
O1002  O     0.60236   0.83533   0.68561   0.00000  Uiso   1.00
C1003  C     0.35397   0.83825   0.84154   0.00000  Uiso   1.00
C1004  C     0.64604   0.82843   0.65846   0.00000  Uiso   1.00
Zn1005 Zn    0.60366   0.83954   0.75540   0.00000  Uiso   1.00
Zn1006 Zn    0.39634   0.82713   0.74461   0.00000  Uiso   1.00
C1007  C     0.36279   0.84452   0.89532   0.00000  Uiso   1.00
C1008  C     0.63725   0.82217   0.60468   0.00000  Uiso   1.00
C1009  C     0.35651   0.89474   0.97361   0.00000  Uiso   1.00
C1010  C     0.64358   0.77199   0.52638   0.00000  Uiso   1.00
C1011  C     0.33726   0.88363   0.92434   0.00000  Uiso   1.00
C1012  C     0.66280   0.78307   0.57566   0.00000  Uiso   1.00
C1013  C     0.40426   0.81567   0.91679   0.00000  Uiso   1.00
C1014  C     0.59583   0.85106   0.58319   0.00000  Uiso   1.00
C1015  C     0.43284   0.83655   0.96133   0.00000  Uiso   1.00
C1016  C     0.56730   0.83024   0.53863   0.00000  Uiso   1.00
C1017  C     0.40490   0.87265   0.99180   0.00000  Uiso   1.00
C1018  C     0.59524   0.79413   0.50816   0.00000  Uiso   1.00
C1019  C     0.48871   0.82470   0.97592   0.00000  Uiso   1.00
C1020  C     0.51146   0.84213   0.52403   0.00000  Uiso   1.00
C1021  C     0.47628   0.86786   0.55698   0.00000  Uiso   1.00
C1022  C     0.52388   0.79895   0.94298   0.00000  Uiso   1.00
C1023  C     0.42544   0.88584   0.54025   0.00000  Uiso   1.00
C1024  C     0.57472   0.78096   0.95970   0.00000  Uiso   1.00
H1025  H     0.40194   0.90965   0.56541   0.00000  Uiso   1.00
H1026  H     0.59823   0.75715   0.93453   0.00000  Uiso   1.00
H1027  H     0.33565   0.92291   0.99679   0.00000  Uiso   1.00
H1028  H     0.66444   0.74381   0.50320   0.00000  Uiso   1.00
H1029  H     0.48743   0.87438   0.59590   0.00000  Uiso   1.00
H1030  H     0.51261   0.79233   0.90409   0.00000  Uiso   1.00
C1031  C     0.35618   0.98611   0.74788   0.00000  Uiso   1.00
C1032  C     0.64376   0.68052   0.75181   0.00000  Uiso   1.00
H1033  H     0.39926   0.66991   0.74402   0.00000  Uiso   1.00
H1034  H     0.60067   0.99672   0.75560   0.00000  Uiso   1.00
N1035  N     0.48029   0.81883   0.73740   0.00000  Uiso   1.00
N1036  N     0.51971   0.84784   0.76261   0.00000  Uiso   1.00
H1037  H     0.49561   0.79097   0.71341   0.00000  Uiso   1.00
H1038  H     0.50439   0.87569   0.78660   0.00000  Uiso   1.00
S1039  S     0.59492   0.91857   0.60402   0.00000  Uiso   1.00
O1040  O     0.55832   0.92485   0.64791   0.00000  Uiso   1.00
O1041  O     0.65459   0.93976   0.61963   0.00000  Uiso   1.00
O1042  O     0.57039   0.95312   0.55803   0.00000  Uiso   1.00
H1043  H     0.57592   0.99015   0.57113   0.00000  Uiso   1.00
S1044  S     0.40549   0.74827   0.89564   0.00000  Uiso   1.00
O1045  O     0.42723   0.71711   0.93659   0.00000  Uiso   1.00
O1046  O     0.34594   0.72701   0.87958   0.00000  Uiso   1.00
O1047  O     0.44672   0.74160   0.84664   0.00000  Uiso   1.00
H1048  H     0.44198   0.70386   0.83580   0.00000  Uiso   1.00
N1049  N     0.37383   0.75375   0.59527   0.00000  Uiso   1.00
O1050  O     0.42204   0.77779   0.61191   0.00000  Uiso   1.00
O1051  O     0.37160   0.70342   0.58519   0.00000  Uiso   1.00
N1052  N     0.62628   0.91299   0.90471   0.00000  Uiso   1.00
O1053  O     0.62863   0.96335   0.91470   0.00000  Uiso   1.00
O1054  O     0.57802   0.88901   0.88810   0.00000  Uiso   1.00
O1055  O     0.96386   0.91298   0.75310   0.00000  Uiso   1.00
O1056  O     0.70281   0.75369   0.74691   0.00000  Uiso   1.00
O1057  O     0.72488   0.90368   0.74502   0.00000  Uiso   1.00
O1058  O     0.94178   0.76298   0.75499   0.00000  Uiso   1.00
C1059  C     0.68171   0.93156   0.74877   0.00000  Uiso   1.00
C1060  C     0.98494   0.73509   0.75114   0.00000  Uiso   1.00
O1061  O     0.96995   0.84063   0.82247   0.00000  Uiso   1.00
O1062  O     0.69672   0.82603   0.67753   0.00000  Uiso   1.00
O1063  O     0.73098   0.83134   0.81439   0.00000  Uiso   1.00
O1064  O     0.93569   0.83533   0.68561   0.00000  Uiso   1.00
C1065  C     0.68731   0.83825   0.84154   0.00000  Uiso   1.00
C1066  C     0.97937   0.82843   0.65846   0.00000  Uiso   1.00
Zn1067 Zn    0.93700   0.83954   0.75540   0.00000  Uiso   1.00
Zn1068 Zn    0.72967   0.82713   0.74461   0.00000  Uiso   1.00
C1069  C     0.69613   0.84452   0.89532   0.00000  Uiso   1.00
C1070  C     0.97059   0.82217   0.60468   0.00000  Uiso   1.00
C1071  C     0.68984   0.89474   0.97361   0.00000  Uiso   1.00
C1072  C     0.97692   0.77199   0.52638   0.00000  Uiso   1.00
C1073  C     0.67059   0.88363   0.92434   0.00000  Uiso   1.00
C1074  C     0.99614   0.78307   0.57566   0.00000  Uiso   1.00
C1075  C     0.73760   0.81567   0.91679   0.00000  Uiso   1.00
C1076  C     0.92916   0.85106   0.58319   0.00000  Uiso   1.00
C1077  C     0.76618   0.83655   0.96133   0.00000  Uiso   1.00
C1078  C     0.90063   0.83024   0.53863   0.00000  Uiso   1.00
C1079  C     0.73823   0.87265   0.99180   0.00000  Uiso   1.00
C1080  C     0.92857   0.79413   0.50816   0.00000  Uiso   1.00
C1081  C     0.82205   0.82470   0.97592   0.00000  Uiso   1.00
C1082  C     0.84479   0.84213   0.52403   0.00000  Uiso   1.00
C1083  C     0.80961   0.86786   0.55698   0.00000  Uiso   1.00
C1084  C     0.85721   0.79895   0.94298   0.00000  Uiso   1.00
C1085  C     0.75877   0.88584   0.54025   0.00000  Uiso   1.00
C1086  C     0.90806   0.78096   0.95970   0.00000  Uiso   1.00
H1087  H     0.73528   0.90965   0.56541   0.00000  Uiso   1.00
H1088  H     0.93156   0.75715   0.93453   0.00000  Uiso   1.00
H1089  H     0.66898   0.92291   0.99679   0.00000  Uiso   1.00
H1090  H     0.99777   0.74381   0.50320   0.00000  Uiso   1.00
H1091  H     0.82077   0.87438   0.59590   0.00000  Uiso   1.00
H1092  H     0.84595   0.79233   0.90409   0.00000  Uiso   1.00
C1093  C     0.68951   0.98611   0.74788   0.00000  Uiso   1.00
C1094  C     0.97710   0.68052   0.75181   0.00000  Uiso   1.00
H1095  H     0.73259   0.66991   0.74402   0.00000  Uiso   1.00
H1096  H     0.93401   0.99672   0.75560   0.00000  Uiso   1.00
N1097  N     0.81362   0.81883   0.73740   0.00000  Uiso   1.00
N1098  N     0.85305   0.84784   0.76261   0.00000  Uiso   1.00
H1099  H     0.82894   0.79097   0.71341   0.00000  Uiso   1.00
H1100  H     0.83773   0.87569   0.78660   0.00000  Uiso   1.00
S1101  S     0.92825   0.91857   0.60402   0.00000  Uiso   1.00
O1102  O     0.89165   0.92485   0.64791   0.00000  Uiso   1.00
O1103  O     0.98793   0.93976   0.61963   0.00000  Uiso   1.00
O1104  O     0.90372   0.95312   0.55803   0.00000  Uiso   1.00
H1105  H     0.90925   0.99015   0.57113   0.00000  Uiso   1.00
S1106  S     0.73882   0.74827   0.89564   0.00000  Uiso   1.00
O1107  O     0.76056   0.71711   0.93659   0.00000  Uiso   1.00
O1108  O     0.67928   0.72701   0.87958   0.00000  Uiso   1.00
O1109  O     0.78005   0.74160   0.84664   0.00000  Uiso   1.00
H1110  H     0.77531   0.70386   0.83580   0.00000  Uiso   1.00
N1111  N     0.70716   0.75375   0.59527   0.00000  Uiso   1.00
O1112  O     0.75538   0.77779   0.61191   0.00000  Uiso   1.00
O1113  O     0.70493   0.70342   0.58519   0.00000  Uiso   1.00
N1114  N     0.95961   0.91299   0.90471   0.00000  Uiso   1.00
O1115  O     0.96196   0.96335   0.91470   0.00000  Uiso   1.00
O1116  O     0.91136   0.88901   0.88810   0.00000  Uiso   1.00
loop_
_geom_bond_atom_site_label_1
_geom_bond_atom_site_label_2
_geom_bond_distance
_geom_bond_site_symmetry_2
_ccdc_geom_bond_type
O1     Zn13    1.951   .     S
O1     C67     1.276   .     S
O2     Zn14    1.951   .     S
O2     C130    1.276   1_455 S
O3     Zn14    1.978   .     S
O3     C5      1.289   .     A
O4     C6      1.289   .     A
O4     Zn13    1.978   .     S
C5     C39     1.402   .     S
C5     O125    1.276   1_455 S
C6     C40     1.402   .     S
C6     O64     1.276   .     S
O7     Zn13    1.942   .     S
O7     C73     1.287   .     S
O8     Zn14    1.942   .     S
O8     C136    1.287   1_455 S
O9     Zn14    1.883   .     S
O9     C11     1.304   .     A
O10    C12     1.304   .     A
O10    Zn13    1.883   .     S
C11    C15     1.458   .     S
C11    O131    1.287   1_455 S
C12    C16     1.458   .     S
C12    O70     1.287   .     S
Zn13   N44     2.020   .     S
Zn14   N43     2.020   .     S
C15    C19     1.418   .     A
C15    C21     1.398   .     A
C16    C20     1.418   .     A
C16    C22     1.398   .     A
C17    C25     1.395   .     A
C17    C19     1.395   .     A
C17    H35     1.085   .     S
C18    C26     1.395   .     A
C18    C20     1.395   .     A
C18    H36     1.085   .     S
C19    N184    1.436   1_455 S
C20    N119    1.436   .     S
C21    C23     1.410   .     A
C21    S52     1.790   .     S
C22    S47     1.790   .     S
C22    C24     1.409   .     A
C23    C27     1.418   .     A
C23    C25     1.416   .     A
C24    C26     1.416   .     A
C24    C28     1.417   .     A
C25    C589    1.390   .     S
C26    C590    1.390   1_554 S
C27    C30     1.408   .     A
C27    C586    1.418   .     S
C28    C29     1.408   .     A
C28    C585    1.418   1_554 S
C29    H37     1.074   .     S
C29    C31     1.384   .     A
C30    C32     1.384   .     A
C30    H38     1.074   .     S
C31    H33     1.082   .     S
C31    C583    1.390   1_554 S
C32    H34     1.082   .     S
C32    C584    1.390   .     S
C39    C350    1.338   1_455 S
C39    H227    1.088   .     S
C40    C473    1.338   1_545 S
C40    H414    1.088   1_545 S
H41    C411    1.088   1_545 S
H42    C226    1.088   .     S
N43    H45     1.029   .     S
N43    N44     1.289   .     D
N44    H46     1.029   .     S
S47    O48     1.503   .     D
S47    O49     1.502   .     D
S47    O50     1.683   .     S
O50    H51     0.991   .     S
S52    O55     1.683   .     S
S52    O53     1.504   .     D
S52    O54     1.503   .     D
O55    H56     0.991   .     S
N57    O58     1.300   .     A
N57    O59     1.301   .     A
N57    C144    1.436   1_455 S
N60    O61     1.301   .     A
N60    O62     1.300   .     A
N60    C81     1.436   .     S
O63    Zn75    1.951   .     S
O63    C129    1.276   .     S
O64    Zn76    1.951   .     S
O65    Zn76    1.978   .     S
O65    C67     1.289   .     A
O66    C68     1.289   .     A
O66    Zn75    1.978   .     S
C67    C101    1.402   .     S
C68    C102    1.402   .     S
C68    O126    1.276   .     S
O69    Zn75    1.942   .     S
O69    C135    1.287   .     S
O70    Zn76    1.942   .     S
O71    Zn76    1.883   .     S
O71    C73     1.304   .     A
O72    C74     1.304   .     A
O72    Zn75    1.883   .     S
C73    C77     1.458   .     S
C74    C78     1.458   .     S
C74    O132    1.287   .     S
Zn75   N106    2.020   .     S
Zn76   N105    2.020   .     S
C77    C81     1.418   .     A
C77    C83     1.398   .     A
C78    C82     1.418   .     A
C78    C84     1.398   .     A
C79    C87     1.395   .     A
C79    C81     1.395   .     A
C79    H97     1.085   .     S
C80    C88     1.395   .     A
C80    C82     1.395   .     A
C80    H98     1.085   .     S
C82    N181    1.436   .     S
C83    C85     1.410   .     A
C83    S114    1.790   .     S
C84    S109    1.790   .     S
C84    C86     1.409   .     A
C85    C89     1.418   .     A
C85    C87     1.416   .     A
C86    C88     1.416   .     A
C86    C90     1.417   .     A
C87    C651    1.390   .     S
C88    C652    1.390   1_554 S
C89    C92     1.408   .     A
C89    C648    1.418   .     S
C90    C91     1.408   .     A
C90    C647    1.418   1_554 S
C91    H99     1.074   .     S
C91    C93     1.384   .     A
C92    C94     1.384   .     A
C92    H100    1.074   .     S
C93    H95     1.082   .     S
C93    C645    1.390   1_554 S
C94    H96     1.082   .     S
C94    C646    1.390   .     S
C101   C226    1.338   .     S
C101   H289    1.088   .     S
C102   C535    1.338   1_545 S
C102   H476    1.088   1_545 S
H103   C473    1.088   1_545 S
H104   C288    1.088   .     S
N105   H107    1.029   .     S
N105   N106    1.289   .     D
N106   H108    1.029   .     S
S109   O110    1.503   .     D
S109   O111    1.502   .     D
S109   O112    1.683   .     S
O112   H113    0.991   .     S
S114   O117    1.683   .     S
S114   O115    1.504   .     D
S114   O116    1.503   .     D
O117   H118    0.991   .     S
N119   O120    1.300   .     A
N119   O121    1.301   .     A
N122   O123    1.301   .     A
N122   O124    1.300   .     A
N122   C143    1.436   .     S
O125   Zn137   1.951   .     S
O125   C5      1.276   1_655 S
O126   Zn138   1.951   .     S
O127   Zn138   1.978   .     S
O127   C129    1.289   .     A
O128   C130    1.289   .     A
O128   Zn137   1.978   .     S
C129   C163    1.402   .     S
C130   C164    1.402   .     S
C130   O2      1.276   1_655 S
O131   Zn137   1.942   .     S
O131   C11     1.287   1_655 S
O132   Zn138   1.942   .     S
O133   Zn138   1.883   .     S
O133   C135    1.304   .     A
O134   C136    1.304   .     A
O134   Zn137   1.883   .     S
C135   C139    1.458   .     S
C136   C140    1.458   .     S
C136   O8      1.287   1_655 S
Zn137  N168    2.020   .     S
Zn138  N167    2.020   .     S
C139   C143    1.418   .     A
C139   C145    1.398   .     A
C140   C144    1.418   .     A
C140   C146    1.398   .     A
C141   C149    1.395   .     A
C141   C143    1.395   .     A
C141   H159    1.085   .     S
C142   C150    1.395   .     A
C142   C144    1.395   .     A
C142   H160    1.085   .     S
C144   N57     1.436   1_655 S
C145   C147    1.410   .     A
C145   S176    1.790   .     S
C146   S171    1.790   .     S
C146   C148    1.409   .     A
C147   C151    1.418   .     A
C147   C149    1.416   .     A
C148   C150    1.416   .     A
C148   C152    1.417   .     A
C149   C713    1.390   .     S
C150   C714    1.390   1_554 S
C151   C154    1.408   .     A
C151   C710    1.418   .     S
C152   C153    1.408   .     A
C152   C709    1.418   1_554 S
C153   H161    1.074   .     S
C153   C155    1.384   .     A
C154   C156    1.384   .     A
C154   H162    1.074   .     S
C155   H157    1.082   .     S
C155   C707    1.390   1_554 S
C156   H158    1.082   .     S
C156   C708    1.390   .     S
C163   C288    1.338   .     S
C163   H351    1.088   .     S
C164   C411    1.338   1_645 S
C164   H538    1.088   1_545 S
H165   C535    1.088   1_545 S
H166   C350    1.088   .     S
N167   H169    1.029   .     S
N167   N168    1.289   .     D
N168   H170    1.029   .     S
S171   O172    1.503   .     D
S171   O173    1.502   .     D
S171   O174    1.683   .     S
O174   H175    0.991   .     S
S176   O179    1.683   .     S
S176   O177    1.504   .     D
S176   O178    1.503   .     D
O179   H180    0.991   .     S
N181   O182    1.300   .     A
N181   O183    1.301   .     A
N184   O185    1.301   .     A
N184   O186    1.300   .     A
N184   C19     1.436   1_655 S
O187   Zn199   1.951   .     S
O187   C253    1.276   .     S
O188   Zn200   1.951   .     S
O188   C316    1.276   1_455 S
O189   Zn200   1.978   .     S
O189   C191    1.289   .     A
O190   C192    1.289   .     A
O190   Zn199   1.978   .     S
C191   C225    1.402   .     S
C191   O311    1.276   1_455 S
C192   C226    1.402   .     S
C192   O250    1.276   .     S
O193   Zn199   1.942   .     S
O193   C259    1.287   .     S
O194   Zn200   1.942   .     S
O194   C322    1.287   1_455 S
O195   Zn200   1.883   .     S
O195   C197    1.304   .     A
O196   C198    1.304   .     A
O196   Zn199   1.883   .     S
C197   C201    1.458   .     S
C197   O317    1.287   1_455 S
C198   C202    1.458   .     S
C198   O256    1.287   .     S
Zn199  N230    2.020   .     S
Zn200  N229    2.020   .     S
C201   C205    1.418   .     A
C201   C207    1.398   .     A
C202   C206    1.418   .     A
C202   C208    1.398   .     A
C203   C211    1.395   .     A
C203   C205    1.395   .     A
C203   H221    1.085   .     S
C204   C212    1.395   .     A
C204   C206    1.395   .     A
C204   H222    1.085   .     S
C205   N370    1.436   1_455 S
C206   N305    1.436   .     S
C207   C209    1.410   .     A
C207   S238    1.790   .     S
C208   S233    1.790   .     S
C208   C210    1.409   .     A
C209   C213    1.418   .     A
C209   C211    1.416   .     A
C210   C212    1.416   .     A
C210   C214    1.417   .     A
C211   C775    1.390   .     S
C212   C776    1.390   1_554 S
C213   C216    1.408   .     A
C213   C772    1.418   .     S
C214   C215    1.408   .     A
C214   C771    1.418   1_554 S
C215   H223    1.074   .     S
C215   C217    1.384   .     A
C216   C218    1.384   .     A
C216   H224    1.074   .     S
C217   H219    1.082   .     S
C217   C769    1.390   1_554 S
C218   H220    1.082   .     S
C218   C770    1.390   .     S
C225   C536    1.338   1_455 S
C225   H413    1.088   .     S
H228   C412    1.088   .     S
N229   H231    1.029   .     S
N229   N230    1.289   .     D
N230   H232    1.029   .     S
S233   O234    1.503   .     D
S233   O235    1.502   .     D
S233   O236    1.683   .     S
O236   H237    0.991   .     S
S238   O241    1.683   .     S
S238   O239    1.504   .     D
S238   O240    1.503   .     D
O241   H242    0.991   .     S
N243   O244    1.300   .     A
N243   O245    1.301   .     A
N243   C330    1.436   1_455 S
N246   O247    1.301   .     A
N246   O248    1.300   .     A
N246   C267    1.436   .     S
O249   Zn261   1.951   .     S
O249   C315    1.276   .     S
O250   Zn262   1.951   .     S
O251   Zn262   1.978   .     S
O251   C253    1.289   .     A
O252   C254    1.289   .     A
O252   Zn261   1.978   .     S
C253   C287    1.402   .     S
C254   C288    1.402   .     S
C254   O312    1.276   .     S
O255   Zn261   1.942   .     S
O255   C321    1.287   .     S
O256   Zn262   1.942   .     S
O257   Zn262   1.883   .     S
O257   C259    1.304   .     A
O258   C260    1.304   .     A
O258   Zn261   1.883   .     S
C259   C263    1.458   .     S
C260   C264    1.458   .     S
C260   O318    1.287   .     S
Zn261  N292    2.020   .     S
Zn262  N291    2.020   .     S
C263   C267    1.418   .     A
C263   C269    1.398   .     A
C264   C268    1.418   .     A
C264   C270    1.398   .     A
C265   C273    1.395   .     A
C265   C267    1.395   .     A
C265   H283    1.085   .     S
C266   C274    1.395   .     A
C266   C268    1.395   .     A
C266   H284    1.085   .     S
C268   N367    1.436   .     S
C269   C271    1.410   .     A
C269   S300    1.790   .     S
C270   S295    1.790   .     S
C270   C272    1.409   .     A
C271   C275    1.418   .     A
C271   C273    1.416   .     A
C272   C274    1.416   .     A
C272   C276    1.417   .     A
C273   C837    1.390   .     S
C274   C838    1.390   1_554 S
C275   C278    1.408   .     A
C275   C834    1.418   .     S
C276   C277    1.408   .     A
C276   C833    1.418   1_554 S
C277   H285    1.074   .     S
C277   C279    1.384   .     A
C278   C280    1.384   .     A
C278   H286    1.074   .     S
C279   H281    1.082   .     S
C279   C831    1.390   1_554 S
C280   H282    1.082   .     S
C280   C832    1.390   .     S
C287   C412    1.338   .     S
C287   H475    1.088   .     S
H290   C474    1.088   .     S
N291   H293    1.029   .     S
N291   N292    1.289   .     D
N292   H294    1.029   .     S
S295   O296    1.503   .     D
S295   O297    1.502   .     D
S295   O298    1.683   .     S
O298   H299    0.991   .     S
S300   O303    1.683   .     S
S300   O301    1.504   .     D
S300   O302    1.503   .     D
O303   H304    0.991   .     S
N305   O306    1.300   .     A
N305   O307    1.301   .     A
N308   O309    1.301   .     A
N308   O310    1.300   .     A
N308   C329    1.436   .     S
O311   Zn323   1.951   .     S
O311   C191    1.276   1_655 S
O312   Zn324   1.951   .     S
O313   Zn324   1.978   .     S
O313   C315    1.289   .     A
O314   C316    1.289   .     A
O314   Zn323   1.978   .     S
C315   C349    1.402   .     S
C316   C350    1.402   .     S
C316   O188    1.276   1_655 S
O317   Zn323   1.942   .     S
O317   C197    1.287   1_655 S
O318   Zn324   1.942   .     S
O319   Zn324   1.883   .     S
O319   C321    1.304   .     A
O320   C322    1.304   .     A
O320   Zn323   1.883   .     S
C321   C325    1.458   .     S
C322   C326    1.458   .     S
C322   O194    1.287   1_655 S
Zn323  N354    2.020   .     S
Zn324  N353    2.020   .     S
C325   C329    1.418   .     A
C325   C331    1.398   .     A
C326   C330    1.418   .     A
C326   C332    1.398   .     A
C327   C335    1.395   .     A
C327   C329    1.395   .     A
C327   H345    1.085   .     S
C328   C336    1.395   .     A
C328   C330    1.395   .     A
C328   H346    1.085   .     S
C330   N243    1.436   1_655 S
C331   C333    1.410   .     A
C331   S362    1.790   .     S
C332   S357    1.790   .     S
C332   C334    1.409   .     A
C333   C337    1.418   .     A
C333   C335    1.416   .     A
C334   C336    1.416   .     A
C334   C338    1.417   .     A
C335   C899    1.390   .     S
C336   C900    1.390   1_554 S
C337   C340    1.408   .     A
C337   C896    1.418   .     S
C338   C339    1.408   .     A
C338   C895    1.418   1_554 S
C339   H347    1.074   .     S
C339   C341    1.384   .     A
C340   C342    1.384   .     A
C340   H348    1.074   .     S
C341   H343    1.082   .     S
C341   C893    1.390   1_554 S
C342   H344    1.082   .     S
C342   C894    1.390   .     S
C349   C474    1.338   .     S
C349   H537    1.088   .     S
C350   C39     1.338   1_655 S
H352   C536    1.088   .     S
N353   H355    1.029   .     S
N353   N354    1.289   .     D
N354   H356    1.029   .     S
S357   O358    1.503   .     D
S357   O359    1.502   .     D
S357   O360    1.683   .     S
O360   H361    0.991   .     S
S362   O365    1.683   .     S
S362   O363    1.504   .     D
S362   O364    1.503   .     D
O365   H366    0.991   .     S
N367   O368    1.300   .     A
N367   O369    1.301   .     A
N370   O371    1.301   .     A
N370   O372    1.300   .     A
N370   C205    1.436   1_655 S
O373   Zn385   1.951   .     S
O373   C439    1.276   .     S
O374   Zn386   1.951   .     S
O374   C502    1.276   1_455 S
O375   Zn386   1.978   .     S
O375   C377    1.289   .     A
O376   C378    1.289   .     A
O376   Zn385   1.978   .     S
C377   C411    1.402   .     S
C377   O497    1.276   1_455 S
C378   C412    1.402   .     S
C378   O436    1.276   .     S
O379   Zn385   1.942   .     S
O379   C445    1.287   .     S
O380   Zn386   1.942   .     S
O380   C508    1.287   1_455 S
O381   Zn386   1.883   .     S
O381   C383    1.304   .     A
O382   C384    1.304   .     A
O382   Zn385   1.883   .     S
C383   C387    1.458   .     S
C383   O503    1.287   1_455 S
C384   C388    1.458   .     S
C384   O442    1.287   .     S
Zn385  N416    2.020   .     S
Zn386  N415    2.020   .     S
C387   C391    1.418   .     A
C387   C393    1.398   .     A
C388   C392    1.418   .     A
C388   C394    1.398   .     A
C389   C397    1.395   .     A
C389   C391    1.395   .     A
C389   H407    1.085   .     S
C390   C398    1.395   .     A
C390   C392    1.395   .     A
C390   H408    1.085   .     S
C391   N556    1.436   1_455 S
C392   N491    1.436   .     S
C393   C395    1.410   .     A
C393   S424    1.790   .     S
C394   S419    1.790   .     S
C394   C396    1.409   .     A
C395   C399    1.418   .     A
C395   C397    1.416   .     A
C396   C398    1.416   .     A
C396   C400    1.417   .     A
C397   C961    1.390   .     S
C398   C962    1.390   1_554 S
C399   C402    1.408   .     A
C399   C958    1.418   .     S
C400   C401    1.408   .     A
C400   C957    1.418   1_554 S
C401   H409    1.074   .     S
C401   C403    1.384   .     A
C402   C404    1.384   .     A
C402   H410    1.074   .     S
C403   H405    1.082   .     S
C403   C955    1.390   1_554 S
C404   H406    1.082   .     S
C404   C956    1.390   .     S
C411   C164    1.338   1_465 S
C411   H41     1.088   1_565 S
H414   C40     1.088   1_565 S
N415   H417    1.029   .     S
N415   N416    1.289   .     D
N416   H418    1.029   .     S
S419   O420    1.503   .     D
S419   O421    1.502   .     D
S419   O422    1.683   .     S
O422   H423    0.991   .     S
S424   O427    1.683   .     S
S424   O425    1.504   .     D
S424   O426    1.503   .     D
O427   H428    0.991   .     S
N429   O430    1.300   .     A
N429   O431    1.301   .     A
N429   C516    1.436   1_455 S
N432   O433    1.301   .     A
N432   O434    1.300   .     A
N432   C453    1.436   .     S
O435   Zn447   1.951   .     S
O435   C501    1.276   .     S
O436   Zn448   1.951   .     S
O437   Zn448   1.978   .     S
O437   C439    1.289   .     A
O438   C440    1.289   .     A
O438   Zn447   1.978   .     S
C439   C473    1.402   .     S
C440   C474    1.402   .     S
C440   O498    1.276   .     S
O441   Zn447   1.942   .     S
O441   C507    1.287   .     S
O442   Zn448   1.942   .     S
O443   Zn448   1.883   .     S
O443   C445    1.304   .     A
O444   C446    1.304   .     A
O444   Zn447   1.883   .     S
C445   C449    1.458   .     S
C446   C450    1.458   .     S
C446   O504    1.287   .     S
Zn447  N478    2.020   .     S
Zn448  N477    2.020   .     S
C449   C453    1.418   .     A
C449   C455    1.398   .     A
C450   C454    1.418   .     A
C450   C456    1.398   .     A
C451   C459    1.395   .     A
C451   C453    1.395   .     A
C451   H469    1.085   .     S
C452   C460    1.395   .     A
C452   C454    1.395   .     A
C452   H470    1.085   .     S
C454   N553    1.436   .     S
C455   C457    1.410   .     A
C455   S486    1.790   .     S
C456   S481    1.790   .     S
C456   C458    1.409   .     A
C457   C461    1.418   .     A
C457   C459    1.416   .     A
C458   C460    1.416   .     A
C458   C462    1.417   .     A
C459   C1023   1.390   .     S
C460   C1024   1.390   1_554 S
C461   C464    1.408   .     A
C461   C1020   1.418   .     S
C462   C463    1.408   .     A
C462   C1019   1.418   1_554 S
C463   H471    1.074   .     S
C463   C465    1.384   .     A
C464   C466    1.384   .     A
C464   H472    1.074   .     S
C465   H467    1.082   .     S
C465   C1017   1.390   1_554 S
C466   H468    1.082   .     S
C466   C1018   1.390   .     S
C473   C40     1.338   1_565 S
C473   H103    1.088   1_565 S
H476   C102    1.088   1_565 S
N477   H479    1.029   .     S
N477   N478    1.289   .     D
N478   H480    1.029   .     S
S481   O482    1.503   .     D
S481   O483    1.502   .     D
S481   O484    1.683   .     S
O484   H485    0.991   .     S
S486   O489    1.683   .     S
S486   O487    1.504   .     D
S486   O488    1.503   .     D
O489   H490    0.991   .     S
N491   O492    1.300   .     A
N491   O493    1.301   .     A
N494   O495    1.301   .     A
N494   O496    1.300   .     A
N494   C515    1.436   .     S
O497   Zn509   1.951   .     S
O497   C377    1.276   1_655 S
O498   Zn510   1.951   .     S
O499   Zn510   1.978   .     S
O499   C501    1.289   .     A
O500   C502    1.289   .     A
O500   Zn509   1.978   .     S
C501   C535    1.402   .     S
C502   C536    1.402   .     S
C502   O374    1.276   1_655 S
O503   Zn509   1.942   .     S
O503   C383    1.287   1_655 S
O504   Zn510   1.942   .     S
O505   Zn510   1.883   .     S
O505   C507    1.304   .     A
O506   C508    1.304   .     A
O506   Zn509   1.883   .     S
C507   C511    1.458   .     S
C508   C512    1.458   .     S
C508   O380    1.287   1_655 S
Zn509  N540    2.020   .     S
Zn510  N539    2.020   .     S
C511   C515    1.418   .     A
C511   C517    1.398   .     A
C512   C516    1.418   .     A
C512   C518    1.398   .     A
C513   C521    1.395   .     A
C513   C515    1.395   .     A
C513   H531    1.085   .     S
C514   C522    1.395   .     A
C514   C516    1.395   .     A
C514   H532    1.085   .     S
C516   N429    1.436   1_655 S
C517   C519    1.410   .     A
C517   S548    1.790   .     S
C518   S543    1.790   .     S
C518   C520    1.409   .     A
C519   C523    1.418   .     A
C519   C521    1.416   .     A
C520   C522    1.416   .     A
C520   C524    1.417   .     A
C521   C1085   1.390   .     S
C522   C1086   1.390   1_554 S
C523   C526    1.408   .     A
C523   C1082   1.418   .     S
C524   C525    1.408   .     A
C524   C1081   1.418   1_554 S
C525   H533    1.074   .     S
C525   C527    1.384   .     A
C526   C528    1.384   .     A
C526   H534    1.074   .     S
C527   H529    1.082   .     S
C527   C1079   1.390   1_554 S
C528   H530    1.082   .     S
C528   C1080   1.390   .     S
C535   C102    1.338   1_565 S
C535   H165    1.088   1_565 S
C536   C225    1.338   1_655 S
H538   C164    1.088   1_565 S
N539   H541    1.029   .     S
N539   N540    1.289   .     D
N540   H542    1.029   .     S
S543   O544    1.503   .     D
S543   O545    1.502   .     D
S543   O546    1.683   .     S
O546   H547    0.991   .     S
S548   O551    1.683   .     S
S548   O549    1.504   .     D
S548   O550    1.503   .     D
O551   H552    0.991   .     S
N553   O554    1.300   .     A
N553   O555    1.301   .     A
N556   O557    1.301   .     A
N556   O558    1.300   .     A
N556   C391    1.436   1_655 S
O559   Zn571   1.951   .     S
O559   C625    1.276   .     S
O560   Zn572   1.951   .     S
O560   C688    1.276   1_455 S
O561   Zn572   1.978   .     S
O561   C563    1.289   .     A
O562   C564    1.289   .     A
O562   Zn571   1.978   .     S
C563   C597    1.402   .     S
C563   O683    1.276   1_455 S
C564   C598    1.402   .     S
C564   O622    1.276   .     S
O565   Zn571   1.942   .     S
O565   C631    1.287   .     S
O566   Zn572   1.942   .     S
O566   C694    1.287   1_455 S
O567   Zn572   1.883   .     S
O567   C569    1.304   .     A
O568   C570    1.304   .     A
O568   Zn571   1.883   .     S
C569   C573    1.458   .     S
C569   O689    1.287   1_455 S
C570   C574    1.458   .     S
C570   O628    1.287   .     S
Zn571  N602    2.020   .     S
Zn572  N601    2.020   .     S
C573   C577    1.418   .     A
C573   C579    1.398   .     A
C574   C578    1.418   .     A
C574   C580    1.398   .     A
C575   C583    1.395   .     A
C575   C577    1.395   .     A
C575   H593    1.085   .     S
C576   C584    1.395   .     A
C576   C578    1.395   .     A
C576   H594    1.085   .     S
C577   N742    1.436   1_455 S
C578   N677    1.436   .     S
C579   C581    1.410   .     A
C579   S610    1.790   .     S
C580   S605    1.790   .     S
C580   C582    1.409   .     A
C581   C585    1.418   .     A
C581   C583    1.416   .     A
C582   C584    1.416   .     A
C582   C586    1.417   .     A
C583   C31     1.390   1_556 S
C585   C588    1.408   .     A
C585   C28     1.418   1_556 S
C586   C587    1.408   .     A
C587   H595    1.074   .     S
C587   C589    1.384   .     A
C588   C590    1.384   .     A
C588   H596    1.074   .     S
C589   H591    1.082   .     S
C590   H592    1.082   .     S
C590   C26     1.390   1_556 S
C597   C908    1.338   1_455 S
C597   H785    1.088   .     S
C598   C1031   1.338   1_545 S
C598   H972    1.088   1_545 S
H599   C969    1.088   1_545 S
H600   C784    1.088   .     S
N601   H603    1.029   .     S
N601   N602    1.289   .     D
N602   H604    1.029   .     S
S605   O606    1.503   .     D
S605   O607    1.502   .     D
S605   O608    1.683   .     S
O608   H609    0.991   .     S
S610   O613    1.683   .     S
S610   O611    1.504   .     D
S610   O612    1.503   .     D
O613   H614    0.991   .     S
N615   O616    1.300   .     A
N615   O617    1.301   .     A
N615   C702    1.436   1_455 S
N618   O619    1.301   .     A
N618   O620    1.300   .     A
N618   C639    1.436   .     S
O621   Zn633   1.951   .     S
O621   C687    1.276   .     S
O622   Zn634   1.951   .     S
O623   Zn634   1.978   .     S
O623   C625    1.289   .     A
O624   C626    1.289   .     A
O624   Zn633   1.978   .     S
C625   C659    1.402   .     S
C626   C660    1.402   .     S
C626   O684    1.276   .     S
O627   Zn633   1.942   .     S
O627   C693    1.287   .     S
O628   Zn634   1.942   .     S
O629   Zn634   1.883   .     S
O629   C631    1.304   .     A
O630   C632    1.304   .     A
O630   Zn633   1.883   .     S
C631   C635    1.458   .     S
C632   C636    1.458   .     S
C632   O690    1.287   .     S
Zn633  N664    2.020   .     S
Zn634  N663    2.020   .     S
C635   C639    1.418   .     A
C635   C641    1.398   .     A
C636   C640    1.418   .     A
C636   C642    1.398   .     A
C637   C645    1.395   .     A
C637   C639    1.395   .     A
C637   H655    1.085   .     S
C638   C646    1.395   .     A
C638   C640    1.395   .     A
C638   H656    1.085   .     S
C640   N739    1.436   .     S
C641   C643    1.410   .     A
C641   S672    1.790   .     S
C642   S667    1.790   .     S
C642   C644    1.409   .     A
C643   C647    1.418   .     A
C643   C645    1.416   .     A
C644   C646    1.416   .     A
C644   C648    1.417   .     A
C645   C93     1.390   1_556 S
C647   C650    1.408   .     A
C647   C90     1.418   1_556 S
C648   C649    1.408   .     A
C649   H657    1.074   .     S
C649   C651    1.384   .     A
C650   C652    1.384   .     A
C650   H658    1.074   .     S
C651   H653    1.082   .     S
C652   H654    1.082   .     S
C652   C88     1.390   1_556 S
C659   C784    1.338   .     S
C659   H847    1.088   .     S
C660   C1093   1.338   1_545 S
C660   H1034   1.088   1_545 S
H661   C1031   1.088   1_545 S
H662   C846    1.088   .     S
N663   H665    1.029   .     S
N663   N664    1.289   .     D
N664   H666    1.029   .     S
S667   O668    1.503   .     D
S667   O669    1.502   .     D
S667   O670    1.683   .     S
O670   H671    0.991   .     S
S672   O675    1.683   .     S
S672   O673    1.504   .     D
S672   O674    1.503   .     D
O675   H676    0.991   .     S
N677   O678    1.300   .     A
N677   O679    1.301   .     A
N680   O681    1.301   .     A
N680   O682    1.300   .     A
N680   C701    1.436   .     S
O683   Zn695   1.951   .     S
O683   C563    1.276   1_655 S
O684   Zn696   1.951   .     S
O685   Zn696   1.978   .     S
O685   C687    1.289   .     A
O686   C688    1.289   .     A
O686   Zn695   1.978   .     S
C687   C721    1.402   .     S
C688   C722    1.402   .     S
C688   O560    1.276   1_655 S
O689   Zn695   1.942   .     S
O689   C569    1.287   1_655 S
O690   Zn696   1.942   .     S
O691   Zn696   1.883   .     S
O691   C693    1.304   .     A
O692   C694    1.304   .     A
O692   Zn695   1.883   .     S
C693   C697    1.458   .     S
C694   C698    1.458   .     S
C694   O566    1.287   1_655 S
Zn695  N726    2.020   .     S
Zn696  N725    2.020   .     S
C697   C701    1.418   .     A
C697   C703    1.398   .     A
C698   C702    1.418   .     A
C698   C704    1.398   .     A
C699   C707    1.395   .     A
C699   C701    1.395   .     A
C699   H717    1.085   .     S
C700   C708    1.395   .     A
C700   C702    1.395   .     A
C700   H718    1.085   .     S
C702   N615    1.436   1_655 S
C703   C705    1.410   .     A
C703   S734    1.790   .     S
C704   S729    1.790   .     S
C704   C706    1.409   .     A
C705   C709    1.418   .     A
C705   C707    1.416   .     A
C706   C708    1.416   .     A
C706   C710    1.417   .     A
C707   C155    1.390   1_556 S
C709   C712    1.408   .     A
C709   C152    1.418   1_556 S
C710   C711    1.408   .     A
C711   H719    1.074   .     S
C711   C713    1.384   .     A
C712   C714    1.384   .     A
C712   H720    1.074   .     S
C713   H715    1.082   .     S
C714   H716    1.082   .     S
C714   C150    1.390   1_556 S
C721   C846    1.338   .     S
C721   H909    1.088   .     S
C722   C969    1.338   1_645 S
C722   H1096   1.088   1_545 S
H723   C1093   1.088   1_545 S
H724   C908    1.088   .     S
N725   H727    1.029   .     S
N725   N726    1.289   .     D
N726   H728    1.029   .     S
S729   O730    1.503   .     D
S729   O731    1.502   .     D
S729   O732    1.683   .     S
O732   H733    0.991   .     S
S734   O737    1.683   .     S
S734   O735    1.504   .     D
S734   O736    1.503   .     D
O737   H738    0.991   .     S
N739   O740    1.300   .     A
N739   O741    1.301   .     A
N742   O743    1.301   .     A
N742   O744    1.300   .     A
N742   C577    1.436   1_655 S
O745   Zn757   1.951   .     S
O745   C811    1.276   .     S
O746   Zn758   1.951   .     S
O746   C874    1.276   1_455 S
O747   Zn758   1.978   .     S
O747   C749    1.289   .     A
O748   C750    1.289   .     A
O748   Zn757   1.978   .     S
C749   C783    1.402   .     S
C749   O869    1.276   1_455 S
C750   C784    1.402   .     S
C750   O808    1.276   .     S
O751   Zn757   1.942   .     S
O751   C817    1.287   .     S
O752   Zn758   1.942   .     S
O752   C880    1.287   1_455 S
O753   Zn758   1.883   .     S
O753   C755    1.304   .     A
O754   C756    1.304   .     A
O754   Zn757   1.883   .     S
C755   C759    1.458   .     S
C755   O875    1.287   1_455 S
C756   C760    1.458   .     S
C756   O814    1.287   .     S
Zn757  N788    2.020   .     S
Zn758  N787    2.020   .     S
C759   C763    1.418   .     A
C759   C765    1.398   .     A
C760   C764    1.418   .     A
C760   C766    1.398   .     A
C761   C769    1.395   .     A
C761   C763    1.395   .     A
C761   H779    1.085   .     S
C762   C770    1.395   .     A
C762   C764    1.395   .     A
C762   H780    1.085   .     S
C763   N928    1.436   1_455 S
C764   N863    1.436   .     S
C765   C767    1.410   .     A
C765   S796    1.790   .     S
C766   S791    1.790   .     S
C766   C768    1.409   .     A
C767   C771    1.418   .     A
C767   C769    1.416   .     A
C768   C770    1.416   .     A
C768   C772    1.417   .     A
C769   C217    1.390   1_556 S
C771   C774    1.408   .     A
C771   C214    1.418   1_556 S
C772   C773    1.408   .     A
C773   H781    1.074   .     S
C773   C775    1.384   .     A
C774   C776    1.384   .     A
C774   H782    1.074   .     S
C775   H777    1.082   .     S
C776   H778    1.082   .     S
C776   C212    1.390   1_556 S
C783   C1094   1.338   1_455 S
C783   H971    1.088   .     S
H786   C970    1.088   .     S
N787   H789    1.029   .     S
N787   N788    1.289   .     D
N788   H790    1.029   .     S
S791   O792    1.503   .     D
S791   O793    1.502   .     D
S791   O794    1.683   .     S
O794   H795    0.991   .     S
S796   O799    1.683   .     S
S796   O797    1.504   .     D
S796   O798    1.503   .     D
O799   H800    0.991   .     S
N801   O802    1.300   .     A
N801   O803    1.301   .     A
N801   C888    1.436   1_455 S
N804   O805    1.301   .     A
N804   O806    1.300   .     A
N804   C825    1.436   .     S
O807   Zn819   1.951   .     S
O807   C873    1.276   .     S
O808   Zn820   1.951   .     S
O809   Zn820   1.978   .     S
O809   C811    1.289   .     A
O810   C812    1.289   .     A
O810   Zn819   1.978   .     S
C811   C845    1.402   .     S
C812   C846    1.402   .     S
C812   O870    1.276   .     S
O813   Zn819   1.942   .     S
O813   C879    1.287   .     S
O814   Zn820   1.942   .     S
O815   Zn820   1.883   .     S
O815   C817    1.304   .     A
O816   C818    1.304   .     A
O816   Zn819   1.883   .     S
C817   C821    1.458   .     S
C818   C822    1.458   .     S
C818   O876    1.287   .     S
Zn819  N850    2.020   .     S
Zn820  N849    2.020   .     S
C821   C825    1.418   .     A
C821   C827    1.398   .     A
C822   C826    1.418   .     A
C822   C828    1.398   .     A
C823   C831    1.395   .     A
C823   C825    1.395   .     A
C823   H841    1.085   .     S
C824   C832    1.395   .     A
C824   C826    1.395   .     A
C824   H842    1.085   .     S
C826   N925    1.436   .     S
C827   C829    1.410   .     A
C827   S858    1.790   .     S
C828   S853    1.790   .     S
C828   C830    1.409   .     A
C829   C833    1.418   .     A
C829   C831    1.416   .     A
C830   C832    1.416   .     A
C830   C834    1.417   .     A
C831   C279    1.390   1_556 S
C833   C836    1.408   .     A
C833   C276    1.418   1_556 S
C834   C835    1.408   .     A
C835   H843    1.074   .     S
C835   C837    1.384   .     A
C836   C838    1.384   .     A
C836   H844    1.074   .     S
C837   H839    1.082   .     S
C838   H840    1.082   .     S
C838   C274    1.390   1_556 S
C845   C970    1.338   .     S
C845   H1033   1.088   .     S
H848   C1032   1.088   .     S
N849   H851    1.029   .     S
N849   N850    1.289   .     D
N850   H852    1.029   .     S
S853   O854    1.503   .     D
S853   O855    1.502   .     D
S853   O856    1.683   .     S
O856   H857    0.991   .     S
S858   O861    1.683   .     S
S858   O859    1.504   .     D
S858   O860    1.503   .     D
O861   H862    0.991   .     S
N863   O864    1.300   .     A
N863   O865    1.301   .     A
N866   O867    1.301   .     A
N866   O868    1.300   .     A
N866   C887    1.436   .     S
O869   Zn881   1.951   .     S
O869   C749    1.276   1_655 S
O870   Zn882   1.951   .     S
O871   Zn882   1.978   .     S
O871   C873    1.289   .     A
O872   C874    1.289   .     A
O872   Zn881   1.978   .     S
C873   C907    1.402   .     S
C874   C908    1.402   .     S
C874   O746    1.276   1_655 S
O875   Zn881   1.942   .     S
O875   C755    1.287   1_655 S
O876   Zn882   1.942   .     S
O877   Zn882   1.883   .     S
O877   C879    1.304   .     A
O878   C880    1.304   .     A
O878   Zn881   1.883   .     S
C879   C883    1.458   .     S
C880   C884    1.458   .     S
C880   O752    1.287   1_655 S
Zn881  N912    2.020   .     S
Zn882  N911    2.020   .     S
C883   C887    1.418   .     A
C883   C889    1.398   .     A
C884   C888    1.418   .     A
C884   C890    1.398   .     A
C885   C893    1.395   .     A
C885   C887    1.395   .     A
C885   H903    1.085   .     S
C886   C894    1.395   .     A
C886   C888    1.395   .     A
C886   H904    1.085   .     S
C888   N801    1.436   1_655 S
C889   C891    1.410   .     A
C889   S920    1.790   .     S
C890   S915    1.790   .     S
C890   C892    1.409   .     A
C891   C895    1.418   .     A
C891   C893    1.416   .     A
C892   C894    1.416   .     A
C892   C896    1.417   .     A
C893   C341    1.390   1_556 S
C895   C898    1.408   .     A
C895   C338    1.418   1_556 S
C896   C897    1.408   .     A
C897   H905    1.074   .     S
C897   C899    1.384   .     A
C898   C900    1.384   .     A
C898   H906    1.074   .     S
C899   H901    1.082   .     S
C900   H902    1.082   .     S
C900   C336    1.390   1_556 S
C907   C1032   1.338   .     S
C907   H1095   1.088   .     S
C908   C597    1.338   1_655 S
H910   C1094   1.088   .     S
N911   H913    1.029   .     S
N911   N912    1.289   .     D
N912   H914    1.029   .     S
S915   O916    1.503   .     D
S915   O917    1.502   .     D
S915   O918    1.683   .     S
O918   H919    0.991   .     S
S920   O923    1.683   .     S
S920   O921    1.504   .     D
S920   O922    1.503   .     D
O923   H924    0.991   .     S
N925   O926    1.300   .     A
N925   O927    1.301   .     A
N928   O929    1.301   .     A
N928   O930    1.300   .     A
N928   C763    1.436   1_655 S
O931   Zn943   1.951   .     S
O931   C997    1.276   .     S
O932   Zn944   1.951   .     S
O932   C1060   1.276   1_455 S
O933   Zn944   1.978   .     S
O933   C935    1.289   .     A
O934   C936    1.289   .     A
O934   Zn943   1.978   .     S
C935   C969    1.402   .     S
C935   O1055   1.276   1_455 S
C936   C970    1.402   .     S
C936   O994    1.276   .     S
O937   Zn943   1.942   .     S
O937   C1003   1.287   .     S
O938   Zn944   1.942   .     S
O938   C1066   1.287   1_455 S
O939   Zn944   1.883   .     S
O939   C941    1.304   .     A
O940   C942    1.304   .     A
O940   Zn943   1.883   .     S
C941   C945    1.458   .     S
C941   O1061   1.287   1_455 S
C942   C946    1.458   .     S
C942   O1000   1.287   .     S
Zn943  N974    2.020   .     S
Zn944  N973    2.020   .     S
C945   C949    1.418   .     A
C945   C951    1.398   .     A
C946   C950    1.418   .     A
C946   C952    1.398   .     A
C947   C955    1.395   .     A
C947   C949    1.395   .     A
C947   H965    1.085   .     S
C948   C956    1.395   .     A
C948   C950    1.395   .     A
C948   H966    1.085   .     S
C949   N1114   1.436   1_455 S
C950   N1049   1.436   .     S
C951   C953    1.410   .     A
C951   S982    1.790   .     S
C952   S977    1.790   .     S
C952   C954    1.409   .     A
C953   C957    1.418   .     A
C953   C955    1.416   .     A
C954   C956    1.416   .     A
C954   C958    1.417   .     A
C955   C403    1.390   1_556 S
C957   C960    1.408   .     A
C957   C400    1.418   1_556 S
C958   C959    1.408   .     A
C959   H967    1.074   .     S
C959   C961    1.384   .     A
C960   C962    1.384   .     A
C960   H968    1.074   .     S
C961   H963    1.082   .     S
C962   H964    1.082   .     S
C962   C398    1.390   1_556 S
C969   C722    1.338   1_465 S
C969   H599    1.088   1_565 S
H972   C598    1.088   1_565 S
N973   H975    1.029   .     S
N973   N974    1.289   .     D
N974   H976    1.029   .     S
S977   O978    1.503   .     D
S977   O979    1.502   .     D
S977   O980    1.683   .     S
O980   H981    0.991   .     S
S982   O985    1.683   .     S
S982   O983    1.504   .     D
S982   O984    1.503   .     D
O985   H986    0.991   .     S
N987   O988    1.300   .     A
N987   O989    1.301   .     A
N987   C1074   1.436   1_455 S
N990   O991    1.301   .     A
N990   O992    1.300   .     A
N990   C1011   1.436   .     S
O993   Zn1005  1.951   .     S
O993   C1059   1.276   .     S
O994   Zn1006  1.951   .     S
O995   Zn1006  1.978   .     S
O995   C997    1.289   .     A
O996   C998    1.289   .     A
O996   Zn1005  1.978   .     S
C997   C1031   1.402   .     S
C998   C1032   1.402   .     S
C998   O1056   1.276   .     S
O999   Zn1005  1.942   .     S
O999   C1065   1.287   .     S
O1000  Zn1006  1.942   .     S
O1001  Zn1006  1.883   .     S
O1001  C1003   1.304   .     A
O1002  C1004   1.304   .     A
O1002  Zn1005  1.883   .     S
C1003  C1007   1.458   .     S
C1004  C1008   1.458   .     S
C1004  O1062   1.287   .     S
Zn1005 N1036   2.020   .     S
Zn1006 N1035   2.020   .     S
C1007  C1011   1.418   .     A
C1007  C1013   1.398   .     A
C1008  C1012   1.418   .     A
C1008  C1014   1.398   .     A
C1009  C1017   1.395   .     A
C1009  C1011   1.395   .     A
C1009  H1027   1.085   .     S
C1010  C1018   1.395   .     A
C1010  C1012   1.395   .     A
C1010  H1028   1.085   .     S
C1012  N1111   1.436   .     S
C1013  C1015   1.410   .     A
C1013  S1044   1.790   .     S
C1014  S1039   1.790   .     S
C1014  C1016   1.409   .     A
C1015  C1019   1.418   .     A
C1015  C1017   1.416   .     A
C1016  C1018   1.416   .     A
C1016  C1020   1.417   .     A
C1017  C465    1.390   1_556 S
C1019  C1022   1.408   .     A
C1019  C462    1.418   1_556 S
C1020  C1021   1.408   .     A
C1021  H1029   1.074   .     S
C1021  C1023   1.384   .     A
C1022  C1024   1.384   .     A
C1022  H1030   1.074   .     S
C1023  H1025   1.082   .     S
C1024  H1026   1.082   .     S
C1024  C460    1.390   1_556 S
C1031  C598    1.338   1_565 S
C1031  H661    1.088   1_565 S
H1034  C660    1.088   1_565 S
N1035  H1037   1.029   .     S
N1035  N1036   1.289   .     D
N1036  H1038   1.029   .     S
S1039  O1040   1.503   .     D
S1039  O1041   1.502   .     D
S1039  O1042   1.683   .     S
O1042  H1043   0.991   .     S
S1044  O1047   1.683   .     S
S1044  O1045   1.504   .     D
S1044  O1046   1.503   .     D
O1047  H1048   0.991   .     S
N1049  O1050   1.300   .     A
N1049  O1051   1.301   .     A
N1052  O1053   1.301   .     A
N1052  O1054   1.300   .     A
N1052  C1073   1.436   .     S
O1055  Zn1067  1.951   .     S
O1055  C935    1.276   1_655 S
O1056  Zn1068  1.951   .     S
O1057  Zn1068  1.978   .     S
O1057  C1059   1.289   .     A
O1058  C1060   1.289   .     A
O1058  Zn1067  1.978   .     S
C1059  C1093   1.402   .     S
C1060  C1094   1.402   .     S
C1060  O932    1.276   1_655 S
O1061  Zn1067  1.942   .     S
O1061  C941    1.287   1_655 S
O1062  Zn1068  1.942   .     S
O1063  Zn1068  1.883   .     S
O1063  C1065   1.304   .     A
O1064  C1066   1.304   .     A
O1064  Zn1067  1.883   .     S
C1065  C1069   1.458   .     S
C1066  C1070   1.458   .     S
C1066  O938    1.287   1_655 S
Zn1067 N1098   2.020   .     S
Zn1068 N1097   2.020   .     S
C1069  C1073   1.418   .     A
C1069  C1075   1.398   .     A
C1070  C1074   1.418   .     A
C1070  C1076   1.398   .     A
C1071  C1079   1.395   .     A
C1071  C1073   1.395   .     A
C1071  H1089   1.085   .     S
C1072  C1080   1.395   .     A
C1072  C1074   1.395   .     A
C1072  H1090   1.085   .     S
C1074  N987    1.436   1_655 S
C1075  C1077   1.410   .     A
C1075  S1106   1.790   .     S
C1076  S1101   1.790   .     S
C1076  C1078   1.409   .     A
C1077  C1081   1.418   .     A
C1077  C1079   1.416   .     A
C1078  C1080   1.416   .     A
C1078  C1082   1.417   .     A
C1079  C527    1.390   1_556 S
C1081  C1084   1.408   .     A
C1081  C524    1.418   1_556 S
C1082  C1083   1.408   .     A
C1083  H1091   1.074   .     S
C1083  C1085   1.384   .     A
C1084  C1086   1.384   .     A
C1084  H1092   1.074   .     S
C1085  H1087   1.082   .     S
C1086  H1088   1.082   .     S
C1086  C522    1.390   1_556 S
C1093  C660    1.338   1_565 S
C1093  H723    1.088   1_565 S
C1094  C783    1.338   1_655 S
H1096  C722    1.088   1_565 S
N1097  H1099   1.029   .     S
N1097  N1098   1.289   .     D
N1098  H1100   1.029   .     S
S1101  O1102   1.503   .     D
S1101  O1103   1.502   .     D
S1101  O1104   1.683   .     S
O1104  H1105   0.991   .     S
S1106  O1109   1.683   .     S
S1106  O1107   1.504   .     D
S1106  O1108   1.503   .     D
O1109  H1110   0.991   .     S
N1111  O1112   1.300   .     A
N1111  O1113   1.301   .     A
N1114  O1115   1.301   .     A
N1114  O1116   1.300   .     A
N1114  C949    1.436   1_655 S
