data_str_m3_o1_o18_pcu_sym.135
_audit_creation_date              2020-01-03
_audit_creation_method            'Materials Studio'
_symmetry_space_group_name_H-M    'P1'
_symmetry_Int_Tables_number       1
_symmetry_cell_setting            triclinic
loop_
_symmetry_equiv_pos_as_xyz
  x,y,z
_cell_length_a                    29.5509
_cell_length_b                    31.9389
_cell_length_c                    31.2796
_cell_angle_alpha                 90.3905
_cell_angle_beta                  67.1339
_cell_angle_gamma                 89.7367
loop_
_atom_site_label
_atom_site_type_symbol
_atom_site_fract_x
_atom_site_fract_y
_atom_site_fract_z
_atom_site_U_iso_or_equiv
_atom_site_adp_type
_atom_site_occupancy
C1     C     0.16706   0.24657   0.24877   0.00000  Uiso   1.00
C2     C     0.16627   0.08676   0.25123   0.00000  Uiso   1.00
C3     C     0.12912   0.12326   0.03575   0.00000  Uiso   1.00
C4     C     0.20422   0.21007   0.46425   0.00000  Uiso   1.00
C5     C     0.09146   0.12059   0.01973   0.00000  Uiso   1.00
C6     C     0.24187   0.21274   0.48027   0.00000  Uiso   1.00
C7     C     0.20769   0.31255   0.21653   0.00000  Uiso   1.00
C8     C     0.12565   0.02078   0.28347   0.00000  Uiso   1.00
C9     C     0.20707   0.02212   0.21996   0.00000  Uiso   1.00
C10    C     0.12626   0.31121   0.28004   0.00000  Uiso   1.00
C11    C     0.16628   0.04264   0.25242   0.00000  Uiso   1.00
C12    C     0.16705   0.29069   0.24758   0.00000  Uiso   1.00
C13    C     0.32008   0.13818   0.22387   0.00000  Uiso   1.00
C14    C     0.01325   0.19515   0.27613   0.00000  Uiso   1.00
C15    C     0.03507   0.13791   0.22392   0.00000  Uiso   1.00
C16    C     0.29826   0.19543   0.27608   0.00000  Uiso   1.00
C17    C     0.13568   0.16764   0.33823   0.00000  Uiso   1.00
C18    C     0.19765   0.16569   0.16177   0.00000  Uiso   1.00
C19    C     0.11569   0.16752   0.38940   0.00000  Uiso   1.00
C20    C     0.21764   0.16581   0.11060   0.00000  Uiso   1.00
C21    C     0.05910   0.13791   0.46124   0.00000  Uiso   1.00
C22    C     0.27424   0.19542   0.03876   0.00000  Uiso   1.00
C23    C     0.06847   0.15189   0.41645   0.00000  Uiso   1.00
C24    C     0.26486   0.18144   0.08355   0.00000  Uiso   1.00
C25    C     0.14790   0.17758   0.41111   0.00000  Uiso   1.00
C26    C     0.18544   0.15575   0.08889   0.00000  Uiso   1.00
C27    C     0.13598   0.16845   0.45794   0.00000  Uiso   1.00
C28    C     0.19735   0.16488   0.04206   0.00000  Uiso   1.00
C29    C     0.09426   0.14332   0.48077   0.00000  Uiso   1.00
C30    C     0.23907   0.19001   0.01923   0.00000  Uiso   1.00
C31    C     0.16845   0.17816   0.48016   0.00000  Uiso   1.00
C32    C     0.16489   0.15518   0.01984   0.00000  Uiso   1.00
H33    H     0.23770   0.03963   0.19596   0.00000  Uiso   1.00
H34    H     0.09563   0.29370   0.30404   0.00000  Uiso   1.00
N35    N     0.04759   0.16668   0.25001   0.00000  Uiso   1.00
N36    N     0.28574   0.16666   0.24999   0.00000  Uiso   1.00
O37    O     0.12846   0.22775   0.25000   0.00000  Uiso   1.00
O38    O     0.20488   0.10558   0.25000   0.00000  Uiso   1.00
O39    O     0.20490   0.22774   0.25000   0.00000  Uiso   1.00
O40    O     0.12843   0.10559   0.25000   0.00000  Uiso   1.00
O41    O     0.10661   0.16667   0.31612   0.00000  Uiso   1.00
O42    O     0.22672   0.16666   0.18388   0.00000  Uiso   1.00
O43    O     0.18305   0.16666   0.31612   0.00000  Uiso   1.00
O44    O     0.15028   0.16667   0.18388   0.00000  Uiso   1.00
Zn45   Zn    0.11562   0.16667   0.25000   0.00000  Uiso   1.00
Zn46   Zn    0.21771   0.16666   0.25000   0.00000  Uiso   1.00
F47    F     0.05571   0.09179   0.03887   0.00000  Uiso   1.00
F48    F     0.27762   0.24155   0.46113   0.00000  Uiso   1.00
F49    F     0.13904   0.14366   0.11538   0.00000  Uiso   1.00
F50    F     0.19430   0.18967   0.38462   0.00000  Uiso   1.00
O51    O     0.30076   0.18722   0.10079   0.00000  Uiso   1.00
H52    H     0.30105   0.16211   0.11907   0.00000  Uiso   1.00
O53    O     0.03257   0.14612   0.39921   0.00000  Uiso   1.00
H54    H     0.03228   0.17122   0.38093   0.00000  Uiso   1.00
F55    F     0.01621   0.11788   0.48480   0.00000  Uiso   1.00
F56    F     0.31713   0.21545   0.01520   0.00000  Uiso   1.00
F57    F     0.13261   0.09205   0.06362   0.00000  Uiso   1.00
F58    F     0.20073   0.24129   0.43638   0.00000  Uiso   1.00
O59    O     0.24757   0.29368   0.18211   0.00000  Uiso   1.00
H60    H     0.23849   0.26529   0.17554   0.00000  Uiso   1.00
O61    O     0.08576   0.03966   0.31789   0.00000  Uiso   1.00
H62    H     0.09485   0.06804   0.32446   0.00000  Uiso   1.00
F63    F     0.30757   0.11013   0.19766   0.00000  Uiso   1.00
F64    F     0.02576   0.22320   0.30234   0.00000  Uiso   1.00
O65    O     0.07002   0.10898   0.19828   0.00000  Uiso   1.00
H66    H     0.05593   0.09037   0.18124   0.00000  Uiso   1.00
O67    O     0.26332   0.22435   0.30172   0.00000  Uiso   1.00
H68    H     0.27740   0.24296   0.31876   0.00000  Uiso   1.00
C69    C     0.50039   0.24657   0.24877   0.00000  Uiso   1.00
C70    C     0.49961   0.08676   0.25123   0.00000  Uiso   1.00
C71    C     0.46245   0.12326   0.03575   0.00000  Uiso   1.00
C72    C     0.53755   0.21007   0.46425   0.00000  Uiso   1.00
C73    C     0.42479   0.12059   0.01973   0.00000  Uiso   1.00
C74    C     0.57520   0.21274   0.48027   0.00000  Uiso   1.00
C75    C     0.54102   0.31255   0.21653   0.00000  Uiso   1.00
C76    C     0.45898   0.02078   0.28347   0.00000  Uiso   1.00
C77    C     0.54041   0.02212   0.21996   0.00000  Uiso   1.00
C78    C     0.45959   0.31121   0.28004   0.00000  Uiso   1.00
C79    C     0.49961   0.04264   0.25242   0.00000  Uiso   1.00
C80    C     0.50039   0.29069   0.24758   0.00000  Uiso   1.00
C81    C     0.65341   0.13818   0.22387   0.00000  Uiso   1.00
C82    C     0.34659   0.19515   0.27613   0.00000  Uiso   1.00
C83    C     0.36840   0.13791   0.22392   0.00000  Uiso   1.00
C84    C     0.63160   0.19543   0.27608   0.00000  Uiso   1.00
C85    C     0.46902   0.16764   0.33823   0.00000  Uiso   1.00
C86    C     0.53098   0.16569   0.16177   0.00000  Uiso   1.00
C87    C     0.44903   0.16752   0.38940   0.00000  Uiso   1.00
C88    C     0.55097   0.16581   0.11060   0.00000  Uiso   1.00
C89    C     0.39243   0.13791   0.46124   0.00000  Uiso   1.00
C90    C     0.60757   0.19542   0.03876   0.00000  Uiso   1.00
C91    C     0.40180   0.15189   0.41645   0.00000  Uiso   1.00
C92    C     0.59820   0.18144   0.08355   0.00000  Uiso   1.00
C93    C     0.48123   0.17758   0.41111   0.00000  Uiso   1.00
C94    C     0.51877   0.15575   0.08889   0.00000  Uiso   1.00
C95    C     0.46932   0.16845   0.45794   0.00000  Uiso   1.00
C96    C     0.53068   0.16488   0.04206   0.00000  Uiso   1.00
C97    C     0.42759   0.14332   0.48077   0.00000  Uiso   1.00
C98    C     0.57240   0.19001   0.01923   0.00000  Uiso   1.00
C99    C     0.50178   0.17816   0.48016   0.00000  Uiso   1.00
C100   C     0.49822   0.15518   0.01984   0.00000  Uiso   1.00
H101   H     0.57103   0.03963   0.19596   0.00000  Uiso   1.00
H102   H     0.42897   0.29370   0.30404   0.00000  Uiso   1.00
N103   N     0.38093   0.16668   0.25001   0.00000  Uiso   1.00
N104   N     0.61907   0.16666   0.24999   0.00000  Uiso   1.00
O105   O     0.46179   0.22775   0.25000   0.00000  Uiso   1.00
O106   O     0.53821   0.10558   0.25000   0.00000  Uiso   1.00
O107   O     0.53823   0.22774   0.25000   0.00000  Uiso   1.00
O108   O     0.46177   0.10559   0.25000   0.00000  Uiso   1.00
O109   O     0.43994   0.16667   0.31612   0.00000  Uiso   1.00
O110   O     0.56006   0.16666   0.18388   0.00000  Uiso   1.00
O111   O     0.51639   0.16666   0.31612   0.00000  Uiso   1.00
O112   O     0.48361   0.16667   0.18388   0.00000  Uiso   1.00
Zn113  Zn    0.44896   0.16667   0.25000   0.00000  Uiso   1.00
Zn114  Zn    0.55104   0.16666   0.25000   0.00000  Uiso   1.00
F115   F     0.38905   0.09179   0.03887   0.00000  Uiso   1.00
F116   F     0.61095   0.24155   0.46113   0.00000  Uiso   1.00
F117   F     0.47237   0.14366   0.11538   0.00000  Uiso   1.00
F118   F     0.52763   0.18967   0.38462   0.00000  Uiso   1.00
O119   O     0.63410   0.18722   0.10079   0.00000  Uiso   1.00
H120   H     0.63439   0.16211   0.11907   0.00000  Uiso   1.00
O121   O     0.36590   0.14612   0.39921   0.00000  Uiso   1.00
H122   H     0.36561   0.17122   0.38093   0.00000  Uiso   1.00
F123   F     0.34954   0.11788   0.48480   0.00000  Uiso   1.00
F124   F     0.65046   0.21545   0.01520   0.00000  Uiso   1.00
F125   F     0.46594   0.09205   0.06362   0.00000  Uiso   1.00
F126   F     0.53406   0.24129   0.43638   0.00000  Uiso   1.00
O127   O     0.58090   0.29368   0.18211   0.00000  Uiso   1.00
H128   H     0.57182   0.26529   0.17554   0.00000  Uiso   1.00
O129   O     0.41909   0.03966   0.31789   0.00000  Uiso   1.00
H130   H     0.42818   0.06804   0.32446   0.00000  Uiso   1.00
F131   F     0.64090   0.11013   0.19766   0.00000  Uiso   1.00
F132   F     0.35910   0.22320   0.30234   0.00000  Uiso   1.00
O133   O     0.40335   0.10898   0.19828   0.00000  Uiso   1.00
H134   H     0.38926   0.09037   0.18124   0.00000  Uiso   1.00
O135   O     0.59665   0.22435   0.30172   0.00000  Uiso   1.00
H136   H     0.61074   0.24296   0.31876   0.00000  Uiso   1.00
C137   C     0.83372   0.24657   0.24877   0.00000  Uiso   1.00
C138   C     0.83294   0.08676   0.25123   0.00000  Uiso   1.00
C139   C     0.79578   0.12326   0.03575   0.00000  Uiso   1.00
C140   C     0.87088   0.21007   0.46425   0.00000  Uiso   1.00
C141   C     0.75813   0.12059   0.01973   0.00000  Uiso   1.00
C142   C     0.90854   0.21274   0.48027   0.00000  Uiso   1.00
C143   C     0.87435   0.31255   0.21653   0.00000  Uiso   1.00
C144   C     0.79231   0.02078   0.28347   0.00000  Uiso   1.00
C145   C     0.87374   0.02212   0.21996   0.00000  Uiso   1.00
C146   C     0.79293   0.31121   0.28004   0.00000  Uiso   1.00
C147   C     0.83295   0.04264   0.25242   0.00000  Uiso   1.00
C148   C     0.83372   0.29069   0.24758   0.00000  Uiso   1.00
C149   C     0.98675   0.13818   0.22387   0.00000  Uiso   1.00
C150   C     0.67992   0.19515   0.27613   0.00000  Uiso   1.00
C151   C     0.70174   0.13791   0.22392   0.00000  Uiso   1.00
C152   C     0.96493   0.19543   0.27608   0.00000  Uiso   1.00
C153   C     0.80235   0.16764   0.33823   0.00000  Uiso   1.00
C154   C     0.86432   0.16569   0.16177   0.00000  Uiso   1.00
C155   C     0.78236   0.16752   0.38940   0.00000  Uiso   1.00
C156   C     0.88431   0.16581   0.11060   0.00000  Uiso   1.00
C157   C     0.72576   0.13791   0.46124   0.00000  Uiso   1.00
C158   C     0.94090   0.19542   0.03876   0.00000  Uiso   1.00
C159   C     0.73514   0.15189   0.41645   0.00000  Uiso   1.00
C160   C     0.93153   0.18144   0.08355   0.00000  Uiso   1.00
C161   C     0.81456   0.17758   0.41111   0.00000  Uiso   1.00
C162   C     0.85210   0.15575   0.08889   0.00000  Uiso   1.00
C163   C     0.80265   0.16845   0.45794   0.00000  Uiso   1.00
C164   C     0.86402   0.16488   0.04206   0.00000  Uiso   1.00
C165   C     0.76093   0.14332   0.48077   0.00000  Uiso   1.00
C166   C     0.90574   0.19001   0.01923   0.00000  Uiso   1.00
C167   C     0.83511   0.17816   0.48016   0.00000  Uiso   1.00
C168   C     0.83155   0.15518   0.01984   0.00000  Uiso   1.00
H169   H     0.90437   0.03963   0.19596   0.00000  Uiso   1.00
H170   H     0.76230   0.29370   0.30404   0.00000  Uiso   1.00
N171   N     0.71426   0.16668   0.25001   0.00000  Uiso   1.00
N172   N     0.95241   0.16666   0.24999   0.00000  Uiso   1.00
O173   O     0.79512   0.22775   0.25000   0.00000  Uiso   1.00
O174   O     0.87154   0.10558   0.25000   0.00000  Uiso   1.00
O175   O     0.87157   0.22774   0.25000   0.00000  Uiso   1.00
O176   O     0.79510   0.10559   0.25000   0.00000  Uiso   1.00
O177   O     0.77328   0.16667   0.31612   0.00000  Uiso   1.00
O178   O     0.89339   0.16666   0.18388   0.00000  Uiso   1.00
O179   O     0.84972   0.16666   0.31612   0.00000  Uiso   1.00
O180   O     0.81695   0.16667   0.18388   0.00000  Uiso   1.00
Zn181  Zn    0.78229   0.16667   0.25000   0.00000  Uiso   1.00
Zn182  Zn    0.88438   0.16666   0.25000   0.00000  Uiso   1.00
F183   F     0.72238   0.09179   0.03887   0.00000  Uiso   1.00
F184   F     0.94429   0.24155   0.46113   0.00000  Uiso   1.00
F185   F     0.80570   0.14366   0.11538   0.00000  Uiso   1.00
F186   F     0.86096   0.18967   0.38462   0.00000  Uiso   1.00
O187   O     0.96743   0.18722   0.10079   0.00000  Uiso   1.00
H188   H     0.96772   0.16211   0.11907   0.00000  Uiso   1.00
O189   O     0.69924   0.14612   0.39921   0.00000  Uiso   1.00
H190   H     0.69895   0.17122   0.38093   0.00000  Uiso   1.00
F191   F     0.68287   0.11788   0.48480   0.00000  Uiso   1.00
F192   F     0.98379   0.21545   0.01520   0.00000  Uiso   1.00
F193   F     0.79927   0.09205   0.06362   0.00000  Uiso   1.00
F194   F     0.86739   0.24129   0.43638   0.00000  Uiso   1.00
O195   O     0.91424   0.29368   0.18211   0.00000  Uiso   1.00
H196   H     0.90515   0.26529   0.17554   0.00000  Uiso   1.00
O197   O     0.75243   0.03966   0.31789   0.00000  Uiso   1.00
H198   H     0.76151   0.06804   0.32446   0.00000  Uiso   1.00
F199   F     0.97423   0.11013   0.19766   0.00000  Uiso   1.00
F200   F     0.69243   0.22320   0.30234   0.00000  Uiso   1.00
O201   O     0.73668   0.10898   0.19828   0.00000  Uiso   1.00
H202   H     0.72260   0.09037   0.18124   0.00000  Uiso   1.00
O203   O     0.92998   0.22435   0.30172   0.00000  Uiso   1.00
H204   H     0.94407   0.24296   0.31876   0.00000  Uiso   1.00
C205   C     0.16706   0.57990   0.24877   0.00000  Uiso   1.00
C206   C     0.16627   0.42010   0.25123   0.00000  Uiso   1.00
C207   C     0.12912   0.45659   0.03575   0.00000  Uiso   1.00
C208   C     0.20422   0.54341   0.46425   0.00000  Uiso   1.00
C209   C     0.09146   0.45393   0.01973   0.00000  Uiso   1.00
C210   C     0.24187   0.54607   0.48027   0.00000  Uiso   1.00
C211   C     0.20769   0.64589   0.21653   0.00000  Uiso   1.00
C212   C     0.12565   0.35411   0.28347   0.00000  Uiso   1.00
C213   C     0.20707   0.35546   0.21996   0.00000  Uiso   1.00
C214   C     0.12626   0.64454   0.28004   0.00000  Uiso   1.00
C215   C     0.16628   0.37598   0.25242   0.00000  Uiso   1.00
C216   C     0.16705   0.62402   0.24758   0.00000  Uiso   1.00
C217   C     0.32008   0.47152   0.22387   0.00000  Uiso   1.00
C218   C     0.01325   0.52848   0.27613   0.00000  Uiso   1.00
C219   C     0.03507   0.47124   0.22392   0.00000  Uiso   1.00
C220   C     0.29826   0.52876   0.27608   0.00000  Uiso   1.00
C221   C     0.13568   0.50098   0.33823   0.00000  Uiso   1.00
C222   C     0.19765   0.49902   0.16177   0.00000  Uiso   1.00
C223   C     0.11569   0.50086   0.38940   0.00000  Uiso   1.00
C224   C     0.21764   0.49914   0.11060   0.00000  Uiso   1.00
C225   C     0.05910   0.47124   0.46124   0.00000  Uiso   1.00
C226   C     0.27424   0.52876   0.03876   0.00000  Uiso   1.00
C227   C     0.06847   0.48522   0.41645   0.00000  Uiso   1.00
C228   C     0.26486   0.51478   0.08355   0.00000  Uiso   1.00
C229   C     0.14790   0.51092   0.41111   0.00000  Uiso   1.00
C230   C     0.18544   0.48908   0.08889   0.00000  Uiso   1.00
C231   C     0.13598   0.50179   0.45794   0.00000  Uiso   1.00
C232   C     0.19735   0.49821   0.04206   0.00000  Uiso   1.00
C233   C     0.09426   0.47665   0.48077   0.00000  Uiso   1.00
C234   C     0.23907   0.52335   0.01923   0.00000  Uiso   1.00
C235   C     0.16845   0.51149   0.48016   0.00000  Uiso   1.00
C236   C     0.16489   0.48851   0.01984   0.00000  Uiso   1.00
H237   H     0.23770   0.37296   0.19596   0.00000  Uiso   1.00
H238   H     0.09563   0.62703   0.30404   0.00000  Uiso   1.00
N239   N     0.04759   0.50001   0.25001   0.00000  Uiso   1.00
N240   N     0.28574   0.49999   0.24999   0.00000  Uiso   1.00
O241   O     0.12846   0.56108   0.25000   0.00000  Uiso   1.00
O242   O     0.20488   0.43892   0.25000   0.00000  Uiso   1.00
O243   O     0.20490   0.56107   0.25000   0.00000  Uiso   1.00
O244   O     0.12843   0.43893   0.25000   0.00000  Uiso   1.00
O245   O     0.10661   0.50001   0.31612   0.00000  Uiso   1.00
O246   O     0.22672   0.49999   0.18388   0.00000  Uiso   1.00
O247   O     0.18305   0.50000   0.31612   0.00000  Uiso   1.00
O248   O     0.15028   0.50000   0.18388   0.00000  Uiso   1.00
Zn249  Zn    0.11562   0.50001   0.25000   0.00000  Uiso   1.00
Zn250  Zn    0.21771   0.49999   0.25000   0.00000  Uiso   1.00
F251   F     0.05571   0.42512   0.03887   0.00000  Uiso   1.00
F252   F     0.27762   0.57488   0.46113   0.00000  Uiso   1.00
F253   F     0.13904   0.47700   0.11538   0.00000  Uiso   1.00
F254   F     0.19430   0.52300   0.38462   0.00000  Uiso   1.00
O255   O     0.30076   0.52055   0.10079   0.00000  Uiso   1.00
H256   H     0.30105   0.49544   0.11907   0.00000  Uiso   1.00
O257   O     0.03257   0.47945   0.39921   0.00000  Uiso   1.00
H258   H     0.03228   0.50456   0.38093   0.00000  Uiso   1.00
F259   F     0.01621   0.45121   0.48480   0.00000  Uiso   1.00
F260   F     0.31713   0.54879   0.01520   0.00000  Uiso   1.00
F261   F     0.13261   0.42538   0.06362   0.00000  Uiso   1.00
F262   F     0.20073   0.57462   0.43638   0.00000  Uiso   1.00
O263   O     0.24757   0.62701   0.18211   0.00000  Uiso   1.00
H264   H     0.23849   0.59862   0.17554   0.00000  Uiso   1.00
O265   O     0.08576   0.37299   0.31789   0.00000  Uiso   1.00
H266   H     0.09485   0.40138   0.32446   0.00000  Uiso   1.00
F267   F     0.30757   0.44347   0.19766   0.00000  Uiso   1.00
F268   F     0.02576   0.55653   0.30234   0.00000  Uiso   1.00
O269   O     0.07002   0.44231   0.19828   0.00000  Uiso   1.00
H270   H     0.05593   0.42371   0.18124   0.00000  Uiso   1.00
O271   O     0.26332   0.55769   0.30172   0.00000  Uiso   1.00
H272   H     0.27740   0.57629   0.31876   0.00000  Uiso   1.00
C273   C     0.50039   0.57990   0.24877   0.00000  Uiso   1.00
C274   C     0.49961   0.42010   0.25123   0.00000  Uiso   1.00
C275   C     0.46245   0.45659   0.03575   0.00000  Uiso   1.00
C276   C     0.53755   0.54341   0.46425   0.00000  Uiso   1.00
C277   C     0.42479   0.45393   0.01973   0.00000  Uiso   1.00
C278   C     0.57520   0.54607   0.48027   0.00000  Uiso   1.00
C279   C     0.54102   0.64589   0.21653   0.00000  Uiso   1.00
C280   C     0.45898   0.35411   0.28347   0.00000  Uiso   1.00
C281   C     0.54041   0.35546   0.21996   0.00000  Uiso   1.00
C282   C     0.45959   0.64454   0.28004   0.00000  Uiso   1.00
C283   C     0.49961   0.37598   0.25242   0.00000  Uiso   1.00
C284   C     0.50039   0.62402   0.24758   0.00000  Uiso   1.00
C285   C     0.65341   0.47152   0.22387   0.00000  Uiso   1.00
C286   C     0.34659   0.52848   0.27613   0.00000  Uiso   1.00
C287   C     0.36840   0.47124   0.22392   0.00000  Uiso   1.00
C288   C     0.63160   0.52876   0.27608   0.00000  Uiso   1.00
C289   C     0.46902   0.50098   0.33823   0.00000  Uiso   1.00
C290   C     0.53098   0.49902   0.16177   0.00000  Uiso   1.00
C291   C     0.44903   0.50086   0.38940   0.00000  Uiso   1.00
C292   C     0.55097   0.49914   0.11060   0.00000  Uiso   1.00
C293   C     0.39243   0.47124   0.46124   0.00000  Uiso   1.00
C294   C     0.60757   0.52876   0.03876   0.00000  Uiso   1.00
C295   C     0.40180   0.48522   0.41645   0.00000  Uiso   1.00
C296   C     0.59820   0.51478   0.08355   0.00000  Uiso   1.00
C297   C     0.48123   0.51092   0.41111   0.00000  Uiso   1.00
C298   C     0.51877   0.48908   0.08889   0.00000  Uiso   1.00
C299   C     0.46932   0.50179   0.45794   0.00000  Uiso   1.00
C300   C     0.53068   0.49821   0.04206   0.00000  Uiso   1.00
C301   C     0.42759   0.47665   0.48077   0.00000  Uiso   1.00
C302   C     0.57240   0.52335   0.01923   0.00000  Uiso   1.00
C303   C     0.50178   0.51149   0.48016   0.00000  Uiso   1.00
C304   C     0.49822   0.48851   0.01984   0.00000  Uiso   1.00
H305   H     0.57103   0.37296   0.19596   0.00000  Uiso   1.00
H306   H     0.42897   0.62703   0.30404   0.00000  Uiso   1.00
N307   N     0.38093   0.50001   0.25001   0.00000  Uiso   1.00
N308   N     0.61907   0.49999   0.24999   0.00000  Uiso   1.00
O309   O     0.46179   0.56108   0.25000   0.00000  Uiso   1.00
O310   O     0.53821   0.43892   0.25000   0.00000  Uiso   1.00
O311   O     0.53823   0.56107   0.25000   0.00000  Uiso   1.00
O312   O     0.46177   0.43893   0.25000   0.00000  Uiso   1.00
O313   O     0.43994   0.50001   0.31612   0.00000  Uiso   1.00
O314   O     0.56006   0.49999   0.18388   0.00000  Uiso   1.00
O315   O     0.51639   0.50000   0.31612   0.00000  Uiso   1.00
O316   O     0.48361   0.50000   0.18388   0.00000  Uiso   1.00
Zn317  Zn    0.44896   0.50001   0.25000   0.00000  Uiso   1.00
Zn318  Zn    0.55104   0.49999   0.25000   0.00000  Uiso   1.00
F319   F     0.38905   0.42512   0.03887   0.00000  Uiso   1.00
F320   F     0.61095   0.57488   0.46113   0.00000  Uiso   1.00
F321   F     0.47237   0.47700   0.11538   0.00000  Uiso   1.00
F322   F     0.52763   0.52300   0.38462   0.00000  Uiso   1.00
O323   O     0.63410   0.52055   0.10079   0.00000  Uiso   1.00
H324   H     0.63439   0.49544   0.11907   0.00000  Uiso   1.00
O325   O     0.36590   0.47945   0.39921   0.00000  Uiso   1.00
H326   H     0.36561   0.50456   0.38093   0.00000  Uiso   1.00
F327   F     0.34954   0.45121   0.48480   0.00000  Uiso   1.00
F328   F     0.65046   0.54879   0.01520   0.00000  Uiso   1.00
F329   F     0.46594   0.42538   0.06362   0.00000  Uiso   1.00
F330   F     0.53406   0.57462   0.43638   0.00000  Uiso   1.00
O331   O     0.58090   0.62701   0.18211   0.00000  Uiso   1.00
H332   H     0.57182   0.59862   0.17554   0.00000  Uiso   1.00
O333   O     0.41909   0.37299   0.31789   0.00000  Uiso   1.00
H334   H     0.42818   0.40138   0.32446   0.00000  Uiso   1.00
F335   F     0.64090   0.44347   0.19766   0.00000  Uiso   1.00
F336   F     0.35910   0.55653   0.30234   0.00000  Uiso   1.00
O337   O     0.40335   0.44231   0.19828   0.00000  Uiso   1.00
H338   H     0.38926   0.42371   0.18124   0.00000  Uiso   1.00
O339   O     0.59665   0.55769   0.30172   0.00000  Uiso   1.00
H340   H     0.61074   0.57629   0.31876   0.00000  Uiso   1.00
C341   C     0.83372   0.57990   0.24877   0.00000  Uiso   1.00
C342   C     0.83294   0.42010   0.25123   0.00000  Uiso   1.00
C343   C     0.79578   0.45659   0.03575   0.00000  Uiso   1.00
C344   C     0.87088   0.54341   0.46425   0.00000  Uiso   1.00
C345   C     0.75813   0.45393   0.01973   0.00000  Uiso   1.00
C346   C     0.90854   0.54607   0.48027   0.00000  Uiso   1.00
C347   C     0.87435   0.64589   0.21653   0.00000  Uiso   1.00
C348   C     0.79231   0.35411   0.28347   0.00000  Uiso   1.00
C349   C     0.87374   0.35546   0.21996   0.00000  Uiso   1.00
C350   C     0.79293   0.64454   0.28004   0.00000  Uiso   1.00
C351   C     0.83295   0.37598   0.25242   0.00000  Uiso   1.00
C352   C     0.83372   0.62402   0.24758   0.00000  Uiso   1.00
C353   C     0.98675   0.47152   0.22387   0.00000  Uiso   1.00
C354   C     0.67992   0.52848   0.27613   0.00000  Uiso   1.00
C355   C     0.70174   0.47124   0.22392   0.00000  Uiso   1.00
C356   C     0.96493   0.52876   0.27608   0.00000  Uiso   1.00
C357   C     0.80235   0.50098   0.33823   0.00000  Uiso   1.00
C358   C     0.86432   0.49902   0.16177   0.00000  Uiso   1.00
C359   C     0.78236   0.50086   0.38940   0.00000  Uiso   1.00
C360   C     0.88431   0.49914   0.11060   0.00000  Uiso   1.00
C361   C     0.72576   0.47124   0.46124   0.00000  Uiso   1.00
C362   C     0.94090   0.52876   0.03876   0.00000  Uiso   1.00
C363   C     0.73514   0.48522   0.41645   0.00000  Uiso   1.00
C364   C     0.93153   0.51478   0.08355   0.00000  Uiso   1.00
C365   C     0.81456   0.51092   0.41111   0.00000  Uiso   1.00
C366   C     0.85210   0.48908   0.08889   0.00000  Uiso   1.00
C367   C     0.80265   0.50179   0.45794   0.00000  Uiso   1.00
C368   C     0.86402   0.49821   0.04206   0.00000  Uiso   1.00
C369   C     0.76093   0.47665   0.48077   0.00000  Uiso   1.00
C370   C     0.90574   0.52335   0.01923   0.00000  Uiso   1.00
C371   C     0.83511   0.51149   0.48016   0.00000  Uiso   1.00
C372   C     0.83155   0.48851   0.01984   0.00000  Uiso   1.00
H373   H     0.90437   0.37296   0.19596   0.00000  Uiso   1.00
H374   H     0.76230   0.62703   0.30404   0.00000  Uiso   1.00
N375   N     0.71426   0.50001   0.25001   0.00000  Uiso   1.00
N376   N     0.95241   0.49999   0.24999   0.00000  Uiso   1.00
O377   O     0.79512   0.56108   0.25000   0.00000  Uiso   1.00
O378   O     0.87154   0.43892   0.25000   0.00000  Uiso   1.00
O379   O     0.87157   0.56107   0.25000   0.00000  Uiso   1.00
O380   O     0.79510   0.43893   0.25000   0.00000  Uiso   1.00
O381   O     0.77328   0.50001   0.31612   0.00000  Uiso   1.00
O382   O     0.89339   0.49999   0.18388   0.00000  Uiso   1.00
O383   O     0.84972   0.50000   0.31612   0.00000  Uiso   1.00
O384   O     0.81695   0.50000   0.18388   0.00000  Uiso   1.00
Zn385  Zn    0.78229   0.50001   0.25000   0.00000  Uiso   1.00
Zn386  Zn    0.88438   0.49999   0.25000   0.00000  Uiso   1.00
F387   F     0.72238   0.42512   0.03887   0.00000  Uiso   1.00
F388   F     0.94429   0.57488   0.46113   0.00000  Uiso   1.00
F389   F     0.80570   0.47700   0.11538   0.00000  Uiso   1.00
F390   F     0.86096   0.52300   0.38462   0.00000  Uiso   1.00
O391   O     0.96743   0.52055   0.10079   0.00000  Uiso   1.00
H392   H     0.96772   0.49544   0.11907   0.00000  Uiso   1.00
O393   O     0.69924   0.47945   0.39921   0.00000  Uiso   1.00
H394   H     0.69895   0.50456   0.38093   0.00000  Uiso   1.00
F395   F     0.68287   0.45121   0.48480   0.00000  Uiso   1.00
F396   F     0.98379   0.54879   0.01520   0.00000  Uiso   1.00
F397   F     0.79927   0.42538   0.06362   0.00000  Uiso   1.00
F398   F     0.86739   0.57462   0.43638   0.00000  Uiso   1.00
O399   O     0.91424   0.62701   0.18211   0.00000  Uiso   1.00
H400   H     0.90515   0.59862   0.17554   0.00000  Uiso   1.00
O401   O     0.75243   0.37299   0.31789   0.00000  Uiso   1.00
H402   H     0.76151   0.40138   0.32446   0.00000  Uiso   1.00
F403   F     0.97423   0.44347   0.19766   0.00000  Uiso   1.00
F404   F     0.69243   0.55653   0.30234   0.00000  Uiso   1.00
O405   O     0.73668   0.44231   0.19828   0.00000  Uiso   1.00
H406   H     0.72260   0.42371   0.18124   0.00000  Uiso   1.00
O407   O     0.92998   0.55769   0.30172   0.00000  Uiso   1.00
H408   H     0.94407   0.57629   0.31876   0.00000  Uiso   1.00
C409   C     0.16706   0.91324   0.24877   0.00000  Uiso   1.00
C410   C     0.16627   0.75343   0.25123   0.00000  Uiso   1.00
C411   C     0.12912   0.78993   0.03575   0.00000  Uiso   1.00
C412   C     0.20422   0.87674   0.46425   0.00000  Uiso   1.00
C413   C     0.09146   0.78726   0.01973   0.00000  Uiso   1.00
C414   C     0.24187   0.87941   0.48027   0.00000  Uiso   1.00
C415   C     0.20769   0.97922   0.21653   0.00000  Uiso   1.00
C416   C     0.12565   0.68745   0.28347   0.00000  Uiso   1.00
C417   C     0.20707   0.68879   0.21996   0.00000  Uiso   1.00
C418   C     0.12626   0.97788   0.28004   0.00000  Uiso   1.00
C419   C     0.16628   0.70931   0.25242   0.00000  Uiso   1.00
C420   C     0.16705   0.95736   0.24758   0.00000  Uiso   1.00
C421   C     0.32008   0.80485   0.22387   0.00000  Uiso   1.00
C422   C     0.01325   0.86182   0.27613   0.00000  Uiso   1.00
C423   C     0.03507   0.80457   0.22392   0.00000  Uiso   1.00
C424   C     0.29826   0.86209   0.27608   0.00000  Uiso   1.00
C425   C     0.13568   0.83431   0.33823   0.00000  Uiso   1.00
C426   C     0.19765   0.83236   0.16177   0.00000  Uiso   1.00
C427   C     0.11569   0.83419   0.38940   0.00000  Uiso   1.00
C428   C     0.21764   0.83248   0.11060   0.00000  Uiso   1.00
C429   C     0.05910   0.80458   0.46124   0.00000  Uiso   1.00
C430   C     0.27424   0.86209   0.03876   0.00000  Uiso   1.00
C431   C     0.06847   0.81856   0.41645   0.00000  Uiso   1.00
C432   C     0.26486   0.84811   0.08355   0.00000  Uiso   1.00
C433   C     0.14790   0.84425   0.41111   0.00000  Uiso   1.00
C434   C     0.18544   0.82242   0.08889   0.00000  Uiso   1.00
C435   C     0.13598   0.83512   0.45794   0.00000  Uiso   1.00
C436   C     0.19735   0.83155   0.04206   0.00000  Uiso   1.00
C437   C     0.09426   0.80999   0.48077   0.00000  Uiso   1.00
C438   C     0.23907   0.85668   0.01923   0.00000  Uiso   1.00
C439   C     0.16845   0.84482   0.48016   0.00000  Uiso   1.00
C440   C     0.16489   0.82184   0.01984   0.00000  Uiso   1.00
H441   H     0.23770   0.70630   0.19596   0.00000  Uiso   1.00
H442   H     0.09563   0.96037   0.30404   0.00000  Uiso   1.00
N443   N     0.04759   0.83334   0.25001   0.00000  Uiso   1.00
N444   N     0.28574   0.83332   0.24999   0.00000  Uiso   1.00
O445   O     0.12846   0.89442   0.25000   0.00000  Uiso   1.00
O446   O     0.20488   0.77225   0.25000   0.00000  Uiso   1.00
O447   O     0.20490   0.89441   0.25000   0.00000  Uiso   1.00
O448   O     0.12843   0.77226   0.25000   0.00000  Uiso   1.00
O449   O     0.10661   0.83334   0.31612   0.00000  Uiso   1.00
O450   O     0.22672   0.83333   0.18388   0.00000  Uiso   1.00
O451   O     0.18305   0.83333   0.31612   0.00000  Uiso   1.00
O452   O     0.15028   0.83334   0.18388   0.00000  Uiso   1.00
Zn453  Zn    0.11562   0.83334   0.25000   0.00000  Uiso   1.00
Zn454  Zn    0.21771   0.83333   0.25000   0.00000  Uiso   1.00
F455   F     0.05571   0.75845   0.03887   0.00000  Uiso   1.00
F456   F     0.27762   0.90821   0.46113   0.00000  Uiso   1.00
F457   F     0.13904   0.81033   0.11538   0.00000  Uiso   1.00
F458   F     0.19430   0.85634   0.38462   0.00000  Uiso   1.00
O459   O     0.30076   0.85388   0.10079   0.00000  Uiso   1.00
H460   H     0.30105   0.82878   0.11907   0.00000  Uiso   1.00
O461   O     0.03257   0.81278   0.39921   0.00000  Uiso   1.00
H462   H     0.03228   0.83789   0.38093   0.00000  Uiso   1.00
F463   F     0.01621   0.78455   0.48480   0.00000  Uiso   1.00
F464   F     0.31713   0.88212   0.01520   0.00000  Uiso   1.00
F465   F     0.13261   0.75871   0.06362   0.00000  Uiso   1.00
F466   F     0.20073   0.90795   0.43638   0.00000  Uiso   1.00
O467   O     0.24757   0.96034   0.18211   0.00000  Uiso   1.00
H468   H     0.23849   0.93195   0.17554   0.00000  Uiso   1.00
O469   O     0.08576   0.70632   0.31789   0.00000  Uiso   1.00
H470   H     0.09485   0.73471   0.32446   0.00000  Uiso   1.00
F471   F     0.30757   0.77680   0.19766   0.00000  Uiso   1.00
F472   F     0.02576   0.88987   0.30234   0.00000  Uiso   1.00
O473   O     0.07002   0.77565   0.19828   0.00000  Uiso   1.00
H474   H     0.05593   0.75704   0.18124   0.00000  Uiso   1.00
O475   O     0.26332   0.89102   0.30172   0.00000  Uiso   1.00
H476   H     0.27740   0.90963   0.31876   0.00000  Uiso   1.00
C477   C     0.50039   0.91324   0.24877   0.00000  Uiso   1.00
C478   C     0.49961   0.75343   0.25123   0.00000  Uiso   1.00
C479   C     0.46245   0.78993   0.03575   0.00000  Uiso   1.00
C480   C     0.53755   0.87674   0.46425   0.00000  Uiso   1.00
C481   C     0.42479   0.78726   0.01973   0.00000  Uiso   1.00
C482   C     0.57520   0.87941   0.48027   0.00000  Uiso   1.00
C483   C     0.54102   0.97922   0.21653   0.00000  Uiso   1.00
C484   C     0.45898   0.68745   0.28347   0.00000  Uiso   1.00
C485   C     0.54041   0.68879   0.21996   0.00000  Uiso   1.00
C486   C     0.45959   0.97788   0.28004   0.00000  Uiso   1.00
C487   C     0.49961   0.70931   0.25242   0.00000  Uiso   1.00
C488   C     0.50039   0.95736   0.24758   0.00000  Uiso   1.00
C489   C     0.65341   0.80485   0.22387   0.00000  Uiso   1.00
C490   C     0.34659   0.86182   0.27613   0.00000  Uiso   1.00
C491   C     0.36840   0.80457   0.22392   0.00000  Uiso   1.00
C492   C     0.63160   0.86209   0.27608   0.00000  Uiso   1.00
C493   C     0.46902   0.83431   0.33823   0.00000  Uiso   1.00
C494   C     0.53098   0.83236   0.16177   0.00000  Uiso   1.00
C495   C     0.44903   0.83419   0.38940   0.00000  Uiso   1.00
C496   C     0.55097   0.83248   0.11060   0.00000  Uiso   1.00
C497   C     0.39243   0.80458   0.46124   0.00000  Uiso   1.00
C498   C     0.60757   0.86209   0.03876   0.00000  Uiso   1.00
C499   C     0.40180   0.81856   0.41645   0.00000  Uiso   1.00
C500   C     0.59820   0.84811   0.08355   0.00000  Uiso   1.00
C501   C     0.48123   0.84425   0.41111   0.00000  Uiso   1.00
C502   C     0.51877   0.82242   0.08889   0.00000  Uiso   1.00
C503   C     0.46932   0.83512   0.45794   0.00000  Uiso   1.00
C504   C     0.53068   0.83155   0.04206   0.00000  Uiso   1.00
C505   C     0.42759   0.80999   0.48077   0.00000  Uiso   1.00
C506   C     0.57240   0.85668   0.01923   0.00000  Uiso   1.00
C507   C     0.50178   0.84482   0.48016   0.00000  Uiso   1.00
C508   C     0.49822   0.82184   0.01984   0.00000  Uiso   1.00
H509   H     0.57103   0.70630   0.19596   0.00000  Uiso   1.00
H510   H     0.42897   0.96037   0.30404   0.00000  Uiso   1.00
N511   N     0.38093   0.83334   0.25001   0.00000  Uiso   1.00
N512   N     0.61907   0.83332   0.24999   0.00000  Uiso   1.00
O513   O     0.46179   0.89442   0.25000   0.00000  Uiso   1.00
O514   O     0.53821   0.77225   0.25000   0.00000  Uiso   1.00
O515   O     0.53823   0.89441   0.25000   0.00000  Uiso   1.00
O516   O     0.46177   0.77226   0.25000   0.00000  Uiso   1.00
O517   O     0.43994   0.83334   0.31612   0.00000  Uiso   1.00
O518   O     0.56006   0.83333   0.18388   0.00000  Uiso   1.00
O519   O     0.51639   0.83333   0.31612   0.00000  Uiso   1.00
O520   O     0.48361   0.83334   0.18388   0.00000  Uiso   1.00
Zn521  Zn    0.44896   0.83334   0.25000   0.00000  Uiso   1.00
Zn522  Zn    0.55104   0.83333   0.25000   0.00000  Uiso   1.00
F523   F     0.38905   0.75845   0.03887   0.00000  Uiso   1.00
F524   F     0.61095   0.90821   0.46113   0.00000  Uiso   1.00
F525   F     0.47237   0.81033   0.11538   0.00000  Uiso   1.00
F526   F     0.52763   0.85634   0.38462   0.00000  Uiso   1.00
O527   O     0.63410   0.85388   0.10079   0.00000  Uiso   1.00
H528   H     0.63439   0.82878   0.11907   0.00000  Uiso   1.00
O529   O     0.36590   0.81278   0.39921   0.00000  Uiso   1.00
H530   H     0.36561   0.83789   0.38093   0.00000  Uiso   1.00
F531   F     0.34954   0.78455   0.48480   0.00000  Uiso   1.00
F532   F     0.65046   0.88212   0.01520   0.00000  Uiso   1.00
F533   F     0.46594   0.75871   0.06362   0.00000  Uiso   1.00
F534   F     0.53406   0.90795   0.43638   0.00000  Uiso   1.00
O535   O     0.58090   0.96034   0.18211   0.00000  Uiso   1.00
H536   H     0.57182   0.93195   0.17554   0.00000  Uiso   1.00
O537   O     0.41909   0.70632   0.31789   0.00000  Uiso   1.00
H538   H     0.42818   0.73471   0.32446   0.00000  Uiso   1.00
F539   F     0.64090   0.77680   0.19766   0.00000  Uiso   1.00
F540   F     0.35910   0.88987   0.30234   0.00000  Uiso   1.00
O541   O     0.40335   0.77565   0.19828   0.00000  Uiso   1.00
H542   H     0.38926   0.75704   0.18124   0.00000  Uiso   1.00
O543   O     0.59665   0.89102   0.30172   0.00000  Uiso   1.00
H544   H     0.61074   0.90963   0.31876   0.00000  Uiso   1.00
C545   C     0.83372   0.91324   0.24877   0.00000  Uiso   1.00
C546   C     0.83294   0.75343   0.25123   0.00000  Uiso   1.00
C547   C     0.79578   0.78993   0.03575   0.00000  Uiso   1.00
C548   C     0.87088   0.87674   0.46425   0.00000  Uiso   1.00
C549   C     0.75813   0.78726   0.01973   0.00000  Uiso   1.00
C550   C     0.90854   0.87941   0.48027   0.00000  Uiso   1.00
C551   C     0.87435   0.97922   0.21653   0.00000  Uiso   1.00
C552   C     0.79231   0.68745   0.28347   0.00000  Uiso   1.00
C553   C     0.87374   0.68879   0.21996   0.00000  Uiso   1.00
C554   C     0.79293   0.97788   0.28004   0.00000  Uiso   1.00
C555   C     0.83295   0.70931   0.25242   0.00000  Uiso   1.00
C556   C     0.83372   0.95736   0.24758   0.00000  Uiso   1.00
C557   C     0.98675   0.80485   0.22387   0.00000  Uiso   1.00
C558   C     0.67992   0.86182   0.27613   0.00000  Uiso   1.00
C559   C     0.70174   0.80457   0.22392   0.00000  Uiso   1.00
C560   C     0.96493   0.86209   0.27608   0.00000  Uiso   1.00
C561   C     0.80235   0.83431   0.33823   0.00000  Uiso   1.00
C562   C     0.86432   0.83236   0.16177   0.00000  Uiso   1.00
C563   C     0.78236   0.83419   0.38940   0.00000  Uiso   1.00
C564   C     0.88431   0.83248   0.11060   0.00000  Uiso   1.00
C565   C     0.72576   0.80458   0.46124   0.00000  Uiso   1.00
C566   C     0.94090   0.86209   0.03876   0.00000  Uiso   1.00
C567   C     0.73514   0.81856   0.41645   0.00000  Uiso   1.00
C568   C     0.93153   0.84811   0.08355   0.00000  Uiso   1.00
C569   C     0.81456   0.84425   0.41111   0.00000  Uiso   1.00
C570   C     0.85210   0.82242   0.08889   0.00000  Uiso   1.00
C571   C     0.80265   0.83512   0.45794   0.00000  Uiso   1.00
C572   C     0.86402   0.83155   0.04206   0.00000  Uiso   1.00
C573   C     0.76093   0.80999   0.48077   0.00000  Uiso   1.00
C574   C     0.90574   0.85668   0.01923   0.00000  Uiso   1.00
C575   C     0.83511   0.84482   0.48016   0.00000  Uiso   1.00
C576   C     0.83155   0.82184   0.01984   0.00000  Uiso   1.00
H577   H     0.90437   0.70630   0.19596   0.00000  Uiso   1.00
H578   H     0.76230   0.96037   0.30404   0.00000  Uiso   1.00
N579   N     0.71426   0.83334   0.25001   0.00000  Uiso   1.00
N580   N     0.95241   0.83332   0.24999   0.00000  Uiso   1.00
O581   O     0.79512   0.89442   0.25000   0.00000  Uiso   1.00
O582   O     0.87154   0.77225   0.25000   0.00000  Uiso   1.00
O583   O     0.87157   0.89441   0.25000   0.00000  Uiso   1.00
O584   O     0.79510   0.77226   0.25000   0.00000  Uiso   1.00
O585   O     0.77328   0.83334   0.31612   0.00000  Uiso   1.00
O586   O     0.89339   0.83333   0.18388   0.00000  Uiso   1.00
O587   O     0.84972   0.83333   0.31612   0.00000  Uiso   1.00
O588   O     0.81695   0.83334   0.18388   0.00000  Uiso   1.00
Zn589  Zn    0.78229   0.83334   0.25000   0.00000  Uiso   1.00
Zn590  Zn    0.88438   0.83333   0.25000   0.00000  Uiso   1.00
F591   F     0.72238   0.75845   0.03887   0.00000  Uiso   1.00
F592   F     0.94429   0.90821   0.46113   0.00000  Uiso   1.00
F593   F     0.80570   0.81033   0.11538   0.00000  Uiso   1.00
F594   F     0.86096   0.85634   0.38462   0.00000  Uiso   1.00
O595   O     0.96743   0.85388   0.10079   0.00000  Uiso   1.00
H596   H     0.96772   0.82878   0.11907   0.00000  Uiso   1.00
O597   O     0.69924   0.81278   0.39921   0.00000  Uiso   1.00
H598   H     0.69895   0.83789   0.38093   0.00000  Uiso   1.00
F599   F     0.68287   0.78455   0.48480   0.00000  Uiso   1.00
F600   F     0.98379   0.88212   0.01520   0.00000  Uiso   1.00
F601   F     0.79927   0.75871   0.06362   0.00000  Uiso   1.00
F602   F     0.86739   0.90795   0.43638   0.00000  Uiso   1.00
O603   O     0.91424   0.96034   0.18211   0.00000  Uiso   1.00
H604   H     0.90515   0.93195   0.17554   0.00000  Uiso   1.00
O605   O     0.75243   0.70632   0.31789   0.00000  Uiso   1.00
H606   H     0.76151   0.73471   0.32446   0.00000  Uiso   1.00
F607   F     0.97423   0.77680   0.19766   0.00000  Uiso   1.00
F608   F     0.69243   0.88987   0.30234   0.00000  Uiso   1.00
O609   O     0.73668   0.77565   0.19828   0.00000  Uiso   1.00
H610   H     0.72260   0.75704   0.18124   0.00000  Uiso   1.00
O611   O     0.92998   0.89102   0.30172   0.00000  Uiso   1.00
H612   H     0.94407   0.90963   0.31876   0.00000  Uiso   1.00
C613   C     0.16706   0.24657   0.74877   0.00000  Uiso   1.00
C614   C     0.16627   0.08676   0.75123   0.00000  Uiso   1.00
C615   C     0.12912   0.12326   0.53575   0.00000  Uiso   1.00
C616   C     0.20422   0.21007   0.96425   0.00000  Uiso   1.00
C617   C     0.09146   0.12059   0.51973   0.00000  Uiso   1.00
C618   C     0.24187   0.21274   0.98027   0.00000  Uiso   1.00
C619   C     0.20769   0.31255   0.71653   0.00000  Uiso   1.00
C620   C     0.12565   0.02078   0.78347   0.00000  Uiso   1.00
C621   C     0.20707   0.02212   0.71996   0.00000  Uiso   1.00
C622   C     0.12626   0.31121   0.78004   0.00000  Uiso   1.00
C623   C     0.16628   0.04264   0.75242   0.00000  Uiso   1.00
C624   C     0.16705   0.29069   0.74758   0.00000  Uiso   1.00
C625   C     0.32008   0.13818   0.72387   0.00000  Uiso   1.00
C626   C     0.01325   0.19515   0.77613   0.00000  Uiso   1.00
C627   C     0.03507   0.13791   0.72392   0.00000  Uiso   1.00
C628   C     0.29826   0.19543   0.77608   0.00000  Uiso   1.00
C629   C     0.13568   0.16764   0.83823   0.00000  Uiso   1.00
C630   C     0.19765   0.16569   0.66177   0.00000  Uiso   1.00
C631   C     0.11569   0.16752   0.88940   0.00000  Uiso   1.00
C632   C     0.21764   0.16581   0.61060   0.00000  Uiso   1.00
C633   C     0.05910   0.13791   0.96124   0.00000  Uiso   1.00
C634   C     0.27424   0.19542   0.53876   0.00000  Uiso   1.00
C635   C     0.06847   0.15189   0.91645   0.00000  Uiso   1.00
C636   C     0.26486   0.18144   0.58355   0.00000  Uiso   1.00
C637   C     0.14790   0.17758   0.91111   0.00000  Uiso   1.00
C638   C     0.18544   0.15575   0.58889   0.00000  Uiso   1.00
C639   C     0.13598   0.16845   0.95794   0.00000  Uiso   1.00
C640   C     0.19735   0.16488   0.54206   0.00000  Uiso   1.00
C641   C     0.09426   0.14332   0.98077   0.00000  Uiso   1.00
C642   C     0.23907   0.19001   0.51923   0.00000  Uiso   1.00
C643   C     0.16845   0.17816   0.98016   0.00000  Uiso   1.00
C644   C     0.16489   0.15518   0.51984   0.00000  Uiso   1.00
H645   H     0.23770   0.03963   0.69596   0.00000  Uiso   1.00
H646   H     0.09563   0.29370   0.80404   0.00000  Uiso   1.00
N647   N     0.04759   0.16668   0.75001   0.00000  Uiso   1.00
N648   N     0.28574   0.16666   0.74999   0.00000  Uiso   1.00
O649   O     0.12846   0.22775   0.75000   0.00000  Uiso   1.00
O650   O     0.20488   0.10558   0.75000   0.00000  Uiso   1.00
O651   O     0.20490   0.22774   0.75000   0.00000  Uiso   1.00
O652   O     0.12843   0.10559   0.75000   0.00000  Uiso   1.00
O653   O     0.10661   0.16667   0.81612   0.00000  Uiso   1.00
O654   O     0.22672   0.16666   0.68388   0.00000  Uiso   1.00
O655   O     0.18305   0.16666   0.81612   0.00000  Uiso   1.00
O656   O     0.15028   0.16667   0.68388   0.00000  Uiso   1.00
Zn657  Zn    0.11562   0.16667   0.75000   0.00000  Uiso   1.00
Zn658  Zn    0.21771   0.16666   0.75000   0.00000  Uiso   1.00
F659   F     0.05571   0.09179   0.53887   0.00000  Uiso   1.00
F660   F     0.27762   0.24155   0.96113   0.00000  Uiso   1.00
F661   F     0.13904   0.14366   0.61538   0.00000  Uiso   1.00
F662   F     0.19430   0.18967   0.88462   0.00000  Uiso   1.00
O663   O     0.30076   0.18722   0.60079   0.00000  Uiso   1.00
H664   H     0.30105   0.16211   0.61907   0.00000  Uiso   1.00
O665   O     0.03257   0.14612   0.89921   0.00000  Uiso   1.00
H666   H     0.03228   0.17122   0.88093   0.00000  Uiso   1.00
F667   F     0.01621   0.11788   0.98480   0.00000  Uiso   1.00
F668   F     0.31713   0.21545   0.51520   0.00000  Uiso   1.00
F669   F     0.13261   0.09205   0.56362   0.00000  Uiso   1.00
F670   F     0.20073   0.24129   0.93638   0.00000  Uiso   1.00
O671   O     0.24757   0.29368   0.68211   0.00000  Uiso   1.00
H672   H     0.23849   0.26529   0.67554   0.00000  Uiso   1.00
O673   O     0.08576   0.03966   0.81789   0.00000  Uiso   1.00
H674   H     0.09485   0.06804   0.82446   0.00000  Uiso   1.00
F675   F     0.30757   0.11013   0.69766   0.00000  Uiso   1.00
F676   F     0.02576   0.22320   0.80234   0.00000  Uiso   1.00
O677   O     0.07002   0.10898   0.69828   0.00000  Uiso   1.00
H678   H     0.05593   0.09037   0.68124   0.00000  Uiso   1.00
O679   O     0.26332   0.22435   0.80172   0.00000  Uiso   1.00
H680   H     0.27740   0.24296   0.81876   0.00000  Uiso   1.00
C681   C     0.50039   0.24657   0.74877   0.00000  Uiso   1.00
C682   C     0.49961   0.08676   0.75123   0.00000  Uiso   1.00
C683   C     0.46245   0.12326   0.53575   0.00000  Uiso   1.00
C684   C     0.53755   0.21007   0.96425   0.00000  Uiso   1.00
C685   C     0.42479   0.12059   0.51973   0.00000  Uiso   1.00
C686   C     0.57520   0.21274   0.98027   0.00000  Uiso   1.00
C687   C     0.54102   0.31255   0.71653   0.00000  Uiso   1.00
C688   C     0.45898   0.02078   0.78347   0.00000  Uiso   1.00
C689   C     0.54041   0.02212   0.71996   0.00000  Uiso   1.00
C690   C     0.45959   0.31121   0.78004   0.00000  Uiso   1.00
C691   C     0.49961   0.04264   0.75242   0.00000  Uiso   1.00
C692   C     0.50039   0.29069   0.74758   0.00000  Uiso   1.00
C693   C     0.65341   0.13818   0.72387   0.00000  Uiso   1.00
C694   C     0.34659   0.19515   0.77613   0.00000  Uiso   1.00
C695   C     0.36840   0.13791   0.72392   0.00000  Uiso   1.00
C696   C     0.63160   0.19543   0.77608   0.00000  Uiso   1.00
C697   C     0.46902   0.16764   0.83823   0.00000  Uiso   1.00
C698   C     0.53098   0.16569   0.66177   0.00000  Uiso   1.00
C699   C     0.44903   0.16752   0.88940   0.00000  Uiso   1.00
C700   C     0.55097   0.16581   0.61060   0.00000  Uiso   1.00
C701   C     0.39243   0.13791   0.96124   0.00000  Uiso   1.00
C702   C     0.60757   0.19542   0.53876   0.00000  Uiso   1.00
C703   C     0.40180   0.15189   0.91645   0.00000  Uiso   1.00
C704   C     0.59820   0.18144   0.58355   0.00000  Uiso   1.00
C705   C     0.48123   0.17758   0.91111   0.00000  Uiso   1.00
C706   C     0.51877   0.15575   0.58889   0.00000  Uiso   1.00
C707   C     0.46932   0.16845   0.95794   0.00000  Uiso   1.00
C708   C     0.53068   0.16488   0.54206   0.00000  Uiso   1.00
C709   C     0.42759   0.14332   0.98077   0.00000  Uiso   1.00
C710   C     0.57240   0.19001   0.51923   0.00000  Uiso   1.00
C711   C     0.50178   0.17816   0.98016   0.00000  Uiso   1.00
C712   C     0.49822   0.15518   0.51984   0.00000  Uiso   1.00
H713   H     0.57103   0.03963   0.69596   0.00000  Uiso   1.00
H714   H     0.42897   0.29370   0.80404   0.00000  Uiso   1.00
N715   N     0.38093   0.16668   0.75001   0.00000  Uiso   1.00
N716   N     0.61907   0.16666   0.74999   0.00000  Uiso   1.00
O717   O     0.46179   0.22775   0.75000   0.00000  Uiso   1.00
O718   O     0.53821   0.10558   0.75000   0.00000  Uiso   1.00
O719   O     0.53823   0.22774   0.75000   0.00000  Uiso   1.00
O720   O     0.46177   0.10559   0.75000   0.00000  Uiso   1.00
O721   O     0.43994   0.16667   0.81612   0.00000  Uiso   1.00
O722   O     0.56006   0.16666   0.68388   0.00000  Uiso   1.00
O723   O     0.51639   0.16666   0.81612   0.00000  Uiso   1.00
O724   O     0.48361   0.16667   0.68388   0.00000  Uiso   1.00
Zn725  Zn    0.44896   0.16667   0.75000   0.00000  Uiso   1.00
Zn726  Zn    0.55104   0.16666   0.75000   0.00000  Uiso   1.00
F727   F     0.38905   0.09179   0.53887   0.00000  Uiso   1.00
F728   F     0.61095   0.24155   0.96113   0.00000  Uiso   1.00
F729   F     0.47237   0.14366   0.61538   0.00000  Uiso   1.00
F730   F     0.52763   0.18967   0.88462   0.00000  Uiso   1.00
O731   O     0.63410   0.18722   0.60079   0.00000  Uiso   1.00
H732   H     0.63439   0.16211   0.61907   0.00000  Uiso   1.00
O733   O     0.36590   0.14612   0.89921   0.00000  Uiso   1.00
H734   H     0.36561   0.17122   0.88093   0.00000  Uiso   1.00
F735   F     0.34954   0.11788   0.98480   0.00000  Uiso   1.00
F736   F     0.65046   0.21545   0.51520   0.00000  Uiso   1.00
F737   F     0.46594   0.09205   0.56362   0.00000  Uiso   1.00
F738   F     0.53406   0.24129   0.93638   0.00000  Uiso   1.00
O739   O     0.58090   0.29368   0.68211   0.00000  Uiso   1.00
H740   H     0.57182   0.26529   0.67554   0.00000  Uiso   1.00
O741   O     0.41909   0.03966   0.81789   0.00000  Uiso   1.00
H742   H     0.42818   0.06804   0.82446   0.00000  Uiso   1.00
F743   F     0.64090   0.11013   0.69766   0.00000  Uiso   1.00
F744   F     0.35910   0.22320   0.80234   0.00000  Uiso   1.00
O745   O     0.40335   0.10898   0.69828   0.00000  Uiso   1.00
H746   H     0.38926   0.09037   0.68124   0.00000  Uiso   1.00
O747   O     0.59665   0.22435   0.80172   0.00000  Uiso   1.00
H748   H     0.61074   0.24296   0.81876   0.00000  Uiso   1.00
C749   C     0.83372   0.24657   0.74877   0.00000  Uiso   1.00
C750   C     0.83294   0.08676   0.75123   0.00000  Uiso   1.00
C751   C     0.79578   0.12326   0.53575   0.00000  Uiso   1.00
C752   C     0.87088   0.21007   0.96425   0.00000  Uiso   1.00
C753   C     0.75813   0.12059   0.51973   0.00000  Uiso   1.00
C754   C     0.90854   0.21274   0.98027   0.00000  Uiso   1.00
C755   C     0.87435   0.31255   0.71653   0.00000  Uiso   1.00
C756   C     0.79231   0.02078   0.78347   0.00000  Uiso   1.00
C757   C     0.87374   0.02212   0.71996   0.00000  Uiso   1.00
C758   C     0.79293   0.31121   0.78004   0.00000  Uiso   1.00
C759   C     0.83295   0.04264   0.75242   0.00000  Uiso   1.00
C760   C     0.83372   0.29069   0.74758   0.00000  Uiso   1.00
C761   C     0.98675   0.13818   0.72387   0.00000  Uiso   1.00
C762   C     0.67992   0.19515   0.77613   0.00000  Uiso   1.00
C763   C     0.70174   0.13791   0.72392   0.00000  Uiso   1.00
C764   C     0.96493   0.19543   0.77608   0.00000  Uiso   1.00
C765   C     0.80235   0.16764   0.83823   0.00000  Uiso   1.00
C766   C     0.86432   0.16569   0.66177   0.00000  Uiso   1.00
C767   C     0.78236   0.16752   0.88940   0.00000  Uiso   1.00
C768   C     0.88431   0.16581   0.61060   0.00000  Uiso   1.00
C769   C     0.72576   0.13791   0.96124   0.00000  Uiso   1.00
C770   C     0.94090   0.19542   0.53876   0.00000  Uiso   1.00
C771   C     0.73514   0.15189   0.91645   0.00000  Uiso   1.00
C772   C     0.93153   0.18144   0.58355   0.00000  Uiso   1.00
C773   C     0.81456   0.17758   0.91111   0.00000  Uiso   1.00
C774   C     0.85210   0.15575   0.58889   0.00000  Uiso   1.00
C775   C     0.80265   0.16845   0.95794   0.00000  Uiso   1.00
C776   C     0.86402   0.16488   0.54206   0.00000  Uiso   1.00
C777   C     0.76093   0.14332   0.98077   0.00000  Uiso   1.00
C778   C     0.90574   0.19001   0.51923   0.00000  Uiso   1.00
C779   C     0.83511   0.17816   0.98016   0.00000  Uiso   1.00
C780   C     0.83155   0.15518   0.51984   0.00000  Uiso   1.00
H781   H     0.90437   0.03963   0.69596   0.00000  Uiso   1.00
H782   H     0.76230   0.29370   0.80404   0.00000  Uiso   1.00
N783   N     0.71426   0.16668   0.75001   0.00000  Uiso   1.00
N784   N     0.95241   0.16666   0.74999   0.00000  Uiso   1.00
O785   O     0.79512   0.22775   0.75000   0.00000  Uiso   1.00
O786   O     0.87154   0.10558   0.75000   0.00000  Uiso   1.00
O787   O     0.87157   0.22774   0.75000   0.00000  Uiso   1.00
O788   O     0.79510   0.10559   0.75000   0.00000  Uiso   1.00
O789   O     0.77328   0.16667   0.81612   0.00000  Uiso   1.00
O790   O     0.89339   0.16666   0.68388   0.00000  Uiso   1.00
O791   O     0.84972   0.16666   0.81612   0.00000  Uiso   1.00
O792   O     0.81695   0.16667   0.68388   0.00000  Uiso   1.00
Zn793  Zn    0.78229   0.16667   0.75000   0.00000  Uiso   1.00
Zn794  Zn    0.88438   0.16666   0.75000   0.00000  Uiso   1.00
F795   F     0.72238   0.09179   0.53887   0.00000  Uiso   1.00
F796   F     0.94429   0.24155   0.96113   0.00000  Uiso   1.00
F797   F     0.80570   0.14366   0.61538   0.00000  Uiso   1.00
F798   F     0.86096   0.18967   0.88462   0.00000  Uiso   1.00
O799   O     0.96743   0.18722   0.60079   0.00000  Uiso   1.00
H800   H     0.96772   0.16211   0.61907   0.00000  Uiso   1.00
O801   O     0.69924   0.14612   0.89921   0.00000  Uiso   1.00
H802   H     0.69895   0.17122   0.88093   0.00000  Uiso   1.00
F803   F     0.68287   0.11788   0.98480   0.00000  Uiso   1.00
F804   F     0.98379   0.21545   0.51520   0.00000  Uiso   1.00
F805   F     0.79927   0.09205   0.56362   0.00000  Uiso   1.00
F806   F     0.86739   0.24129   0.93638   0.00000  Uiso   1.00
O807   O     0.91424   0.29368   0.68211   0.00000  Uiso   1.00
H808   H     0.90515   0.26529   0.67554   0.00000  Uiso   1.00
O809   O     0.75243   0.03966   0.81789   0.00000  Uiso   1.00
H810   H     0.76151   0.06804   0.82446   0.00000  Uiso   1.00
F811   F     0.97423   0.11013   0.69766   0.00000  Uiso   1.00
F812   F     0.69243   0.22320   0.80234   0.00000  Uiso   1.00
O813   O     0.73668   0.10898   0.69828   0.00000  Uiso   1.00
H814   H     0.72260   0.09037   0.68124   0.00000  Uiso   1.00
O815   O     0.92998   0.22435   0.80172   0.00000  Uiso   1.00
H816   H     0.94407   0.24296   0.81876   0.00000  Uiso   1.00
C817   C     0.16706   0.57990   0.74877   0.00000  Uiso   1.00
C818   C     0.16627   0.42010   0.75123   0.00000  Uiso   1.00
C819   C     0.12912   0.45659   0.53575   0.00000  Uiso   1.00
C820   C     0.20422   0.54341   0.96425   0.00000  Uiso   1.00
C821   C     0.09146   0.45393   0.51973   0.00000  Uiso   1.00
C822   C     0.24187   0.54607   0.98027   0.00000  Uiso   1.00
C823   C     0.20769   0.64589   0.71653   0.00000  Uiso   1.00
C824   C     0.12565   0.35411   0.78347   0.00000  Uiso   1.00
C825   C     0.20707   0.35546   0.71996   0.00000  Uiso   1.00
C826   C     0.12626   0.64454   0.78004   0.00000  Uiso   1.00
C827   C     0.16628   0.37598   0.75242   0.00000  Uiso   1.00
C828   C     0.16705   0.62402   0.74758   0.00000  Uiso   1.00
C829   C     0.32008   0.47152   0.72387   0.00000  Uiso   1.00
C830   C     0.01325   0.52848   0.77613   0.00000  Uiso   1.00
C831   C     0.03507   0.47124   0.72392   0.00000  Uiso   1.00
C832   C     0.29826   0.52876   0.77608   0.00000  Uiso   1.00
C833   C     0.13568   0.50098   0.83823   0.00000  Uiso   1.00
C834   C     0.19765   0.49902   0.66177   0.00000  Uiso   1.00
C835   C     0.11569   0.50086   0.88940   0.00000  Uiso   1.00
C836   C     0.21764   0.49914   0.61060   0.00000  Uiso   1.00
C837   C     0.05910   0.47124   0.96124   0.00000  Uiso   1.00
C838   C     0.27424   0.52876   0.53876   0.00000  Uiso   1.00
C839   C     0.06847   0.48522   0.91645   0.00000  Uiso   1.00
C840   C     0.26486   0.51478   0.58355   0.00000  Uiso   1.00
C841   C     0.14790   0.51092   0.91111   0.00000  Uiso   1.00
C842   C     0.18544   0.48908   0.58889   0.00000  Uiso   1.00
C843   C     0.13598   0.50179   0.95794   0.00000  Uiso   1.00
C844   C     0.19735   0.49821   0.54206   0.00000  Uiso   1.00
C845   C     0.09426   0.47665   0.98077   0.00000  Uiso   1.00
C846   C     0.23907   0.52335   0.51923   0.00000  Uiso   1.00
C847   C     0.16845   0.51149   0.98016   0.00000  Uiso   1.00
C848   C     0.16489   0.48851   0.51984   0.00000  Uiso   1.00
H849   H     0.23770   0.37296   0.69596   0.00000  Uiso   1.00
H850   H     0.09563   0.62703   0.80404   0.00000  Uiso   1.00
N851   N     0.04759   0.50001   0.75001   0.00000  Uiso   1.00
N852   N     0.28574   0.49999   0.74999   0.00000  Uiso   1.00
O853   O     0.12846   0.56108   0.75000   0.00000  Uiso   1.00
O854   O     0.20488   0.43892   0.75000   0.00000  Uiso   1.00
O855   O     0.20490   0.56107   0.75000   0.00000  Uiso   1.00
O856   O     0.12843   0.43893   0.75000   0.00000  Uiso   1.00
O857   O     0.10661   0.50001   0.81612   0.00000  Uiso   1.00
O858   O     0.22672   0.49999   0.68388   0.00000  Uiso   1.00
O859   O     0.18305   0.50000   0.81612   0.00000  Uiso   1.00
O860   O     0.15028   0.50000   0.68388   0.00000  Uiso   1.00
Zn861  Zn    0.11562   0.50001   0.75000   0.00000  Uiso   1.00
Zn862  Zn    0.21771   0.49999   0.75000   0.00000  Uiso   1.00
F863   F     0.05571   0.42512   0.53887   0.00000  Uiso   1.00
F864   F     0.27762   0.57488   0.96113   0.00000  Uiso   1.00
F865   F     0.13904   0.47700   0.61538   0.00000  Uiso   1.00
F866   F     0.19430   0.52300   0.88462   0.00000  Uiso   1.00
O867   O     0.30076   0.52055   0.60079   0.00000  Uiso   1.00
H868   H     0.30105   0.49544   0.61907   0.00000  Uiso   1.00
O869   O     0.03257   0.47945   0.89921   0.00000  Uiso   1.00
H870   H     0.03228   0.50456   0.88093   0.00000  Uiso   1.00
F871   F     0.01621   0.45121   0.98480   0.00000  Uiso   1.00
F872   F     0.31713   0.54879   0.51520   0.00000  Uiso   1.00
F873   F     0.13261   0.42538   0.56362   0.00000  Uiso   1.00
F874   F     0.20073   0.57462   0.93638   0.00000  Uiso   1.00
O875   O     0.24757   0.62701   0.68211   0.00000  Uiso   1.00
H876   H     0.23849   0.59862   0.67554   0.00000  Uiso   1.00
O877   O     0.08576   0.37299   0.81789   0.00000  Uiso   1.00
H878   H     0.09485   0.40138   0.82446   0.00000  Uiso   1.00
F879   F     0.30757   0.44347   0.69766   0.00000  Uiso   1.00
F880   F     0.02576   0.55653   0.80234   0.00000  Uiso   1.00
O881   O     0.07002   0.44231   0.69828   0.00000  Uiso   1.00
H882   H     0.05593   0.42371   0.68124   0.00000  Uiso   1.00
O883   O     0.26332   0.55769   0.80172   0.00000  Uiso   1.00
H884   H     0.27740   0.57629   0.81876   0.00000  Uiso   1.00
C885   C     0.50039   0.57990   0.74877   0.00000  Uiso   1.00
C886   C     0.49961   0.42010   0.75123   0.00000  Uiso   1.00
C887   C     0.46245   0.45659   0.53575   0.00000  Uiso   1.00
C888   C     0.53755   0.54341   0.96425   0.00000  Uiso   1.00
C889   C     0.42479   0.45393   0.51973   0.00000  Uiso   1.00
C890   C     0.57520   0.54607   0.98027   0.00000  Uiso   1.00
C891   C     0.54102   0.64589   0.71653   0.00000  Uiso   1.00
C892   C     0.45898   0.35411   0.78347   0.00000  Uiso   1.00
C893   C     0.54041   0.35546   0.71996   0.00000  Uiso   1.00
C894   C     0.45959   0.64454   0.78004   0.00000  Uiso   1.00
C895   C     0.49961   0.37598   0.75242   0.00000  Uiso   1.00
C896   C     0.50039   0.62402   0.74758   0.00000  Uiso   1.00
C897   C     0.65341   0.47152   0.72387   0.00000  Uiso   1.00
C898   C     0.34659   0.52848   0.77613   0.00000  Uiso   1.00
C899   C     0.36840   0.47124   0.72392   0.00000  Uiso   1.00
C900   C     0.63160   0.52876   0.77608   0.00000  Uiso   1.00
C901   C     0.46902   0.50098   0.83823   0.00000  Uiso   1.00
C902   C     0.53098   0.49902   0.66177   0.00000  Uiso   1.00
C903   C     0.44903   0.50086   0.88940   0.00000  Uiso   1.00
C904   C     0.55097   0.49914   0.61060   0.00000  Uiso   1.00
C905   C     0.39243   0.47124   0.96124   0.00000  Uiso   1.00
C906   C     0.60757   0.52876   0.53876   0.00000  Uiso   1.00
C907   C     0.40180   0.48522   0.91645   0.00000  Uiso   1.00
C908   C     0.59820   0.51478   0.58355   0.00000  Uiso   1.00
C909   C     0.48123   0.51092   0.91111   0.00000  Uiso   1.00
C910   C     0.51877   0.48908   0.58889   0.00000  Uiso   1.00
C911   C     0.46932   0.50179   0.95794   0.00000  Uiso   1.00
C912   C     0.53068   0.49821   0.54206   0.00000  Uiso   1.00
C913   C     0.42759   0.47665   0.98077   0.00000  Uiso   1.00
C914   C     0.57240   0.52335   0.51923   0.00000  Uiso   1.00
C915   C     0.50178   0.51149   0.98016   0.00000  Uiso   1.00
C916   C     0.49822   0.48851   0.51984   0.00000  Uiso   1.00
H917   H     0.57103   0.37296   0.69596   0.00000  Uiso   1.00
H918   H     0.42897   0.62703   0.80404   0.00000  Uiso   1.00
N919   N     0.38093   0.50001   0.75001   0.00000  Uiso   1.00
N920   N     0.61907   0.49999   0.74999   0.00000  Uiso   1.00
O921   O     0.46179   0.56108   0.75000   0.00000  Uiso   1.00
O922   O     0.53821   0.43892   0.75000   0.00000  Uiso   1.00
O923   O     0.53823   0.56107   0.75000   0.00000  Uiso   1.00
O924   O     0.46177   0.43893   0.75000   0.00000  Uiso   1.00
O925   O     0.43994   0.50001   0.81612   0.00000  Uiso   1.00
O926   O     0.56006   0.49999   0.68388   0.00000  Uiso   1.00
O927   O     0.51639   0.50000   0.81612   0.00000  Uiso   1.00
O928   O     0.48361   0.50000   0.68388   0.00000  Uiso   1.00
Zn929  Zn    0.44896   0.50001   0.75000   0.00000  Uiso   1.00
Zn930  Zn    0.55104   0.49999   0.75000   0.00000  Uiso   1.00
F931   F     0.38905   0.42512   0.53887   0.00000  Uiso   1.00
F932   F     0.61095   0.57488   0.96113   0.00000  Uiso   1.00
F933   F     0.47237   0.47700   0.61538   0.00000  Uiso   1.00
F934   F     0.52763   0.52300   0.88462   0.00000  Uiso   1.00
O935   O     0.63410   0.52055   0.60079   0.00000  Uiso   1.00
H936   H     0.63439   0.49544   0.61907   0.00000  Uiso   1.00
O937   O     0.36590   0.47945   0.89921   0.00000  Uiso   1.00
H938   H     0.36561   0.50456   0.88093   0.00000  Uiso   1.00
F939   F     0.34954   0.45121   0.98480   0.00000  Uiso   1.00
F940   F     0.65046   0.54879   0.51520   0.00000  Uiso   1.00
F941   F     0.46594   0.42538   0.56362   0.00000  Uiso   1.00
F942   F     0.53406   0.57462   0.93638   0.00000  Uiso   1.00
O943   O     0.58090   0.62701   0.68211   0.00000  Uiso   1.00
H944   H     0.57182   0.59862   0.67554   0.00000  Uiso   1.00
O945   O     0.41909   0.37299   0.81789   0.00000  Uiso   1.00
H946   H     0.42818   0.40138   0.82446   0.00000  Uiso   1.00
F947   F     0.64090   0.44347   0.69766   0.00000  Uiso   1.00
F948   F     0.35910   0.55653   0.80234   0.00000  Uiso   1.00
O949   O     0.40335   0.44231   0.69828   0.00000  Uiso   1.00
H950   H     0.38926   0.42371   0.68124   0.00000  Uiso   1.00
O951   O     0.59665   0.55769   0.80172   0.00000  Uiso   1.00
H952   H     0.61074   0.57629   0.81876   0.00000  Uiso   1.00
C953   C     0.83372   0.57990   0.74877   0.00000  Uiso   1.00
C954   C     0.83294   0.42010   0.75123   0.00000  Uiso   1.00
C955   C     0.79578   0.45659   0.53575   0.00000  Uiso   1.00
C956   C     0.87088   0.54341   0.96425   0.00000  Uiso   1.00
C957   C     0.75813   0.45393   0.51973   0.00000  Uiso   1.00
C958   C     0.90854   0.54607   0.98027   0.00000  Uiso   1.00
C959   C     0.87435   0.64589   0.71653   0.00000  Uiso   1.00
C960   C     0.79231   0.35411   0.78347   0.00000  Uiso   1.00
C961   C     0.87374   0.35546   0.71996   0.00000  Uiso   1.00
C962   C     0.79293   0.64454   0.78004   0.00000  Uiso   1.00
C963   C     0.83295   0.37598   0.75242   0.00000  Uiso   1.00
C964   C     0.83372   0.62402   0.74758   0.00000  Uiso   1.00
C965   C     0.98675   0.47152   0.72387   0.00000  Uiso   1.00
C966   C     0.67992   0.52848   0.77613   0.00000  Uiso   1.00
C967   C     0.70174   0.47124   0.72392   0.00000  Uiso   1.00
C968   C     0.96493   0.52876   0.77608   0.00000  Uiso   1.00
C969   C     0.80235   0.50098   0.83823   0.00000  Uiso   1.00
C970   C     0.86432   0.49902   0.66177   0.00000  Uiso   1.00
C971   C     0.78236   0.50086   0.88940   0.00000  Uiso   1.00
C972   C     0.88431   0.49914   0.61060   0.00000  Uiso   1.00
C973   C     0.72576   0.47124   0.96124   0.00000  Uiso   1.00
C974   C     0.94090   0.52876   0.53876   0.00000  Uiso   1.00
C975   C     0.73514   0.48522   0.91645   0.00000  Uiso   1.00
C976   C     0.93153   0.51478   0.58355   0.00000  Uiso   1.00
C977   C     0.81456   0.51092   0.91111   0.00000  Uiso   1.00
C978   C     0.85210   0.48908   0.58889   0.00000  Uiso   1.00
C979   C     0.80265   0.50179   0.95794   0.00000  Uiso   1.00
C980   C     0.86402   0.49821   0.54206   0.00000  Uiso   1.00
C981   C     0.76093   0.47665   0.98077   0.00000  Uiso   1.00
C982   C     0.90574   0.52335   0.51923   0.00000  Uiso   1.00
C983   C     0.83511   0.51149   0.98016   0.00000  Uiso   1.00
C984   C     0.83155   0.48851   0.51984   0.00000  Uiso   1.00
H985   H     0.90437   0.37296   0.69596   0.00000  Uiso   1.00
H986   H     0.76230   0.62703   0.80404   0.00000  Uiso   1.00
N987   N     0.71426   0.50001   0.75001   0.00000  Uiso   1.00
N988   N     0.95241   0.49999   0.74999   0.00000  Uiso   1.00
O989   O     0.79512   0.56108   0.75000   0.00000  Uiso   1.00
O990   O     0.87154   0.43892   0.75000   0.00000  Uiso   1.00
O991   O     0.87157   0.56107   0.75000   0.00000  Uiso   1.00
O992   O     0.79510   0.43893   0.75000   0.00000  Uiso   1.00
O993   O     0.77328   0.50001   0.81612   0.00000  Uiso   1.00
O994   O     0.89339   0.49999   0.68388   0.00000  Uiso   1.00
O995   O     0.84972   0.50000   0.81612   0.00000  Uiso   1.00
O996   O     0.81695   0.50000   0.68388   0.00000  Uiso   1.00
Zn997  Zn    0.78229   0.50001   0.75000   0.00000  Uiso   1.00
Zn998  Zn    0.88438   0.49999   0.75000   0.00000  Uiso   1.00
F999   F     0.72238   0.42512   0.53887   0.00000  Uiso   1.00
F1000  F     0.94429   0.57488   0.96113   0.00000  Uiso   1.00
F1001  F     0.80570   0.47700   0.61538   0.00000  Uiso   1.00
F1002  F     0.86096   0.52300   0.88462   0.00000  Uiso   1.00
O1003  O     0.96743   0.52055   0.60079   0.00000  Uiso   1.00
H1004  H     0.96772   0.49544   0.61907   0.00000  Uiso   1.00
O1005  O     0.69924   0.47945   0.89921   0.00000  Uiso   1.00
H1006  H     0.69895   0.50456   0.88093   0.00000  Uiso   1.00
F1007  F     0.68287   0.45121   0.98480   0.00000  Uiso   1.00
F1008  F     0.98379   0.54879   0.51520   0.00000  Uiso   1.00
F1009  F     0.79927   0.42538   0.56362   0.00000  Uiso   1.00
F1010  F     0.86739   0.57462   0.93638   0.00000  Uiso   1.00
O1011  O     0.91424   0.62701   0.68211   0.00000  Uiso   1.00
H1012  H     0.90515   0.59862   0.67554   0.00000  Uiso   1.00
O1013  O     0.75243   0.37299   0.81789   0.00000  Uiso   1.00
H1014  H     0.76151   0.40138   0.82446   0.00000  Uiso   1.00
F1015  F     0.97423   0.44347   0.69766   0.00000  Uiso   1.00
F1016  F     0.69243   0.55653   0.80234   0.00000  Uiso   1.00
O1017  O     0.73668   0.44231   0.69828   0.00000  Uiso   1.00
H1018  H     0.72260   0.42371   0.68124   0.00000  Uiso   1.00
O1019  O     0.92998   0.55769   0.80172   0.00000  Uiso   1.00
H1020  H     0.94407   0.57629   0.81876   0.00000  Uiso   1.00
C1021  C     0.16706   0.91324   0.74877   0.00000  Uiso   1.00
C1022  C     0.16627   0.75343   0.75123   0.00000  Uiso   1.00
C1023  C     0.12912   0.78993   0.53575   0.00000  Uiso   1.00
C1024  C     0.20422   0.87674   0.96425   0.00000  Uiso   1.00
C1025  C     0.09146   0.78726   0.51973   0.00000  Uiso   1.00
C1026  C     0.24187   0.87941   0.98027   0.00000  Uiso   1.00
C1027  C     0.20769   0.97922   0.71653   0.00000  Uiso   1.00
C1028  C     0.12565   0.68745   0.78347   0.00000  Uiso   1.00
C1029  C     0.20707   0.68879   0.71996   0.00000  Uiso   1.00
C1030  C     0.12626   0.97788   0.78004   0.00000  Uiso   1.00
C1031  C     0.16628   0.70931   0.75242   0.00000  Uiso   1.00
C1032  C     0.16705   0.95736   0.74758   0.00000  Uiso   1.00
C1033  C     0.32008   0.80485   0.72387   0.00000  Uiso   1.00
C1034  C     0.01325   0.86182   0.77613   0.00000  Uiso   1.00
C1035  C     0.03507   0.80457   0.72392   0.00000  Uiso   1.00
C1036  C     0.29826   0.86209   0.77608   0.00000  Uiso   1.00
C1037  C     0.13568   0.83431   0.83823   0.00000  Uiso   1.00
C1038  C     0.19765   0.83236   0.66177   0.00000  Uiso   1.00
C1039  C     0.11569   0.83419   0.88940   0.00000  Uiso   1.00
C1040  C     0.21764   0.83248   0.61060   0.00000  Uiso   1.00
C1041  C     0.05910   0.80458   0.96124   0.00000  Uiso   1.00
C1042  C     0.27424   0.86209   0.53876   0.00000  Uiso   1.00
C1043  C     0.06847   0.81856   0.91645   0.00000  Uiso   1.00
C1044  C     0.26486   0.84811   0.58355   0.00000  Uiso   1.00
C1045  C     0.14790   0.84425   0.91111   0.00000  Uiso   1.00
C1046  C     0.18544   0.82242   0.58889   0.00000  Uiso   1.00
C1047  C     0.13598   0.83512   0.95794   0.00000  Uiso   1.00
C1048  C     0.19735   0.83155   0.54206   0.00000  Uiso   1.00
C1049  C     0.09426   0.80999   0.98077   0.00000  Uiso   1.00
C1050  C     0.23907   0.85668   0.51923   0.00000  Uiso   1.00
C1051  C     0.16845   0.84482   0.98016   0.00000  Uiso   1.00
C1052  C     0.16489   0.82184   0.51984   0.00000  Uiso   1.00
H1053  H     0.23770   0.70630   0.69596   0.00000  Uiso   1.00
H1054  H     0.09563   0.96037   0.80404   0.00000  Uiso   1.00
N1055  N     0.04759   0.83334   0.75001   0.00000  Uiso   1.00
N1056  N     0.28574   0.83332   0.74999   0.00000  Uiso   1.00
O1057  O     0.12846   0.89442   0.75000   0.00000  Uiso   1.00
O1058  O     0.20488   0.77225   0.75000   0.00000  Uiso   1.00
O1059  O     0.20490   0.89441   0.75000   0.00000  Uiso   1.00
O1060  O     0.12843   0.77226   0.75000   0.00000  Uiso   1.00
O1061  O     0.10661   0.83334   0.81612   0.00000  Uiso   1.00
O1062  O     0.22672   0.83333   0.68388   0.00000  Uiso   1.00
O1063  O     0.18305   0.83333   0.81612   0.00000  Uiso   1.00
O1064  O     0.15028   0.83334   0.68388   0.00000  Uiso   1.00
Zn1065 Zn    0.11562   0.83334   0.75000   0.00000  Uiso   1.00
Zn1066 Zn    0.21771   0.83333   0.75000   0.00000  Uiso   1.00
F1067  F     0.05571   0.75845   0.53887   0.00000  Uiso   1.00
F1068  F     0.27762   0.90821   0.96113   0.00000  Uiso   1.00
F1069  F     0.13904   0.81033   0.61538   0.00000  Uiso   1.00
F1070  F     0.19430   0.85634   0.88462   0.00000  Uiso   1.00
O1071  O     0.30076   0.85388   0.60079   0.00000  Uiso   1.00
H1072  H     0.30105   0.82878   0.61907   0.00000  Uiso   1.00
O1073  O     0.03257   0.81278   0.89921   0.00000  Uiso   1.00
H1074  H     0.03228   0.83789   0.88093   0.00000  Uiso   1.00
F1075  F     0.01621   0.78455   0.98480   0.00000  Uiso   1.00
F1076  F     0.31713   0.88212   0.51520   0.00000  Uiso   1.00
F1077  F     0.13261   0.75871   0.56362   0.00000  Uiso   1.00
F1078  F     0.20073   0.90795   0.93638   0.00000  Uiso   1.00
O1079  O     0.24757   0.96034   0.68211   0.00000  Uiso   1.00
H1080  H     0.23849   0.93195   0.67554   0.00000  Uiso   1.00
O1081  O     0.08576   0.70632   0.81789   0.00000  Uiso   1.00
H1082  H     0.09485   0.73471   0.82446   0.00000  Uiso   1.00
F1083  F     0.30757   0.77680   0.69766   0.00000  Uiso   1.00
F1084  F     0.02576   0.88987   0.80234   0.00000  Uiso   1.00
O1085  O     0.07002   0.77565   0.69828   0.00000  Uiso   1.00
H1086  H     0.05593   0.75704   0.68124   0.00000  Uiso   1.00
O1087  O     0.26332   0.89102   0.80172   0.00000  Uiso   1.00
H1088  H     0.27740   0.90963   0.81876   0.00000  Uiso   1.00
C1089  C     0.50039   0.91324   0.74877   0.00000  Uiso   1.00
C1090  C     0.49961   0.75343   0.75123   0.00000  Uiso   1.00
C1091  C     0.46245   0.78993   0.53575   0.00000  Uiso   1.00
C1092  C     0.53755   0.87674   0.96425   0.00000  Uiso   1.00
C1093  C     0.42479   0.78726   0.51973   0.00000  Uiso   1.00
C1094  C     0.57520   0.87941   0.98027   0.00000  Uiso   1.00
C1095  C     0.54102   0.97922   0.71653   0.00000  Uiso   1.00
C1096  C     0.45898   0.68745   0.78347   0.00000  Uiso   1.00
C1097  C     0.54041   0.68879   0.71996   0.00000  Uiso   1.00
C1098  C     0.45959   0.97788   0.78004   0.00000  Uiso   1.00
C1099  C     0.49961   0.70931   0.75242   0.00000  Uiso   1.00
C1100  C     0.50039   0.95736   0.74758   0.00000  Uiso   1.00
C1101  C     0.65341   0.80485   0.72387   0.00000  Uiso   1.00
C1102  C     0.34659   0.86182   0.77613   0.00000  Uiso   1.00
C1103  C     0.36840   0.80457   0.72392   0.00000  Uiso   1.00
C1104  C     0.63160   0.86209   0.77608   0.00000  Uiso   1.00
C1105  C     0.46902   0.83431   0.83823   0.00000  Uiso   1.00
C1106  C     0.53098   0.83236   0.66177   0.00000  Uiso   1.00
C1107  C     0.44903   0.83419   0.88940   0.00000  Uiso   1.00
C1108  C     0.55097   0.83248   0.61060   0.00000  Uiso   1.00
C1109  C     0.39243   0.80458   0.96124   0.00000  Uiso   1.00
C1110  C     0.60757   0.86209   0.53876   0.00000  Uiso   1.00
C1111  C     0.40180   0.81856   0.91645   0.00000  Uiso   1.00
C1112  C     0.59820   0.84811   0.58355   0.00000  Uiso   1.00
C1113  C     0.48123   0.84425   0.91111   0.00000  Uiso   1.00
C1114  C     0.51877   0.82242   0.58889   0.00000  Uiso   1.00
C1115  C     0.46932   0.83512   0.95794   0.00000  Uiso   1.00
C1116  C     0.53068   0.83155   0.54206   0.00000  Uiso   1.00
C1117  C     0.42759   0.80999   0.98077   0.00000  Uiso   1.00
C1118  C     0.57240   0.85668   0.51923   0.00000  Uiso   1.00
C1119  C     0.50178   0.84482   0.98016   0.00000  Uiso   1.00
C1120  C     0.49822   0.82184   0.51984   0.00000  Uiso   1.00
H1121  H     0.57103   0.70630   0.69596   0.00000  Uiso   1.00
H1122  H     0.42897   0.96037   0.80404   0.00000  Uiso   1.00
N1123  N     0.38093   0.83334   0.75001   0.00000  Uiso   1.00
N1124  N     0.61907   0.83332   0.74999   0.00000  Uiso   1.00
O1125  O     0.46179   0.89442   0.75000   0.00000  Uiso   1.00
O1126  O     0.53821   0.77225   0.75000   0.00000  Uiso   1.00
O1127  O     0.53823   0.89441   0.75000   0.00000  Uiso   1.00
O1128  O     0.46177   0.77226   0.75000   0.00000  Uiso   1.00
O1129  O     0.43994   0.83334   0.81612   0.00000  Uiso   1.00
O1130  O     0.56006   0.83333   0.68388   0.00000  Uiso   1.00
O1131  O     0.51639   0.83333   0.81612   0.00000  Uiso   1.00
O1132  O     0.48361   0.83334   0.68388   0.00000  Uiso   1.00
Zn1133 Zn    0.44896   0.83334   0.75000   0.00000  Uiso   1.00
Zn1134 Zn    0.55104   0.83333   0.75000   0.00000  Uiso   1.00
F1135  F     0.38905   0.75845   0.53887   0.00000  Uiso   1.00
F1136  F     0.61095   0.90821   0.96113   0.00000  Uiso   1.00
F1137  F     0.47237   0.81033   0.61538   0.00000  Uiso   1.00
F1138  F     0.52763   0.85634   0.88462   0.00000  Uiso   1.00
O1139  O     0.63410   0.85388   0.60079   0.00000  Uiso   1.00
H1140  H     0.63439   0.82878   0.61907   0.00000  Uiso   1.00
O1141  O     0.36590   0.81278   0.89921   0.00000  Uiso   1.00
H1142  H     0.36561   0.83789   0.88093   0.00000  Uiso   1.00
F1143  F     0.34954   0.78455   0.98480   0.00000  Uiso   1.00
F1144  F     0.65046   0.88212   0.51520   0.00000  Uiso   1.00
F1145  F     0.46594   0.75871   0.56362   0.00000  Uiso   1.00
F1146  F     0.53406   0.90795   0.93638   0.00000  Uiso   1.00
O1147  O     0.58090   0.96034   0.68211   0.00000  Uiso   1.00
H1148  H     0.57182   0.93195   0.67554   0.00000  Uiso   1.00
O1149  O     0.41909   0.70632   0.81789   0.00000  Uiso   1.00
H1150  H     0.42818   0.73471   0.82446   0.00000  Uiso   1.00
F1151  F     0.64090   0.77680   0.69766   0.00000  Uiso   1.00
F1152  F     0.35910   0.88987   0.80234   0.00000  Uiso   1.00
O1153  O     0.40335   0.77565   0.69828   0.00000  Uiso   1.00
H1154  H     0.38926   0.75704   0.68124   0.00000  Uiso   1.00
O1155  O     0.59665   0.89102   0.80172   0.00000  Uiso   1.00
H1156  H     0.61074   0.90963   0.81876   0.00000  Uiso   1.00
C1157  C     0.83372   0.91324   0.74877   0.00000  Uiso   1.00
C1158  C     0.83294   0.75343   0.75123   0.00000  Uiso   1.00
C1159  C     0.79578   0.78993   0.53575   0.00000  Uiso   1.00
C1160  C     0.87088   0.87674   0.96425   0.00000  Uiso   1.00
C1161  C     0.75813   0.78726   0.51973   0.00000  Uiso   1.00
C1162  C     0.90854   0.87941   0.98027   0.00000  Uiso   1.00
C1163  C     0.87435   0.97922   0.71653   0.00000  Uiso   1.00
C1164  C     0.79231   0.68745   0.78347   0.00000  Uiso   1.00
C1165  C     0.87374   0.68879   0.71996   0.00000  Uiso   1.00
C1166  C     0.79293   0.97788   0.78004   0.00000  Uiso   1.00
C1167  C     0.83295   0.70931   0.75242   0.00000  Uiso   1.00
C1168  C     0.83372   0.95736   0.74758   0.00000  Uiso   1.00
C1169  C     0.98675   0.80485   0.72387   0.00000  Uiso   1.00
C1170  C     0.67992   0.86182   0.77613   0.00000  Uiso   1.00
C1171  C     0.70174   0.80457   0.72392   0.00000  Uiso   1.00
C1172  C     0.96493   0.86209   0.77608   0.00000  Uiso   1.00
C1173  C     0.80235   0.83431   0.83823   0.00000  Uiso   1.00
C1174  C     0.86432   0.83236   0.66177   0.00000  Uiso   1.00
C1175  C     0.78236   0.83419   0.88940   0.00000  Uiso   1.00
C1176  C     0.88431   0.83248   0.61060   0.00000  Uiso   1.00
C1177  C     0.72576   0.80458   0.96124   0.00000  Uiso   1.00
C1178  C     0.94090   0.86209   0.53876   0.00000  Uiso   1.00
C1179  C     0.73514   0.81856   0.91645   0.00000  Uiso   1.00
C1180  C     0.93153   0.84811   0.58355   0.00000  Uiso   1.00
C1181  C     0.81456   0.84425   0.91111   0.00000  Uiso   1.00
C1182  C     0.85210   0.82242   0.58889   0.00000  Uiso   1.00
C1183  C     0.80265   0.83512   0.95794   0.00000  Uiso   1.00
C1184  C     0.86402   0.83155   0.54206   0.00000  Uiso   1.00
C1185  C     0.76093   0.80999   0.98077   0.00000  Uiso   1.00
C1186  C     0.90574   0.85668   0.51923   0.00000  Uiso   1.00
C1187  C     0.83511   0.84482   0.98016   0.00000  Uiso   1.00
C1188  C     0.83155   0.82184   0.51984   0.00000  Uiso   1.00
H1189  H     0.90437   0.70630   0.69596   0.00000  Uiso   1.00
H1190  H     0.76230   0.96037   0.80404   0.00000  Uiso   1.00
N1191  N     0.71426   0.83334   0.75001   0.00000  Uiso   1.00
N1192  N     0.95241   0.83332   0.74999   0.00000  Uiso   1.00
O1193  O     0.79512   0.89442   0.75000   0.00000  Uiso   1.00
O1194  O     0.87154   0.77225   0.75000   0.00000  Uiso   1.00
O1195  O     0.87157   0.89441   0.75000   0.00000  Uiso   1.00
O1196  O     0.79510   0.77226   0.75000   0.00000  Uiso   1.00
O1197  O     0.77328   0.83334   0.81612   0.00000  Uiso   1.00
O1198  O     0.89339   0.83333   0.68388   0.00000  Uiso   1.00
O1199  O     0.84972   0.83333   0.81612   0.00000  Uiso   1.00
O1200  O     0.81695   0.83334   0.68388   0.00000  Uiso   1.00
Zn1201 Zn    0.78229   0.83334   0.75000   0.00000  Uiso   1.00
Zn1202 Zn    0.88438   0.83333   0.75000   0.00000  Uiso   1.00
F1203  F     0.72238   0.75845   0.53887   0.00000  Uiso   1.00
F1204  F     0.94429   0.90821   0.96113   0.00000  Uiso   1.00
F1205  F     0.80570   0.81033   0.61538   0.00000  Uiso   1.00
F1206  F     0.86096   0.85634   0.88462   0.00000  Uiso   1.00
O1207  O     0.96743   0.85388   0.60079   0.00000  Uiso   1.00
H1208  H     0.96772   0.82878   0.61907   0.00000  Uiso   1.00
O1209  O     0.69924   0.81278   0.89921   0.00000  Uiso   1.00
H1210  H     0.69895   0.83789   0.88093   0.00000  Uiso   1.00
F1211  F     0.68287   0.78455   0.98480   0.00000  Uiso   1.00
F1212  F     0.98379   0.88212   0.51520   0.00000  Uiso   1.00
F1213  F     0.79927   0.75871   0.56362   0.00000  Uiso   1.00
F1214  F     0.86739   0.90795   0.93638   0.00000  Uiso   1.00
O1215  O     0.91424   0.96034   0.68211   0.00000  Uiso   1.00
H1216  H     0.90515   0.93195   0.67554   0.00000  Uiso   1.00
O1217  O     0.75243   0.70632   0.81789   0.00000  Uiso   1.00
H1218  H     0.76151   0.73471   0.82446   0.00000  Uiso   1.00
F1219  F     0.97423   0.77680   0.69766   0.00000  Uiso   1.00
F1220  F     0.69243   0.88987   0.80234   0.00000  Uiso   1.00
O1221  O     0.73668   0.77565   0.69828   0.00000  Uiso   1.00
H1222  H     0.72260   0.75704   0.68124   0.00000  Uiso   1.00
O1223  O     0.92998   0.89102   0.80172   0.00000  Uiso   1.00
H1224  H     0.94407   0.90963   0.81876   0.00000  Uiso   1.00
loop_
_geom_bond_atom_site_label_1
_geom_bond_atom_site_label_2
_geom_bond_distance
_geom_bond_site_symmetry_2
_ccdc_geom_bond_type
C1     O37     1.279   .     A
C1     C12     1.410   .     S
C1     O39     1.281   .     A
C2     O38     1.279   .     A
C2     C11     1.410   .     S
C2     O40     1.281   .     A
C3     C5      1.389   .     A
C3     F57     1.358   .     S
C3     C32     1.418   .     A
C4     C31     1.418   .     A
C4     C6      1.389   .     A
C4     F58     1.358   .     S
C5     F47     1.359   .     S
C5     C641    1.398   1_554 S
C6     F48     1.359   .     S
C6     C642    1.398   .     S
C7     O59     1.382   .     S
C7     C12     1.408   .     A
C7     C213    1.373   .     S
C8     O61     1.382   .     S
C8     C11     1.408   .     A
C8     C418    1.373   1_545 S
C9     C11     1.395   .     A
C9     H33     1.085   .     S
C9     C415    1.373   1_545 S
C10    H34     1.085   .     S
C10    C12     1.395   .     A
C10    C212    1.373   .     S
C13    F63     1.356   .     S
C13    N36     1.364   .     A
C13    C83     1.429   .     S
C14    F64     1.356   .     S
C14    N35     1.364   .     A
C14    C152    1.429   1_455 S
C15    O65     1.379   .     S
C15    N35     1.369   .     A
C15    C149    1.429   1_455 S
C16    O67     1.379   .     S
C16    N36     1.369   .     A
C16    C82     1.429   .     S
C17    O43     1.298   .     A
C17    C19     1.475   .     S
C17    O41     1.296   .     A
C18    O44     1.298   .     A
C18    O42     1.296   .     A
C18    C20     1.475   .     S
C19    C23     1.417   .     A
C19    C25     1.404   .     A
C20    C24     1.417   .     A
C20    C26     1.404   .     A
C21    C23     1.395   .     A
C21    F55     1.359   .     S
C21    C29     1.406   .     A
C22    C24     1.395   .     A
C22    F56     1.359   .     S
C22    C30     1.406   .     A
C23    O53     1.377   .     S
C24    O51     1.377   .     S
C25    C27     1.400   .     A
C25    F50     1.357   .     S
C26    C28     1.400   .     A
C26    F49     1.357   .     S
C27    C29     1.417   .     A
C27    C31     1.420   .     A
C28    C32     1.420   .     A
C28    C30     1.417   .     A
C29    C617    1.398   .     S
C30    C618    1.398   1_554 S
C31    C644    1.415   .     S
C32    C643    1.415   1_554 S
N35    Zn45    2.010   .     S
N36    Zn46    2.010   .     S
O37    Zn45    1.989   .     S
O38    Zn46    1.989   .     S
O39    Zn46    1.986   .     S
O40    Zn45    1.986   .     S
O41    Zn45    1.980   .     S
O42    Zn46    1.980   .     S
O43    Zn46    1.918   .     S
O44    Zn45    1.918   .     S
O51    H52     0.990   .     S
O53    H54     0.990   .     S
O59    H60     0.989   .     S
O61    H62     0.989   .     S
O65    H66     0.990   .     S
O67    H68     0.990   .     S
C69    O105    1.279   .     A
C69    C80     1.410   .     S
C69    O107    1.281   .     A
C70    O106    1.279   .     A
C70    C79     1.410   .     S
C70    O108    1.281   .     A
C71    C73     1.389   .     A
C71    F125    1.358   .     S
C71    C100    1.418   .     A
C72    C99     1.418   .     A
C72    C74     1.389   .     A
C72    F126    1.358   .     S
C73    F115    1.359   .     S
C73    C709    1.398   1_554 S
C74    F116    1.359   .     S
C74    C710    1.398   .     S
C75    O127    1.382   .     S
C75    C80     1.408   .     A
C75    C281    1.373   .     S
C76    O129    1.382   .     S
C76    C79     1.408   .     A
C76    C486    1.373   1_545 S
C77    C79     1.395   .     A
C77    H101    1.085   .     S
C77    C483    1.373   1_545 S
C78    H102    1.085   .     S
C78    C80     1.395   .     A
C78    C280    1.373   .     S
C81    F131    1.356   .     S
C81    N104    1.364   .     A
C81    C151    1.429   .     S
C82    F132    1.356   .     S
C82    N103    1.364   .     A
C83    O133    1.379   .     S
C83    N103    1.369   .     A
C84    O135    1.379   .     S
C84    N104    1.369   .     A
C84    C150    1.429   .     S
C85    O111    1.298   .     A
C85    C87     1.475   .     S
C85    O109    1.296   .     A
C86    O112    1.298   .     A
C86    O110    1.296   .     A
C86    C88     1.475   .     S
C87    C91     1.417   .     A
C87    C93     1.404   .     A
C88    C92     1.417   .     A
C88    C94     1.404   .     A
C89    C91     1.395   .     A
C89    F123    1.359   .     S
C89    C97     1.406   .     A
C90    C92     1.395   .     A
C90    F124    1.359   .     S
C90    C98     1.406   .     A
C91    O121    1.377   .     S
C92    O119    1.377   .     S
C93    C95     1.400   .     A
C93    F118    1.357   .     S
C94    C96     1.400   .     A
C94    F117    1.357   .     S
C95    C97     1.417   .     A
C95    C99     1.420   .     A
C96    C100    1.420   .     A
C96    C98     1.417   .     A
C97    C685    1.398   .     S
C98    C686    1.398   1_554 S
C99    C712    1.415   .     S
C100   C711    1.415   1_554 S
N103   Zn113   2.010   .     S
N104   Zn114   2.010   .     S
O105   Zn113   1.989   .     S
O106   Zn114   1.989   .     S
O107   Zn114   1.986   .     S
O108   Zn113   1.986   .     S
O109   Zn113   1.980   .     S
O110   Zn114   1.980   .     S
O111   Zn114   1.918   .     S
O112   Zn113   1.918   .     S
O119   H120    0.990   .     S
O121   H122    0.990   .     S
O127   H128    0.989   .     S
O129   H130    0.989   .     S
O133   H134    0.990   .     S
O135   H136    0.990   .     S
C137   O173    1.279   .     A
C137   C148    1.410   .     S
C137   O175    1.281   .     A
C138   O174    1.279   .     A
C138   C147    1.410   .     S
C138   O176    1.281   .     A
C139   C141    1.389   .     A
C139   F193    1.358   .     S
C139   C168    1.418   .     A
C140   C167    1.418   .     A
C140   C142    1.389   .     A
C140   F194    1.358   .     S
C141   F183    1.359   .     S
C141   C777    1.398   1_554 S
C142   F184    1.359   .     S
C142   C778    1.398   .     S
C143   O195    1.382   .     S
C143   C148    1.408   .     A
C143   C349    1.373   .     S
C144   O197    1.382   .     S
C144   C147    1.408   .     A
C144   C554    1.373   1_545 S
C145   C147    1.395   .     A
C145   H169    1.085   .     S
C145   C551    1.373   1_545 S
C146   H170    1.085   .     S
C146   C148    1.395   .     A
C146   C348    1.373   .     S
C149   F199    1.356   .     S
C149   N172    1.364   .     A
C149   C15     1.429   1_655 S
C150   F200    1.356   .     S
C150   N171    1.364   .     A
C151   O201    1.379   .     S
C151   N171    1.369   .     A
C152   O203    1.379   .     S
C152   N172    1.369   .     A
C152   C14     1.429   1_655 S
C153   O179    1.298   .     A
C153   C155    1.475   .     S
C153   O177    1.296   .     A
C154   O180    1.298   .     A
C154   O178    1.296   .     A
C154   C156    1.475   .     S
C155   C159    1.417   .     A
C155   C161    1.404   .     A
C156   C160    1.417   .     A
C156   C162    1.404   .     A
C157   C159    1.395   .     A
C157   F191    1.359   .     S
C157   C165    1.406   .     A
C158   C160    1.395   .     A
C158   F192    1.359   .     S
C158   C166    1.406   .     A
C159   O189    1.377   .     S
C160   O187    1.377   .     S
C161   C163    1.400   .     A
C161   F186    1.357   .     S
C162   C164    1.400   .     A
C162   F185    1.357   .     S
C163   C165    1.417   .     A
C163   C167    1.420   .     A
C164   C168    1.420   .     A
C164   C166    1.417   .     A
C165   C753    1.398   .     S
C166   C754    1.398   1_554 S
C167   C780    1.415   .     S
C168   C779    1.415   1_554 S
N171   Zn181   2.010   .     S
N172   Zn182   2.010   .     S
O173   Zn181   1.989   .     S
O174   Zn182   1.989   .     S
O175   Zn182   1.986   .     S
O176   Zn181   1.986   .     S
O177   Zn181   1.980   .     S
O178   Zn182   1.980   .     S
O179   Zn182   1.918   .     S
O180   Zn181   1.918   .     S
O187   H188    0.990   .     S
O189   H190    0.990   .     S
O195   H196    0.989   .     S
O197   H198    0.989   .     S
O201   H202    0.990   .     S
O203   H204    0.990   .     S
C205   O241    1.279   .     A
C205   C216    1.410   .     S
C205   O243    1.281   .     A
C206   O242    1.279   .     A
C206   C215    1.410   .     S
C206   O244    1.281   .     A
C207   C209    1.389   .     A
C207   F261    1.358   .     S
C207   C236    1.418   .     A
C208   C235    1.418   .     A
C208   C210    1.389   .     A
C208   F262    1.358   .     S
C209   F251    1.359   .     S
C209   C845    1.398   1_554 S
C210   F252    1.359   .     S
C210   C846    1.398   .     S
C211   O263    1.382   .     S
C211   C216    1.408   .     A
C211   C417    1.373   .     S
C212   O265    1.382   .     S
C212   C215    1.408   .     A
C213   C215    1.395   .     A
C213   H237    1.085   .     S
C214   H238    1.085   .     S
C214   C216    1.395   .     A
C214   C416    1.373   .     S
C217   F267    1.356   .     S
C217   N240    1.364   .     A
C217   C287    1.429   .     S
C218   F268    1.356   .     S
C218   N239    1.364   .     A
C218   C356    1.429   1_455 S
C219   O269    1.379   .     S
C219   N239    1.369   .     A
C219   C353    1.429   1_455 S
C220   O271    1.379   .     S
C220   N240    1.369   .     A
C220   C286    1.429   .     S
C221   O247    1.298   .     A
C221   C223    1.475   .     S
C221   O245    1.296   .     A
C222   O248    1.298   .     A
C222   O246    1.296   .     A
C222   C224    1.475   .     S
C223   C227    1.417   .     A
C223   C229    1.404   .     A
C224   C228    1.417   .     A
C224   C230    1.404   .     A
C225   C227    1.395   .     A
C225   F259    1.359   .     S
C225   C233    1.406   .     A
C226   C228    1.395   .     A
C226   F260    1.359   .     S
C226   C234    1.406   .     A
C227   O257    1.377   .     S
C228   O255    1.377   .     S
C229   C231    1.400   .     A
C229   F254    1.357   .     S
C230   C232    1.400   .     A
C230   F253    1.357   .     S
C231   C233    1.417   .     A
C231   C235    1.420   .     A
C232   C236    1.420   .     A
C232   C234    1.417   .     A
C233   C821    1.398   .     S
C234   C822    1.398   1_554 S
C235   C848    1.415   .     S
C236   C847    1.415   1_554 S
N239   Zn249   2.010   .     S
N240   Zn250   2.010   .     S
O241   Zn249   1.989   .     S
O242   Zn250   1.989   .     S
O243   Zn250   1.986   .     S
O244   Zn249   1.986   .     S
O245   Zn249   1.980   .     S
O246   Zn250   1.980   .     S
O247   Zn250   1.918   .     S
O248   Zn249   1.918   .     S
O255   H256    0.990   .     S
O257   H258    0.990   .     S
O263   H264    0.989   .     S
O265   H266    0.989   .     S
O269   H270    0.990   .     S
O271   H272    0.990   .     S
C273   O309    1.279   .     A
C273   C284    1.410   .     S
C273   O311    1.281   .     A
C274   O310    1.279   .     A
C274   C283    1.410   .     S
C274   O312    1.281   .     A
C275   C277    1.389   .     A
C275   F329    1.358   .     S
C275   C304    1.418   .     A
C276   C303    1.418   .     A
C276   C278    1.389   .     A
C276   F330    1.358   .     S
C277   F319    1.359   .     S
C277   C913    1.398   1_554 S
C278   F320    1.359   .     S
C278   C914    1.398   .     S
C279   O331    1.382   .     S
C279   C284    1.408   .     A
C279   C485    1.373   .     S
C280   O333    1.382   .     S
C280   C283    1.408   .     A
C281   C283    1.395   .     A
C281   H305    1.085   .     S
C282   H306    1.085   .     S
C282   C284    1.395   .     A
C282   C484    1.373   .     S
C285   F335    1.356   .     S
C285   N308    1.364   .     A
C285   C355    1.429   .     S
C286   F336    1.356   .     S
C286   N307    1.364   .     A
C287   O337    1.379   .     S
C287   N307    1.369   .     A
C288   O339    1.379   .     S
C288   N308    1.369   .     A
C288   C354    1.429   .     S
C289   O315    1.298   .     A
C289   C291    1.475   .     S
C289   O313    1.296   .     A
C290   O316    1.298   .     A
C290   O314    1.296   .     A
C290   C292    1.475   .     S
C291   C295    1.417   .     A
C291   C297    1.404   .     A
C292   C296    1.417   .     A
C292   C298    1.404   .     A
C293   C295    1.395   .     A
C293   F327    1.359   .     S
C293   C301    1.406   .     A
C294   C296    1.395   .     A
C294   F328    1.359   .     S
C294   C302    1.406   .     A
C295   O325    1.377   .     S
C296   O323    1.377   .     S
C297   C299    1.400   .     A
C297   F322    1.357   .     S
C298   C300    1.400   .     A
C298   F321    1.357   .     S
C299   C301    1.417   .     A
C299   C303    1.420   .     A
C300   C304    1.420   .     A
C300   C302    1.417   .     A
C301   C889    1.398   .     S
C302   C890    1.398   1_554 S
C303   C916    1.415   .     S
C304   C915    1.415   1_554 S
N307   Zn317   2.010   .     S
N308   Zn318   2.010   .     S
O309   Zn317   1.989   .     S
O310   Zn318   1.989   .     S
O311   Zn318   1.986   .     S
O312   Zn317   1.986   .     S
O313   Zn317   1.980   .     S
O314   Zn318   1.980   .     S
O315   Zn318   1.918   .     S
O316   Zn317   1.918   .     S
O323   H324    0.990   .     S
O325   H326    0.990   .     S
O331   H332    0.989   .     S
O333   H334    0.989   .     S
O337   H338    0.990   .     S
O339   H340    0.990   .     S
C341   O377    1.279   .     A
C341   C352    1.410   .     S
C341   O379    1.281   .     A
C342   O378    1.279   .     A
C342   C351    1.410   .     S
C342   O380    1.281   .     A
C343   C345    1.389   .     A
C343   F397    1.358   .     S
C343   C372    1.418   .     A
C344   C371    1.418   .     A
C344   C346    1.389   .     A
C344   F398    1.358   .     S
C345   F387    1.359   .     S
C345   C981    1.398   1_554 S
C346   F388    1.359   .     S
C346   C982    1.398   .     S
C347   O399    1.382   .     S
C347   C352    1.408   .     A
C347   C553    1.373   .     S
C348   O401    1.382   .     S
C348   C351    1.408   .     A
C349   C351    1.395   .     A
C349   H373    1.085   .     S
C350   H374    1.085   .     S
C350   C352    1.395   .     A
C350   C552    1.373   .     S
C353   F403    1.356   .     S
C353   N376    1.364   .     A
C353   C219    1.429   1_655 S
C354   F404    1.356   .     S
C354   N375    1.364   .     A
C355   O405    1.379   .     S
C355   N375    1.369   .     A
C356   O407    1.379   .     S
C356   N376    1.369   .     A
C356   C218    1.429   1_655 S
C357   O383    1.298   .     A
C357   C359    1.475   .     S
C357   O381    1.296   .     A
C358   O384    1.298   .     A
C358   O382    1.296   .     A
C358   C360    1.475   .     S
C359   C363    1.417   .     A
C359   C365    1.404   .     A
C360   C364    1.417   .     A
C360   C366    1.404   .     A
C361   C363    1.395   .     A
C361   F395    1.359   .     S
C361   C369    1.406   .     A
C362   C364    1.395   .     A
C362   F396    1.359   .     S
C362   C370    1.406   .     A
C363   O393    1.377   .     S
C364   O391    1.377   .     S
C365   C367    1.400   .     A
C365   F390    1.357   .     S
C366   C368    1.400   .     A
C366   F389    1.357   .     S
C367   C369    1.417   .     A
C367   C371    1.420   .     A
C368   C372    1.420   .     A
C368   C370    1.417   .     A
C369   C957    1.398   .     S
C370   C958    1.398   1_554 S
C371   C984    1.415   .     S
C372   C983    1.415   1_554 S
N375   Zn385   2.010   .     S
N376   Zn386   2.010   .     S
O377   Zn385   1.989   .     S
O378   Zn386   1.989   .     S
O379   Zn386   1.986   .     S
O380   Zn385   1.986   .     S
O381   Zn385   1.980   .     S
O382   Zn386   1.980   .     S
O383   Zn386   1.918   .     S
O384   Zn385   1.918   .     S
O391   H392    0.990   .     S
O393   H394    0.990   .     S
O399   H400    0.989   .     S
O401   H402    0.989   .     S
O405   H406    0.990   .     S
O407   H408    0.990   .     S
C409   O445    1.279   .     A
C409   C420    1.410   .     S
C409   O447    1.281   .     A
C410   O446    1.279   .     A
C410   C419    1.410   .     S
C410   O448    1.281   .     A
C411   C413    1.389   .     A
C411   F465    1.358   .     S
C411   C440    1.418   .     A
C412   C439    1.418   .     A
C412   C414    1.389   .     A
C412   F466    1.358   .     S
C413   F455    1.359   .     S
C413   C1049   1.398   1_554 S
C414   F456    1.359   .     S
C414   C1050   1.398   .     S
C415   O467    1.382   .     S
C415   C420    1.408   .     A
C415   C9      1.373   1_565 S
C416   O469    1.382   .     S
C416   C419    1.408   .     A
C417   C419    1.395   .     A
C417   H441    1.085   .     S
C418   H442    1.085   .     S
C418   C420    1.395   .     A
C418   C8      1.373   1_565 S
C421   F471    1.356   .     S
C421   N444    1.364   .     A
C421   C491    1.429   .     S
C422   F472    1.356   .     S
C422   N443    1.364   .     A
C422   C560    1.429   1_455 S
C423   O473    1.379   .     S
C423   N443    1.369   .     A
C423   C557    1.429   1_455 S
C424   O475    1.379   .     S
C424   N444    1.369   .     A
C424   C490    1.429   .     S
C425   O451    1.298   .     A
C425   C427    1.475   .     S
C425   O449    1.296   .     A
C426   O452    1.298   .     A
C426   O450    1.296   .     A
C426   C428    1.475   .     S
C427   C431    1.417   .     A
C427   C433    1.404   .     A
C428   C432    1.417   .     A
C428   C434    1.404   .     A
C429   C431    1.395   .     A
C429   F463    1.359   .     S
C429   C437    1.406   .     A
C430   C432    1.395   .     A
C430   F464    1.359   .     S
C430   C438    1.406   .     A
C431   O461    1.377   .     S
C432   O459    1.377   .     S
C433   C435    1.400   .     A
C433   F458    1.357   .     S
C434   C436    1.400   .     A
C434   F457    1.357   .     S
C435   C437    1.417   .     A
C435   C439    1.420   .     A
C436   C440    1.420   .     A
C436   C438    1.417   .     A
C437   C1025   1.398   .     S
C438   C1026   1.398   1_554 S
C439   C1052   1.415   .     S
C440   C1051   1.415   1_554 S
N443   Zn453   2.010   .     S
N444   Zn454   2.010   .     S
O445   Zn453   1.989   .     S
O446   Zn454   1.989   .     S
O447   Zn454   1.986   .     S
O448   Zn453   1.986   .     S
O449   Zn453   1.980   .     S
O450   Zn454   1.980   .     S
O451   Zn454   1.918   .     S
O452   Zn453   1.918   .     S
O459   H460    0.990   .     S
O461   H462    0.990   .     S
O467   H468    0.989   .     S
O469   H470    0.989   .     S
O473   H474    0.990   .     S
O475   H476    0.990   .     S
C477   O513    1.279   .     A
C477   C488    1.410   .     S
C477   O515    1.281   .     A
C478   O514    1.279   .     A
C478   C487    1.410   .     S
C478   O516    1.281   .     A
C479   C481    1.389   .     A
C479   F533    1.358   .     S
C479   C508    1.418   .     A
C480   C507    1.418   .     A
C480   C482    1.389   .     A
C480   F534    1.358   .     S
C481   F523    1.359   .     S
C481   C1117   1.398   1_554 S
C482   F524    1.359   .     S
C482   C1118   1.398   .     S
C483   O535    1.382   .     S
C483   C488    1.408   .     A
C483   C77     1.373   1_565 S
C484   O537    1.382   .     S
C484   C487    1.408   .     A
C485   C487    1.395   .     A
C485   H509    1.085   .     S
C486   H510    1.085   .     S
C486   C488    1.395   .     A
C486   C76     1.373   1_565 S
C489   F539    1.356   .     S
C489   N512    1.364   .     A
C489   C559    1.429   .     S
C490   F540    1.356   .     S
C490   N511    1.364   .     A
C491   O541    1.379   .     S
C491   N511    1.369   .     A
C492   O543    1.379   .     S
C492   N512    1.369   .     A
C492   C558    1.429   .     S
C493   O519    1.298   .     A
C493   C495    1.475   .     S
C493   O517    1.296   .     A
C494   O520    1.298   .     A
C494   O518    1.296   .     A
C494   C496    1.475   .     S
C495   C499    1.417   .     A
C495   C501    1.404   .     A
C496   C500    1.417   .     A
C496   C502    1.404   .     A
C497   C499    1.395   .     A
C497   F531    1.359   .     S
C497   C505    1.406   .     A
C498   C500    1.395   .     A
C498   F532    1.359   .     S
C498   C506    1.406   .     A
C499   O529    1.377   .     S
C500   O527    1.377   .     S
C501   C503    1.400   .     A
C501   F526    1.357   .     S
C502   C504    1.400   .     A
C502   F525    1.357   .     S
C503   C505    1.417   .     A
C503   C507    1.420   .     A
C504   C508    1.420   .     A
C504   C506    1.417   .     A
C505   C1093   1.398   .     S
C506   C1094   1.398   1_554 S
C507   C1120   1.415   .     S
C508   C1119   1.415   1_554 S
N511   Zn521   2.010   .     S
N512   Zn522   2.010   .     S
O513   Zn521   1.989   .     S
O514   Zn522   1.989   .     S
O515   Zn522   1.986   .     S
O516   Zn521   1.986   .     S
O517   Zn521   1.980   .     S
O518   Zn522   1.980   .     S
O519   Zn522   1.918   .     S
O520   Zn521   1.918   .     S
O527   H528    0.990   .     S
O529   H530    0.990   .     S
O535   H536    0.989   .     S
O537   H538    0.989   .     S
O541   H542    0.990   .     S
O543   H544    0.990   .     S
C545   O581    1.279   .     A
C545   C556    1.410   .     S
C545   O583    1.281   .     A
C546   O582    1.279   .     A
C546   C555    1.410   .     S
C546   O584    1.281   .     A
C547   C549    1.389   .     A
C547   F601    1.358   .     S
C547   C576    1.418   .     A
C548   C575    1.418   .     A
C548   C550    1.389   .     A
C548   F602    1.358   .     S
C549   F591    1.359   .     S
C549   C1185   1.398   1_554 S
C550   F592    1.359   .     S
C550   C1186   1.398   .     S
C551   O603    1.382   .     S
C551   C556    1.408   .     A
C551   C145    1.373   1_565 S
C552   O605    1.382   .     S
C552   C555    1.408   .     A
C553   C555    1.395   .     A
C553   H577    1.085   .     S
C554   H578    1.085   .     S
C554   C556    1.395   .     A
C554   C144    1.373   1_565 S
C557   F607    1.356   .     S
C557   N580    1.364   .     A
C557   C423    1.429   1_655 S
C558   F608    1.356   .     S
C558   N579    1.364   .     A
C559   O609    1.379   .     S
C559   N579    1.369   .     A
C560   O611    1.379   .     S
C560   N580    1.369   .     A
C560   C422    1.429   1_655 S
C561   O587    1.298   .     A
C561   C563    1.475   .     S
C561   O585    1.296   .     A
C562   O588    1.298   .     A
C562   O586    1.296   .     A
C562   C564    1.475   .     S
C563   C567    1.417   .     A
C563   C569    1.404   .     A
C564   C568    1.417   .     A
C564   C570    1.404   .     A
C565   C567    1.395   .     A
C565   F599    1.359   .     S
C565   C573    1.406   .     A
C566   C568    1.395   .     A
C566   F600    1.359   .     S
C566   C574    1.406   .     A
C567   O597    1.377   .     S
C568   O595    1.377   .     S
C569   C571    1.400   .     A
C569   F594    1.357   .     S
C570   C572    1.400   .     A
C570   F593    1.357   .     S
C571   C573    1.417   .     A
C571   C575    1.420   .     A
C572   C576    1.420   .     A
C572   C574    1.417   .     A
C573   C1161   1.398   .     S
C574   C1162   1.398   1_554 S
C575   C1188   1.415   .     S
C576   C1187   1.415   1_554 S
N579   Zn589   2.010   .     S
N580   Zn590   2.010   .     S
O581   Zn589   1.989   .     S
O582   Zn590   1.989   .     S
O583   Zn590   1.986   .     S
O584   Zn589   1.986   .     S
O585   Zn589   1.980   .     S
O586   Zn590   1.980   .     S
O587   Zn590   1.918   .     S
O588   Zn589   1.918   .     S
O595   H596    0.990   .     S
O597   H598    0.990   .     S
O603   H604    0.989   .     S
O605   H606    0.989   .     S
O609   H610    0.990   .     S
O611   H612    0.990   .     S
C613   O649    1.279   .     A
C613   C624    1.410   .     S
C613   O651    1.281   .     A
C614   O650    1.279   .     A
C614   C623    1.410   .     S
C614   O652    1.281   .     A
C615   C617    1.389   .     A
C615   F669    1.358   .     S
C615   C644    1.418   .     A
C616   C643    1.418   .     A
C616   C618    1.389   .     A
C616   F670    1.358   .     S
C617   F659    1.359   .     S
C618   F660    1.359   .     S
C618   C30     1.398   1_556 S
C619   O671    1.382   .     S
C619   C624    1.408   .     A
C619   C825    1.373   .     S
C620   O673    1.382   .     S
C620   C623    1.408   .     A
C620   C1030   1.373   1_545 S
C621   C623    1.395   .     A
C621   H645    1.085   .     S
C621   C1027   1.373   1_545 S
C622   H646    1.085   .     S
C622   C624    1.395   .     A
C622   C824    1.373   .     S
C625   F675    1.356   .     S
C625   N648    1.364   .     A
C625   C695    1.429   .     S
C626   F676    1.356   .     S
C626   N647    1.364   .     A
C626   C764    1.429   1_455 S
C627   O677    1.379   .     S
C627   N647    1.369   .     A
C627   C761    1.429   1_455 S
C628   O679    1.379   .     S
C628   N648    1.369   .     A
C628   C694    1.429   .     S
C629   O655    1.298   .     A
C629   C631    1.475   .     S
C629   O653    1.296   .     A
C630   O656    1.298   .     A
C630   O654    1.296   .     A
C630   C632    1.475   .     S
C631   C635    1.417   .     A
C631   C637    1.404   .     A
C632   C636    1.417   .     A
C632   C638    1.404   .     A
C633   C635    1.395   .     A
C633   F667    1.359   .     S
C633   C641    1.406   .     A
C634   C636    1.395   .     A
C634   F668    1.359   .     S
C634   C642    1.406   .     A
C635   O665    1.377   .     S
C636   O663    1.377   .     S
C637   C639    1.400   .     A
C637   F662    1.357   .     S
C638   C640    1.400   .     A
C638   F661    1.357   .     S
C639   C641    1.417   .     A
C639   C643    1.420   .     A
C640   C644    1.420   .     A
C640   C642    1.417   .     A
C641   C5      1.398   1_556 S
C643   C32     1.415   1_556 S
N647   Zn657   2.010   .     S
N648   Zn658   2.010   .     S
O649   Zn657   1.989   .     S
O650   Zn658   1.989   .     S
O651   Zn658   1.986   .     S
O652   Zn657   1.986   .     S
O653   Zn657   1.980   .     S
O654   Zn658   1.980   .     S
O655   Zn658   1.918   .     S
O656   Zn657   1.918   .     S
O663   H664    0.990   .     S
O665   H666    0.990   .     S
O671   H672    0.989   .     S
O673   H674    0.989   .     S
O677   H678    0.990   .     S
O679   H680    0.990   .     S
C681   O717    1.279   .     A
C681   C692    1.410   .     S
C681   O719    1.281   .     A
C682   O718    1.279   .     A
C682   C691    1.410   .     S
C682   O720    1.281   .     A
C683   C685    1.389   .     A
C683   F737    1.358   .     S
C683   C712    1.418   .     A
C684   C711    1.418   .     A
C684   C686    1.389   .     A
C684   F738    1.358   .     S
C685   F727    1.359   .     S
C686   F728    1.359   .     S
C686   C98     1.398   1_556 S
C687   O739    1.382   .     S
C687   C692    1.408   .     A
C687   C893    1.373   .     S
C688   O741    1.382   .     S
C688   C691    1.408   .     A
C688   C1098   1.373   1_545 S
C689   C691    1.395   .     A
C689   H713    1.085   .     S
C689   C1095   1.373   1_545 S
C690   H714    1.085   .     S
C690   C692    1.395   .     A
C690   C892    1.373   .     S
C693   F743    1.356   .     S
C693   N716    1.364   .     A
C693   C763    1.429   .     S
C694   F744    1.356   .     S
C694   N715    1.364   .     A
C695   O745    1.379   .     S
C695   N715    1.369   .     A
C696   O747    1.379   .     S
C696   N716    1.369   .     A
C696   C762    1.429   .     S
C697   O723    1.298   .     A
C697   C699    1.475   .     S
C697   O721    1.296   .     A
C698   O724    1.298   .     A
C698   O722    1.296   .     A
C698   C700    1.475   .     S
C699   C703    1.417   .     A
C699   C705    1.404   .     A
C700   C704    1.417   .     A
C700   C706    1.404   .     A
C701   C703    1.395   .     A
C701   F735    1.359   .     S
C701   C709    1.406   .     A
C702   C704    1.395   .     A
C702   F736    1.359   .     S
C702   C710    1.406   .     A
C703   O733    1.377   .     S
C704   O731    1.377   .     S
C705   C707    1.400   .     A
C705   F730    1.357   .     S
C706   C708    1.400   .     A
C706   F729    1.357   .     S
C707   C709    1.417   .     A
C707   C711    1.420   .     A
C708   C712    1.420   .     A
C708   C710    1.417   .     A
C709   C73     1.398   1_556 S
C711   C100    1.415   1_556 S
N715   Zn725   2.010   .     S
N716   Zn726   2.010   .     S
O717   Zn725   1.989   .     S
O718   Zn726   1.989   .     S
O719   Zn726   1.986   .     S
O720   Zn725   1.986   .     S
O721   Zn725   1.980   .     S
O722   Zn726   1.980   .     S
O723   Zn726   1.918   .     S
O724   Zn725   1.918   .     S
O731   H732    0.990   .     S
O733   H734    0.990   .     S
O739   H740    0.989   .     S
O741   H742    0.989   .     S
O745   H746    0.990   .     S
O747   H748    0.990   .     S
C749   O785    1.279   .     A
C749   C760    1.410   .     S
C749   O787    1.281   .     A
C750   O786    1.279   .     A
C750   C759    1.410   .     S
C750   O788    1.281   .     A
C751   C753    1.389   .     A
C751   F805    1.358   .     S
C751   C780    1.418   .     A
C752   C779    1.418   .     A
C752   C754    1.389   .     A
C752   F806    1.358   .     S
C753   F795    1.359   .     S
C754   F796    1.359   .     S
C754   C166    1.398   1_556 S
C755   O807    1.382   .     S
C755   C760    1.408   .     A
C755   C961    1.373   .     S
C756   O809    1.382   .     S
C756   C759    1.408   .     A
C756   C1166   1.373   1_545 S
C757   C759    1.395   .     A
C757   H781    1.085   .     S
C757   C1163   1.373   1_545 S
C758   H782    1.085   .     S
C758   C760    1.395   .     A
C758   C960    1.373   .     S
C761   F811    1.356   .     S
C761   N784    1.364   .     A
C761   C627    1.429   1_655 S
C762   F812    1.356   .     S
C762   N783    1.364   .     A
C763   O813    1.379   .     S
C763   N783    1.369   .     A
C764   O815    1.379   .     S
C764   N784    1.369   .     A
C764   C626    1.429   1_655 S
C765   O791    1.298   .     A
C765   C767    1.475   .     S
C765   O789    1.296   .     A
C766   O792    1.298   .     A
C766   O790    1.296   .     A
C766   C768    1.475   .     S
C767   C771    1.417   .     A
C767   C773    1.404   .     A
C768   C772    1.417   .     A
C768   C774    1.404   .     A
C769   C771    1.395   .     A
C769   F803    1.359   .     S
C769   C777    1.406   .     A
C770   C772    1.395   .     A
C770   F804    1.359   .     S
C770   C778    1.406   .     A
C771   O801    1.377   .     S
C772   O799    1.377   .     S
C773   C775    1.400   .     A
C773   F798    1.357   .     S
C774   C776    1.400   .     A
C774   F797    1.357   .     S
C775   C777    1.417   .     A
C775   C779    1.420   .     A
C776   C780    1.420   .     A
C776   C778    1.417   .     A
C777   C141    1.398   1_556 S
C779   C168    1.415   1_556 S
N783   Zn793   2.010   .     S
N784   Zn794   2.010   .     S
O785   Zn793   1.989   .     S
O786   Zn794   1.989   .     S
O787   Zn794   1.986   .     S
O788   Zn793   1.986   .     S
O789   Zn793   1.980   .     S
O790   Zn794   1.980   .     S
O791   Zn794   1.918   .     S
O792   Zn793   1.918   .     S
O799   H800    0.990   .     S
O801   H802    0.990   .     S
O807   H808    0.989   .     S
O809   H810    0.989   .     S
O813   H814    0.990   .     S
O815   H816    0.990   .     S
C817   O853    1.279   .     A
C817   C828    1.410   .     S
C817   O855    1.281   .     A
C818   O854    1.279   .     A
C818   C827    1.410   .     S
C818   O856    1.281   .     A
C819   C821    1.389   .     A
C819   F873    1.358   .     S
C819   C848    1.418   .     A
C820   C847    1.418   .     A
C820   C822    1.389   .     A
C820   F874    1.358   .     S
C821   F863    1.359   .     S
C822   F864    1.359   .     S
C822   C234    1.398   1_556 S
C823   O875    1.382   .     S
C823   C828    1.408   .     A
C823   C1029   1.373   .     S
C824   O877    1.382   .     S
C824   C827    1.408   .     A
C825   C827    1.395   .     A
C825   H849    1.085   .     S
C826   H850    1.085   .     S
C826   C828    1.395   .     A
C826   C1028   1.373   .     S
C829   F879    1.356   .     S
C829   N852    1.364   .     A
C829   C899    1.429   .     S
C830   F880    1.356   .     S
C830   N851    1.364   .     A
C830   C968    1.429   1_455 S
C831   O881    1.379   .     S
C831   N851    1.369   .     A
C831   C965    1.429   1_455 S
C832   O883    1.379   .     S
C832   N852    1.369   .     A
C832   C898    1.429   .     S
C833   O859    1.298   .     A
C833   C835    1.475   .     S
C833   O857    1.296   .     A
C834   O860    1.298   .     A
C834   O858    1.296   .     A
C834   C836    1.475   .     S
C835   C839    1.417   .     A
C835   C841    1.404   .     A
C836   C840    1.417   .     A
C836   C842    1.404   .     A
C837   C839    1.395   .     A
C837   F871    1.359   .     S
C837   C845    1.406   .     A
C838   C840    1.395   .     A
C838   F872    1.359   .     S
C838   C846    1.406   .     A
C839   O869    1.377   .     S
C840   O867    1.377   .     S
C841   C843    1.400   .     A
C841   F866    1.357   .     S
C842   C844    1.400   .     A
C842   F865    1.357   .     S
C843   C845    1.417   .     A
C843   C847    1.420   .     A
C844   C848    1.420   .     A
C844   C846    1.417   .     A
C845   C209    1.398   1_556 S
C847   C236    1.415   1_556 S
N851   Zn861   2.010   .     S
N852   Zn862   2.010   .     S
O853   Zn861   1.989   .     S
O854   Zn862   1.989   .     S
O855   Zn862   1.986   .     S
O856   Zn861   1.986   .     S
O857   Zn861   1.980   .     S
O858   Zn862   1.980   .     S
O859   Zn862   1.918   .     S
O860   Zn861   1.918   .     S
O867   H868    0.990   .     S
O869   H870    0.990   .     S
O875   H876    0.989   .     S
O877   H878    0.989   .     S
O881   H882    0.990   .     S
O883   H884    0.990   .     S
C885   O921    1.279   .     A
C885   C896    1.410   .     S
C885   O923    1.281   .     A
C886   O922    1.279   .     A
C886   C895    1.410   .     S
C886   O924    1.281   .     A
C887   C889    1.389   .     A
C887   F941    1.358   .     S
C887   C916    1.418   .     A
C888   C915    1.418   .     A
C888   C890    1.389   .     A
C888   F942    1.358   .     S
C889   F931    1.359   .     S
C890   F932    1.359   .     S
C890   C302    1.398   1_556 S
C891   O943    1.382   .     S
C891   C896    1.408   .     A
C891   C1097   1.373   .     S
C892   O945    1.382   .     S
C892   C895    1.408   .     A
C893   C895    1.395   .     A
C893   H917    1.085   .     S
C894   H918    1.085   .     S
C894   C896    1.395   .     A
C894   C1096   1.373   .     S
C897   F947    1.356   .     S
C897   N920    1.364   .     A
C897   C967    1.429   .     S
C898   F948    1.356   .     S
C898   N919    1.364   .     A
C899   O949    1.379   .     S
C899   N919    1.369   .     A
C900   O951    1.379   .     S
C900   N920    1.369   .     A
C900   C966    1.429   .     S
C901   O927    1.298   .     A
C901   C903    1.475   .     S
C901   O925    1.296   .     A
C902   O928    1.298   .     A
C902   O926    1.296   .     A
C902   C904    1.475   .     S
C903   C907    1.417   .     A
C903   C909    1.404   .     A
C904   C908    1.417   .     A
C904   C910    1.404   .     A
C905   C907    1.395   .     A
C905   F939    1.359   .     S
C905   C913    1.406   .     A
C906   C908    1.395   .     A
C906   F940    1.359   .     S
C906   C914    1.406   .     A
C907   O937    1.377   .     S
C908   O935    1.377   .     S
C909   C911    1.400   .     A
C909   F934    1.357   .     S
C910   C912    1.400   .     A
C910   F933    1.357   .     S
C911   C913    1.417   .     A
C911   C915    1.420   .     A
C912   C916    1.420   .     A
C912   C914    1.417   .     A
C913   C277    1.398   1_556 S
C915   C304    1.415   1_556 S
N919   Zn929   2.010   .     S
N920   Zn930   2.010   .     S
O921   Zn929   1.989   .     S
O922   Zn930   1.989   .     S
O923   Zn930   1.986   .     S
O924   Zn929   1.986   .     S
O925   Zn929   1.980   .     S
O926   Zn930   1.980   .     S
O927   Zn930   1.918   .     S
O928   Zn929   1.918   .     S
O935   H936    0.990   .     S
O937   H938    0.990   .     S
O943   H944    0.989   .     S
O945   H946    0.989   .     S
O949   H950    0.990   .     S
O951   H952    0.990   .     S
C953   O989    1.279   .     A
C953   C964    1.410   .     S
C953   O991    1.281   .     A
C954   O990    1.279   .     A
C954   C963    1.410   .     S
C954   O992    1.281   .     A
C955   C957    1.389   .     A
C955   F1009   1.358   .     S
C955   C984    1.418   .     A
C956   C983    1.418   .     A
C956   C958    1.389   .     A
C956   F1010   1.358   .     S
C957   F999    1.359   .     S
C958   F1000   1.359   .     S
C958   C370    1.398   1_556 S
C959   O1011   1.382   .     S
C959   C964    1.408   .     A
C959   C1165   1.373   .     S
C960   O1013   1.382   .     S
C960   C963    1.408   .     A
C961   C963    1.395   .     A
C961   H985    1.085   .     S
C962   H986    1.085   .     S
C962   C964    1.395   .     A
C962   C1164   1.373   .     S
C965   F1015   1.356   .     S
C965   N988    1.364   .     A
C965   C831    1.429   1_655 S
C966   F1016   1.356   .     S
C966   N987    1.364   .     A
C967   O1017   1.379   .     S
C967   N987    1.369   .     A
C968   O1019   1.379   .     S
C968   N988    1.369   .     A
C968   C830    1.429   1_655 S
C969   O995    1.298   .     A
C969   C971    1.475   .     S
C969   O993    1.296   .     A
C970   O996    1.298   .     A
C970   O994    1.296   .     A
C970   C972    1.475   .     S
C971   C975    1.417   .     A
C971   C977    1.404   .     A
C972   C976    1.417   .     A
C972   C978    1.404   .     A
C973   C975    1.395   .     A
C973   F1007   1.359   .     S
C973   C981    1.406   .     A
C974   C976    1.395   .     A
C974   F1008   1.359   .     S
C974   C982    1.406   .     A
C975   O1005   1.377   .     S
C976   O1003   1.377   .     S
C977   C979    1.400   .     A
C977   F1002   1.357   .     S
C978   C980    1.400   .     A
C978   F1001   1.357   .     S
C979   C981    1.417   .     A
C979   C983    1.420   .     A
C980   C984    1.420   .     A
C980   C982    1.417   .     A
C981   C345    1.398   1_556 S
C983   C372    1.415   1_556 S
N987   Zn997   2.010   .     S
N988   Zn998   2.010   .     S
O989   Zn997   1.989   .     S
O990   Zn998   1.989   .     S
O991   Zn998   1.986   .     S
O992   Zn997   1.986   .     S
O993   Zn997   1.980   .     S
O994   Zn998   1.980   .     S
O995   Zn998   1.918   .     S
O996   Zn997   1.918   .     S
O1003  H1004   0.990   .     S
O1005  H1006   0.990   .     S
O1011  H1012   0.989   .     S
O1013  H1014   0.989   .     S
O1017  H1018   0.990   .     S
O1019  H1020   0.990   .     S
C1021  O1057   1.279   .     A
C1021  C1032   1.410   .     S
C1021  O1059   1.281   .     A
C1022  O1058   1.279   .     A
C1022  C1031   1.410   .     S
C1022  O1060   1.281   .     A
C1023  C1025   1.389   .     A
C1023  F1077   1.358   .     S
C1023  C1052   1.418   .     A
C1024  C1051   1.418   .     A
C1024  C1026   1.389   .     A
C1024  F1078   1.358   .     S
C1025  F1067   1.359   .     S
C1026  F1068   1.359   .     S
C1026  C438    1.398   1_556 S
C1027  O1079   1.382   .     S
C1027  C1032   1.408   .     A
C1027  C621    1.373   1_565 S
C1028  O1081   1.382   .     S
C1028  C1031   1.408   .     A
C1029  C1031   1.395   .     A
C1029  H1053   1.085   .     S
C1030  H1054   1.085   .     S
C1030  C1032   1.395   .     A
C1030  C620    1.373   1_565 S
C1033  F1083   1.356   .     S
C1033  N1056   1.364   .     A
C1033  C1103   1.429   .     S
C1034  F1084   1.356   .     S
C1034  N1055   1.364   .     A
C1034  C1172   1.429   1_455 S
C1035  O1085   1.379   .     S
C1035  N1055   1.369   .     A
C1035  C1169   1.429   1_455 S
C1036  O1087   1.379   .     S
C1036  N1056   1.369   .     A
C1036  C1102   1.429   .     S
C1037  O1063   1.298   .     A
C1037  C1039   1.475   .     S
C1037  O1061   1.296   .     A
C1038  O1064   1.298   .     A
C1038  O1062   1.296   .     A
C1038  C1040   1.475   .     S
C1039  C1043   1.417   .     A
C1039  C1045   1.404   .     A
C1040  C1044   1.417   .     A
C1040  C1046   1.404   .     A
C1041  C1043   1.395   .     A
C1041  F1075   1.359   .     S
C1041  C1049   1.406   .     A
C1042  C1044   1.395   .     A
C1042  F1076   1.359   .     S
C1042  C1050   1.406   .     A
C1043  O1073   1.377   .     S
C1044  O1071   1.377   .     S
C1045  C1047   1.400   .     A
C1045  F1070   1.357   .     S
C1046  C1048   1.400   .     A
C1046  F1069   1.357   .     S
C1047  C1049   1.417   .     A
C1047  C1051   1.420   .     A
C1048  C1052   1.420   .     A
C1048  C1050   1.417   .     A
C1049  C413    1.398   1_556 S
C1051  C440    1.415   1_556 S
N1055  Zn1065  2.010   .     S
N1056  Zn1066  2.010   .     S
O1057  Zn1065  1.989   .     S
O1058  Zn1066  1.989   .     S
O1059  Zn1066  1.986   .     S
O1060  Zn1065  1.986   .     S
O1061  Zn1065  1.980   .     S
O1062  Zn1066  1.980   .     S
O1063  Zn1066  1.918   .     S
O1064  Zn1065  1.918   .     S
O1071  H1072   0.990   .     S
O1073  H1074   0.990   .     S
O1079  H1080   0.989   .     S
O1081  H1082   0.989   .     S
O1085  H1086   0.990   .     S
O1087  H1088   0.990   .     S
C1089  O1125   1.279   .     A
C1089  C1100   1.410   .     S
C1089  O1127   1.281   .     A
C1090  O1126   1.279   .     A
C1090  C1099   1.410   .     S
C1090  O1128   1.281   .     A
C1091  C1093   1.389   .     A
C1091  F1145   1.358   .     S
C1091  C1120   1.418   .     A
C1092  C1119   1.418   .     A
C1092  C1094   1.389   .     A
C1092  F1146   1.358   .     S
C1093  F1135   1.359   .     S
C1094  F1136   1.359   .     S
C1094  C506    1.398   1_556 S
C1095  O1147   1.382   .     S
C1095  C1100   1.408   .     A
C1095  C689    1.373   1_565 S
C1096  O1149   1.382   .     S
C1096  C1099   1.408   .     A
C1097  C1099   1.395   .     A
C1097  H1121   1.085   .     S
C1098  H1122   1.085   .     S
C1098  C1100   1.395   .     A
C1098  C688    1.373   1_565 S
C1101  F1151   1.356   .     S
C1101  N1124   1.364   .     A
C1101  C1171   1.429   .     S
C1102  F1152   1.356   .     S
C1102  N1123   1.364   .     A
C1103  O1153   1.379   .     S
C1103  N1123   1.369   .     A
C1104  O1155   1.379   .     S
C1104  N1124   1.369   .     A
C1104  C1170   1.429   .     S
C1105  O1131   1.298   .     A
C1105  C1107   1.475   .     S
C1105  O1129   1.296   .     A
C1106  O1132   1.298   .     A
C1106  O1130   1.296   .     A
C1106  C1108   1.475   .     S
C1107  C1111   1.417   .     A
C1107  C1113   1.404   .     A
C1108  C1112   1.417   .     A
C1108  C1114   1.404   .     A
C1109  C1111   1.395   .     A
C1109  F1143   1.359   .     S
C1109  C1117   1.406   .     A
C1110  C1112   1.395   .     A
C1110  F1144   1.359   .     S
C1110  C1118   1.406   .     A
C1111  O1141   1.377   .     S
C1112  O1139   1.377   .     S
C1113  C1115   1.400   .     A
C1113  F1138   1.357   .     S
C1114  C1116   1.400   .     A
C1114  F1137   1.357   .     S
C1115  C1117   1.417   .     A
C1115  C1119   1.420   .     A
C1116  C1120   1.420   .     A
C1116  C1118   1.417   .     A
C1117  C481    1.398   1_556 S
C1119  C508    1.415   1_556 S
N1123  Zn1133  2.010   .     S
N1124  Zn1134  2.010   .     S
O1125  Zn1133  1.989   .     S
O1126  Zn1134  1.989   .     S
O1127  Zn1134  1.986   .     S
O1128  Zn1133  1.986   .     S
O1129  Zn1133  1.980   .     S
O1130  Zn1134  1.980   .     S
O1131  Zn1134  1.918   .     S
O1132  Zn1133  1.918   .     S
O1139  H1140   0.990   .     S
O1141  H1142   0.990   .     S
O1147  H1148   0.989   .     S
O1149  H1150   0.989   .     S
O1153  H1154   0.990   .     S
O1155  H1156   0.990   .     S
C1157  O1193   1.279   .     A
C1157  C1168   1.410   .     S
C1157  O1195   1.281   .     A
C1158  O1194   1.279   .     A
C1158  C1167   1.410   .     S
C1158  O1196   1.281   .     A
C1159  C1161   1.389   .     A
C1159  F1213   1.358   .     S
C1159  C1188   1.418   .     A
C1160  C1187   1.418   .     A
C1160  C1162   1.389   .     A
C1160  F1214   1.358   .     S
C1161  F1203   1.359   .     S
C1162  F1204   1.359   .     S
C1162  C574    1.398   1_556 S
C1163  O1215   1.382   .     S
C1163  C1168   1.408   .     A
C1163  C757    1.373   1_565 S
C1164  O1217   1.382   .     S
C1164  C1167   1.408   .     A
C1165  C1167   1.395   .     A
C1165  H1189   1.085   .     S
C1166  H1190   1.085   .     S
C1166  C1168   1.395   .     A
C1166  C756    1.373   1_565 S
C1169  F1219   1.356   .     S
C1169  N1192   1.364   .     A
C1169  C1035   1.429   1_655 S
C1170  F1220   1.356   .     S
C1170  N1191   1.364   .     A
C1171  O1221   1.379   .     S
C1171  N1191   1.369   .     A
C1172  O1223   1.379   .     S
C1172  N1192   1.369   .     A
C1172  C1034   1.429   1_655 S
C1173  O1199   1.298   .     A
C1173  C1175   1.475   .     S
C1173  O1197   1.296   .     A
C1174  O1200   1.298   .     A
C1174  O1198   1.296   .     A
C1174  C1176   1.475   .     S
C1175  C1179   1.417   .     A
C1175  C1181   1.404   .     A
C1176  C1180   1.417   .     A
C1176  C1182   1.404   .     A
C1177  C1179   1.395   .     A
C1177  F1211   1.359   .     S
C1177  C1185   1.406   .     A
C1178  C1180   1.395   .     A
C1178  F1212   1.359   .     S
C1178  C1186   1.406   .     A
C1179  O1209   1.377   .     S
C1180  O1207   1.377   .     S
C1181  C1183   1.400   .     A
C1181  F1206   1.357   .     S
C1182  C1184   1.400   .     A
C1182  F1205   1.357   .     S
C1183  C1185   1.417   .     A
C1183  C1187   1.420   .     A
C1184  C1188   1.420   .     A
C1184  C1186   1.417   .     A
C1185  C549    1.398   1_556 S
C1187  C576    1.415   1_556 S
N1191  Zn1201  2.010   .     S
N1192  Zn1202  2.010   .     S
O1193  Zn1201  1.989   .     S
O1194  Zn1202  1.989   .     S
O1195  Zn1202  1.986   .     S
O1196  Zn1201  1.986   .     S
O1197  Zn1201  1.980   .     S
O1198  Zn1202  1.980   .     S
O1199  Zn1202  1.918   .     S
O1200  Zn1201  1.918   .     S
O1207  H1208   0.990   .     S
O1209  H1210   0.990   .     S
O1215  H1216   0.989   .     S
O1217  H1218   0.989   .     S
O1221  H1222   0.990   .     S
O1223  H1224   0.990   .     S
