data_str_m3_o1_o16_pcu_sym.23
_audit_creation_date              2020-01-03
_audit_creation_method            'Materials Studio'
_symmetry_space_group_name_H-M    'P1'
_symmetry_Int_Tables_number       1
_symmetry_cell_setting            triclinic
loop_
_symmetry_equiv_pos_as_xyz
  x,y,z
_cell_length_a                    29.6240
_cell_length_b                    32.1355
_cell_length_c                    26.0649
_cell_angle_alpha                 91.7721
_cell_angle_beta                  69.9142
_cell_angle_gamma                 90.3575
loop_
_atom_site_label
_atom_site_type_symbol
_atom_site_fract_x
_atom_site_fract_y
_atom_site_fract_z
_atom_site_U_iso_or_equiv
_atom_site_adp_type
_atom_site_occupancy
Br1    Br    0.07322   0.09365   0.17817   0.00000  Uiso   1.00
Br2    Br    0.02728   0.22873   0.33677   0.00000  Uiso   1.00
Br3    Br    0.24686   0.28773   0.42276   0.00000  Uiso   1.00
Br4    Br    0.16312   0.26183   0.37383   0.00000  Uiso   1.00
Br5    Br    0.27281   0.28706   0.18385   0.00000  Uiso   1.00
C6     C     0.16775   0.24654   0.24706   0.00000  Uiso   1.00
C7     C     0.12132   0.17030   0.41227   0.00000  Uiso   1.00
C8     C     0.21131   0.31260   0.22175   0.00000  Uiso   1.00
C9     C     0.13981   0.16796   0.35249   0.00000  Uiso   1.00
C10    C     0.20975   0.02197   0.22390   0.00000  Uiso   1.00
C11    C     0.16622   0.04263   0.24994   0.00000  Uiso   1.00
C12    C     0.12324   0.02120   0.27437   0.00000  Uiso   1.00
C13    C     0.12472   0.31161   0.27149   0.00000  Uiso   1.00
C14    C     0.16832   0.29079   0.24588   0.00000  Uiso   1.00
C15    C     0.31853   0.13877   0.21807   0.00000  Uiso   1.00
C16    C     0.03276   0.13819   0.21857   0.00000  Uiso   1.00
C17    C     0.14045   0.17730   0.49484   0.00000  Uiso   1.00
C18    C     0.01359   0.19354   0.28373   0.00000  Uiso   1.00
C19    C     0.29934   0.19378   0.28311   0.00000  Uiso   1.00
C20    C     0.16635   0.08674   0.25050   0.00000  Uiso   1.00
C21    C     0.19362   0.16762   0.14737   0.00000  Uiso   1.00
C22    C     0.25115   0.22187   0.01420   0.00000  Uiso   1.00
C23    C     0.21063   0.17573   0.08854   0.00000  Uiso   1.00
C24    C     0.07977   0.14819   0.44002   0.00000  Uiso   1.00
C25    C     0.06422   0.14558   0.49657   0.00000  Uiso   1.00
C26    C     0.09521   0.15962   0.02491   0.00000  Uiso   1.00
C27    C     0.14754   0.19022   0.44185   0.00000  Uiso   1.00
C28    C     0.17826   0.18425   0.01594   0.00000  Uiso   1.00
C29    C     0.21411   0.21460   0.49200   0.00000  Uiso   1.00
C30    C     0.21093   0.23712   0.44735   0.00000  Uiso   1.00
C31    C     0.17794   0.22442   0.42213   0.00000  Uiso   1.00
C32    C     0.18237   0.16082   0.05911   0.00000  Uiso   1.00
C33    C     0.24767   0.20442   0.06440   0.00000  Uiso   1.00
H34    H     0.24259   0.03908   0.20458   0.00000  Uiso   1.00
H35    H     0.05756   0.13725   0.09478   0.00000  Uiso   1.00
H36    H     0.00540   0.14033   0.05887   0.00000  Uiso   1.00
H37    H     0.09202   0.29456   0.29069   0.00000  Uiso   1.00
H38    H     0.30755   0.11629   0.19294   0.00000  Uiso   1.00
H39    H     0.27305   0.21517   0.30993   0.00000  Uiso   1.00
H40    H     0.05845   0.13385   0.41785   0.00000  Uiso   1.00
H41    H     0.28877   0.19357   0.10620   0.00000  Uiso   1.00
H42    H     0.05450   0.02244   0.31636   0.00000  Uiso   1.00
H43    H     0.31587   0.24352   0.00283   0.00000  Uiso   1.00
H44    H     0.15784   0.10914   0.03908   0.00000  Uiso   1.00
N45    N     0.04760   0.16668   0.25001   0.00000  Uiso   1.00
N46    N     0.28573   0.16665   0.25000   0.00000  Uiso   1.00
O47    O     0.12846   0.22775   0.25000   0.00000  Uiso   1.00
O48    O     0.08101   0.04259   0.30182   0.00000  Uiso   1.00
O49    O     0.29054   0.24557   0.48623   0.00000  Uiso   1.00
O50    O     0.16112   0.12241   0.07244   0.00000  Uiso   1.00
O51    O     0.08117   0.15965   0.08113   0.00000  Uiso   1.00
O52    O     0.01971   0.12809   0.02161   0.00000  Uiso   1.00
O53    O     0.20490   0.22774   0.25000   0.00000  Uiso   1.00
O54    O     0.10947   0.16666   0.32681   0.00000  Uiso   1.00
O55    O     0.18591   0.16665   0.32681   0.00000  Uiso   1.00
O56    O     0.12843   0.10559   0.24999   0.00000  Uiso   1.00
O57    O     0.20488   0.10558   0.24999   0.00000  Uiso   1.00
O58    O     0.14742   0.16668   0.17319   0.00000  Uiso   1.00
O59    O     0.22387   0.16667   0.17319   0.00000  Uiso   1.00
O60    O     0.27939   0.21776   0.08961   0.00000  Uiso   1.00
Zn61   Zn    0.11562   0.16667   0.25000   0.00000  Uiso   1.00
Zn62   Zn    0.21771   0.16666   0.25000   0.00000  Uiso   1.00
Br63   Br    0.40655   0.09365   0.17817   0.00000  Uiso   1.00
Br64   Br    0.36061   0.22873   0.33677   0.00000  Uiso   1.00
Br65   Br    0.58019   0.28773   0.42276   0.00000  Uiso   1.00
Br66   Br    0.49645   0.26183   0.37383   0.00000  Uiso   1.00
Br67   Br    0.60614   0.28706   0.18385   0.00000  Uiso   1.00
C68    C     0.50109   0.24654   0.24706   0.00000  Uiso   1.00
C69    C     0.45466   0.17030   0.41227   0.00000  Uiso   1.00
C70    C     0.54464   0.31260   0.22175   0.00000  Uiso   1.00
C71    C     0.47314   0.16796   0.35249   0.00000  Uiso   1.00
C72    C     0.54309   0.02197   0.22390   0.00000  Uiso   1.00
C73    C     0.49955   0.04263   0.24994   0.00000  Uiso   1.00
C74    C     0.45657   0.02120   0.27437   0.00000  Uiso   1.00
C75    C     0.45805   0.31161   0.27149   0.00000  Uiso   1.00
C76    C     0.50166   0.29079   0.24588   0.00000  Uiso   1.00
C77    C     0.65186   0.13877   0.21807   0.00000  Uiso   1.00
C78    C     0.36609   0.13819   0.21857   0.00000  Uiso   1.00
C79    C     0.47379   0.17730   0.49484   0.00000  Uiso   1.00
C80    C     0.34692   0.19354   0.28373   0.00000  Uiso   1.00
C81    C     0.63267   0.19378   0.28311   0.00000  Uiso   1.00
C82    C     0.49968   0.08674   0.25050   0.00000  Uiso   1.00
C83    C     0.52695   0.16762   0.14737   0.00000  Uiso   1.00
C84    C     0.58448   0.22187   0.01420   0.00000  Uiso   1.00
C85    C     0.54396   0.17573   0.08854   0.00000  Uiso   1.00
C86    C     0.41310   0.14819   0.44002   0.00000  Uiso   1.00
C87    C     0.39755   0.14558   0.49657   0.00000  Uiso   1.00
C88    C     0.42854   0.15962   0.02491   0.00000  Uiso   1.00
C89    C     0.48087   0.19022   0.44185   0.00000  Uiso   1.00
C90    C     0.51160   0.18425   0.01594   0.00000  Uiso   1.00
C91    C     0.54745   0.21460   0.49200   0.00000  Uiso   1.00
C92    C     0.54426   0.23712   0.44735   0.00000  Uiso   1.00
C93    C     0.51127   0.22442   0.42213   0.00000  Uiso   1.00
C94    C     0.51571   0.16082   0.05911   0.00000  Uiso   1.00
C95    C     0.58100   0.20442   0.06440   0.00000  Uiso   1.00
H96    H     0.57592   0.03908   0.20458   0.00000  Uiso   1.00
H97    H     0.39089   0.13725   0.09478   0.00000  Uiso   1.00
H98    H     0.33873   0.14033   0.05887   0.00000  Uiso   1.00
H99    H     0.42535   0.29456   0.29069   0.00000  Uiso   1.00
H100   H     0.64089   0.11629   0.19294   0.00000  Uiso   1.00
H101   H     0.60638   0.21517   0.30993   0.00000  Uiso   1.00
H102   H     0.39178   0.13385   0.41785   0.00000  Uiso   1.00
H103   H     0.62210   0.19357   0.10620   0.00000  Uiso   1.00
H104   H     0.38784   0.02244   0.31636   0.00000  Uiso   1.00
H105   H     0.64920   0.24352   0.00283   0.00000  Uiso   1.00
H106   H     0.49117   0.10914   0.03908   0.00000  Uiso   1.00
N107   N     0.38093   0.16668   0.25001   0.00000  Uiso   1.00
N108   N     0.61906   0.16665   0.25000   0.00000  Uiso   1.00
O109   O     0.46179   0.22775   0.25000   0.00000  Uiso   1.00
O110   O     0.41434   0.04259   0.30182   0.00000  Uiso   1.00
O111   O     0.62387   0.24557   0.48623   0.00000  Uiso   1.00
O112   O     0.49445   0.12241   0.07244   0.00000  Uiso   1.00
O113   O     0.41450   0.15965   0.08113   0.00000  Uiso   1.00
O114   O     0.35304   0.12809   0.02161   0.00000  Uiso   1.00
O115   O     0.53823   0.22774   0.25000   0.00000  Uiso   1.00
O116   O     0.44280   0.16666   0.32681   0.00000  Uiso   1.00
O117   O     0.51924   0.16665   0.32681   0.00000  Uiso   1.00
O118   O     0.46177   0.10559   0.24999   0.00000  Uiso   1.00
O119   O     0.53821   0.10558   0.24999   0.00000  Uiso   1.00
O120   O     0.48076   0.16668   0.17319   0.00000  Uiso   1.00
O121   O     0.55720   0.16667   0.17319   0.00000  Uiso   1.00
O122   O     0.61273   0.21776   0.08961   0.00000  Uiso   1.00
Zn123  Zn    0.44896   0.16667   0.25000   0.00000  Uiso   1.00
Zn124  Zn    0.55104   0.16666   0.25000   0.00000  Uiso   1.00
Br125  Br    0.73988   0.09365   0.17817   0.00000  Uiso   1.00
Br126  Br    0.69395   0.22873   0.33677   0.00000  Uiso   1.00
Br127  Br    0.91352   0.28773   0.42276   0.00000  Uiso   1.00
Br128  Br    0.82979   0.26183   0.37383   0.00000  Uiso   1.00
Br129  Br    0.93948   0.28706   0.18385   0.00000  Uiso   1.00
C130   C     0.83442   0.24654   0.24706   0.00000  Uiso   1.00
C131   C     0.78799   0.17030   0.41227   0.00000  Uiso   1.00
C132   C     0.87797   0.31260   0.22175   0.00000  Uiso   1.00
C133   C     0.80648   0.16796   0.35249   0.00000  Uiso   1.00
C134   C     0.87642   0.02197   0.22390   0.00000  Uiso   1.00
C135   C     0.83289   0.04263   0.24994   0.00000  Uiso   1.00
C136   C     0.78991   0.02120   0.27437   0.00000  Uiso   1.00
C137   C     0.79138   0.31161   0.27149   0.00000  Uiso   1.00
C138   C     0.83499   0.29079   0.24588   0.00000  Uiso   1.00
C139   C     0.98519   0.13877   0.21807   0.00000  Uiso   1.00
C140   C     0.69943   0.13819   0.21857   0.00000  Uiso   1.00
C141   C     0.80712   0.17730   0.49484   0.00000  Uiso   1.00
C142   C     0.68025   0.19354   0.28373   0.00000  Uiso   1.00
C143   C     0.96601   0.19378   0.28311   0.00000  Uiso   1.00
C144   C     0.83301   0.08674   0.25050   0.00000  Uiso   1.00
C145   C     0.86029   0.16762   0.14737   0.00000  Uiso   1.00
C146   C     0.91781   0.22187   0.01420   0.00000  Uiso   1.00
C147   C     0.87729   0.17573   0.08854   0.00000  Uiso   1.00
C148   C     0.74643   0.14819   0.44002   0.00000  Uiso   1.00
C149   C     0.73089   0.14558   0.49657   0.00000  Uiso   1.00
C150   C     0.76187   0.15962   0.02491   0.00000  Uiso   1.00
C151   C     0.81421   0.19022   0.44185   0.00000  Uiso   1.00
C152   C     0.84493   0.18425   0.01594   0.00000  Uiso   1.00
C153   C     0.88078   0.21460   0.49200   0.00000  Uiso   1.00
C154   C     0.87760   0.23712   0.44735   0.00000  Uiso   1.00
C155   C     0.84460   0.22442   0.42213   0.00000  Uiso   1.00
C156   C     0.84904   0.16082   0.05911   0.00000  Uiso   1.00
C157   C     0.91434   0.20442   0.06440   0.00000  Uiso   1.00
H158   H     0.90925   0.03908   0.20458   0.00000  Uiso   1.00
H159   H     0.72423   0.13725   0.09478   0.00000  Uiso   1.00
H160   H     0.67206   0.14033   0.05887   0.00000  Uiso   1.00
H161   H     0.75869   0.29456   0.29069   0.00000  Uiso   1.00
H162   H     0.97422   0.11629   0.19294   0.00000  Uiso   1.00
H163   H     0.93971   0.21517   0.30993   0.00000  Uiso   1.00
H164   H     0.72512   0.13385   0.41785   0.00000  Uiso   1.00
H165   H     0.95544   0.19357   0.10620   0.00000  Uiso   1.00
H166   H     0.72117   0.02244   0.31636   0.00000  Uiso   1.00
H167   H     0.98254   0.24352   0.00283   0.00000  Uiso   1.00
H168   H     0.82451   0.10914   0.03908   0.00000  Uiso   1.00
N169   N     0.71426   0.16668   0.25001   0.00000  Uiso   1.00
N170   N     0.95239   0.16665   0.25000   0.00000  Uiso   1.00
O171   O     0.79512   0.22775   0.25000   0.00000  Uiso   1.00
O172   O     0.74768   0.04259   0.30182   0.00000  Uiso   1.00
O173   O     0.95721   0.24557   0.48623   0.00000  Uiso   1.00
O174   O     0.82778   0.12241   0.07244   0.00000  Uiso   1.00
O175   O     0.74783   0.15965   0.08113   0.00000  Uiso   1.00
O176   O     0.68638   0.12809   0.02161   0.00000  Uiso   1.00
O177   O     0.87157   0.22774   0.25000   0.00000  Uiso   1.00
O178   O     0.77613   0.16666   0.32681   0.00000  Uiso   1.00
O179   O     0.85258   0.16665   0.32681   0.00000  Uiso   1.00
O180   O     0.79510   0.10559   0.24999   0.00000  Uiso   1.00
O181   O     0.87154   0.10558   0.24999   0.00000  Uiso   1.00
O182   O     0.81409   0.16668   0.17319   0.00000  Uiso   1.00
O183   O     0.89053   0.16667   0.17319   0.00000  Uiso   1.00
O184   O     0.94606   0.21776   0.08961   0.00000  Uiso   1.00
Zn185  Zn    0.78229   0.16667   0.25000   0.00000  Uiso   1.00
Zn186  Zn    0.88438   0.16666   0.25000   0.00000  Uiso   1.00
Br187  Br    0.07322   0.42698   0.17817   0.00000  Uiso   1.00
Br188  Br    0.02728   0.56207   0.33677   0.00000  Uiso   1.00
Br189  Br    0.24686   0.62106   0.42276   0.00000  Uiso   1.00
Br190  Br    0.16312   0.59517   0.37383   0.00000  Uiso   1.00
Br191  Br    0.27281   0.62039   0.18385   0.00000  Uiso   1.00
C192   C     0.16775   0.57988   0.24706   0.00000  Uiso   1.00
C193   C     0.12132   0.50364   0.41227   0.00000  Uiso   1.00
C194   C     0.21131   0.64594   0.22175   0.00000  Uiso   1.00
C195   C     0.13981   0.50129   0.35249   0.00000  Uiso   1.00
C196   C     0.20975   0.35530   0.22390   0.00000  Uiso   1.00
C197   C     0.16622   0.37597   0.24994   0.00000  Uiso   1.00
C198   C     0.12324   0.35453   0.27437   0.00000  Uiso   1.00
C199   C     0.12472   0.64494   0.27149   0.00000  Uiso   1.00
C200   C     0.16832   0.62412   0.24588   0.00000  Uiso   1.00
C201   C     0.31853   0.47211   0.21807   0.00000  Uiso   1.00
C202   C     0.03276   0.47152   0.21857   0.00000  Uiso   1.00
C203   C     0.14045   0.51064   0.49484   0.00000  Uiso   1.00
C204   C     0.01359   0.52688   0.28373   0.00000  Uiso   1.00
C205   C     0.29934   0.52711   0.28311   0.00000  Uiso   1.00
C206   C     0.16635   0.42008   0.25050   0.00000  Uiso   1.00
C207   C     0.19362   0.50096   0.14737   0.00000  Uiso   1.00
C208   C     0.25115   0.55521   0.01420   0.00000  Uiso   1.00
C209   C     0.21063   0.50907   0.08854   0.00000  Uiso   1.00
C210   C     0.07977   0.48153   0.44002   0.00000  Uiso   1.00
C211   C     0.06422   0.47892   0.49657   0.00000  Uiso   1.00
C212   C     0.09521   0.49296   0.02491   0.00000  Uiso   1.00
C213   C     0.14754   0.52356   0.44185   0.00000  Uiso   1.00
C214   C     0.17826   0.51758   0.01594   0.00000  Uiso   1.00
C215   C     0.21411   0.54793   0.49200   0.00000  Uiso   1.00
C216   C     0.21093   0.57045   0.44735   0.00000  Uiso   1.00
C217   C     0.17794   0.55776   0.42213   0.00000  Uiso   1.00
C218   C     0.18237   0.49415   0.05911   0.00000  Uiso   1.00
C219   C     0.24767   0.53776   0.06440   0.00000  Uiso   1.00
H220   H     0.24259   0.37241   0.20458   0.00000  Uiso   1.00
H221   H     0.05756   0.47058   0.09478   0.00000  Uiso   1.00
H222   H     0.00540   0.47366   0.05887   0.00000  Uiso   1.00
H223   H     0.09202   0.62789   0.29069   0.00000  Uiso   1.00
H224   H     0.30755   0.44962   0.19294   0.00000  Uiso   1.00
H225   H     0.27305   0.54850   0.30993   0.00000  Uiso   1.00
H226   H     0.05845   0.46719   0.41785   0.00000  Uiso   1.00
H227   H     0.28877   0.52691   0.10620   0.00000  Uiso   1.00
H228   H     0.05450   0.35577   0.31636   0.00000  Uiso   1.00
H229   H     0.31587   0.57685   0.00283   0.00000  Uiso   1.00
H230   H     0.15784   0.44247   0.03908   0.00000  Uiso   1.00
N231   N     0.04760   0.50001   0.25001   0.00000  Uiso   1.00
N232   N     0.28573   0.49998   0.25000   0.00000  Uiso   1.00
O233   O     0.12846   0.56108   0.25000   0.00000  Uiso   1.00
O234   O     0.08101   0.37592   0.30182   0.00000  Uiso   1.00
O235   O     0.29054   0.57890   0.48623   0.00000  Uiso   1.00
O236   O     0.16112   0.45575   0.07244   0.00000  Uiso   1.00
O237   O     0.08117   0.49298   0.08113   0.00000  Uiso   1.00
O238   O     0.01971   0.46142   0.02161   0.00000  Uiso   1.00
O239   O     0.20490   0.56107   0.25000   0.00000  Uiso   1.00
O240   O     0.10947   0.50000   0.32681   0.00000  Uiso   1.00
O241   O     0.18591   0.49999   0.32681   0.00000  Uiso   1.00
O242   O     0.12843   0.43893   0.24999   0.00000  Uiso   1.00
O243   O     0.20488   0.43892   0.24999   0.00000  Uiso   1.00
O244   O     0.14742   0.50001   0.17319   0.00000  Uiso   1.00
O245   O     0.22387   0.50000   0.17319   0.00000  Uiso   1.00
O246   O     0.27939   0.55109   0.08961   0.00000  Uiso   1.00
Zn247  Zn    0.11562   0.50001   0.25000   0.00000  Uiso   1.00
Zn248  Zn    0.21771   0.49999   0.25000   0.00000  Uiso   1.00
Br249  Br    0.40655   0.42698   0.17817   0.00000  Uiso   1.00
Br250  Br    0.36061   0.56207   0.33677   0.00000  Uiso   1.00
Br251  Br    0.58019   0.62106   0.42276   0.00000  Uiso   1.00
Br252  Br    0.49645   0.59517   0.37383   0.00000  Uiso   1.00
Br253  Br    0.60614   0.62039   0.18385   0.00000  Uiso   1.00
C254   C     0.50109   0.57988   0.24706   0.00000  Uiso   1.00
C255   C     0.45466   0.50364   0.41227   0.00000  Uiso   1.00
C256   C     0.54464   0.64594   0.22175   0.00000  Uiso   1.00
C257   C     0.47314   0.50129   0.35249   0.00000  Uiso   1.00
C258   C     0.54309   0.35530   0.22390   0.00000  Uiso   1.00
C259   C     0.49955   0.37597   0.24994   0.00000  Uiso   1.00
C260   C     0.45657   0.35453   0.27437   0.00000  Uiso   1.00
C261   C     0.45805   0.64494   0.27149   0.00000  Uiso   1.00
C262   C     0.50166   0.62412   0.24588   0.00000  Uiso   1.00
C263   C     0.65186   0.47211   0.21807   0.00000  Uiso   1.00
C264   C     0.36609   0.47152   0.21857   0.00000  Uiso   1.00
C265   C     0.47379   0.51064   0.49484   0.00000  Uiso   1.00
C266   C     0.34692   0.52688   0.28373   0.00000  Uiso   1.00
C267   C     0.63267   0.52711   0.28311   0.00000  Uiso   1.00
C268   C     0.49968   0.42008   0.25050   0.00000  Uiso   1.00
C269   C     0.52695   0.50096   0.14737   0.00000  Uiso   1.00
C270   C     0.58448   0.55521   0.01420   0.00000  Uiso   1.00
C271   C     0.54396   0.50907   0.08854   0.00000  Uiso   1.00
C272   C     0.41310   0.48153   0.44002   0.00000  Uiso   1.00
C273   C     0.39755   0.47892   0.49657   0.00000  Uiso   1.00
C274   C     0.42854   0.49296   0.02491   0.00000  Uiso   1.00
C275   C     0.48087   0.52356   0.44185   0.00000  Uiso   1.00
C276   C     0.51160   0.51758   0.01594   0.00000  Uiso   1.00
C277   C     0.54745   0.54793   0.49200   0.00000  Uiso   1.00
C278   C     0.54426   0.57045   0.44735   0.00000  Uiso   1.00
C279   C     0.51127   0.55776   0.42213   0.00000  Uiso   1.00
C280   C     0.51571   0.49415   0.05911   0.00000  Uiso   1.00
C281   C     0.58100   0.53776   0.06440   0.00000  Uiso   1.00
H282   H     0.57592   0.37241   0.20458   0.00000  Uiso   1.00
H283   H     0.39089   0.47058   0.09478   0.00000  Uiso   1.00
H284   H     0.33873   0.47366   0.05887   0.00000  Uiso   1.00
H285   H     0.42535   0.62789   0.29069   0.00000  Uiso   1.00
H286   H     0.64089   0.44962   0.19294   0.00000  Uiso   1.00
H287   H     0.60638   0.54850   0.30993   0.00000  Uiso   1.00
H288   H     0.39178   0.46719   0.41785   0.00000  Uiso   1.00
H289   H     0.62210   0.52691   0.10620   0.00000  Uiso   1.00
H290   H     0.38784   0.35577   0.31636   0.00000  Uiso   1.00
H291   H     0.64920   0.57685   0.00283   0.00000  Uiso   1.00
H292   H     0.49117   0.44247   0.03908   0.00000  Uiso   1.00
N293   N     0.38093   0.50001   0.25001   0.00000  Uiso   1.00
N294   N     0.61906   0.49998   0.25000   0.00000  Uiso   1.00
O295   O     0.46179   0.56108   0.25000   0.00000  Uiso   1.00
O296   O     0.41434   0.37592   0.30182   0.00000  Uiso   1.00
O297   O     0.62387   0.57890   0.48623   0.00000  Uiso   1.00
O298   O     0.49445   0.45575   0.07244   0.00000  Uiso   1.00
O299   O     0.41450   0.49298   0.08113   0.00000  Uiso   1.00
O300   O     0.35304   0.46142   0.02161   0.00000  Uiso   1.00
O301   O     0.53823   0.56107   0.25000   0.00000  Uiso   1.00
O302   O     0.44280   0.50000   0.32681   0.00000  Uiso   1.00
O303   O     0.51924   0.49999   0.32681   0.00000  Uiso   1.00
O304   O     0.46177   0.43893   0.24999   0.00000  Uiso   1.00
O305   O     0.53821   0.43892   0.24999   0.00000  Uiso   1.00
O306   O     0.48076   0.50001   0.17319   0.00000  Uiso   1.00
O307   O     0.55720   0.50000   0.17319   0.00000  Uiso   1.00
O308   O     0.61273   0.55109   0.08961   0.00000  Uiso   1.00
Zn309  Zn    0.44896   0.50001   0.25000   0.00000  Uiso   1.00
Zn310  Zn    0.55104   0.49999   0.25000   0.00000  Uiso   1.00
Br311  Br    0.73988   0.42698   0.17817   0.00000  Uiso   1.00
Br312  Br    0.69395   0.56207   0.33677   0.00000  Uiso   1.00
Br313  Br    0.91352   0.62106   0.42276   0.00000  Uiso   1.00
Br314  Br    0.82979   0.59517   0.37383   0.00000  Uiso   1.00
Br315  Br    0.93948   0.62039   0.18385   0.00000  Uiso   1.00
C316   C     0.83442   0.57988   0.24706   0.00000  Uiso   1.00
C317   C     0.78799   0.50364   0.41227   0.00000  Uiso   1.00
C318   C     0.87797   0.64594   0.22175   0.00000  Uiso   1.00
C319   C     0.80648   0.50129   0.35249   0.00000  Uiso   1.00
C320   C     0.87642   0.35530   0.22390   0.00000  Uiso   1.00
C321   C     0.83289   0.37597   0.24994   0.00000  Uiso   1.00
C322   C     0.78991   0.35453   0.27437   0.00000  Uiso   1.00
C323   C     0.79138   0.64494   0.27149   0.00000  Uiso   1.00
C324   C     0.83499   0.62412   0.24588   0.00000  Uiso   1.00
C325   C     0.98519   0.47211   0.21807   0.00000  Uiso   1.00
C326   C     0.69943   0.47152   0.21857   0.00000  Uiso   1.00
C327   C     0.80712   0.51064   0.49484   0.00000  Uiso   1.00
C328   C     0.68025   0.52688   0.28373   0.00000  Uiso   1.00
C329   C     0.96601   0.52711   0.28311   0.00000  Uiso   1.00
C330   C     0.83301   0.42008   0.25050   0.00000  Uiso   1.00
C331   C     0.86029   0.50096   0.14737   0.00000  Uiso   1.00
C332   C     0.91781   0.55521   0.01420   0.00000  Uiso   1.00
C333   C     0.87729   0.50907   0.08854   0.00000  Uiso   1.00
C334   C     0.74643   0.48153   0.44002   0.00000  Uiso   1.00
C335   C     0.73089   0.47892   0.49657   0.00000  Uiso   1.00
C336   C     0.76187   0.49296   0.02491   0.00000  Uiso   1.00
C337   C     0.81421   0.52356   0.44185   0.00000  Uiso   1.00
C338   C     0.84493   0.51758   0.01594   0.00000  Uiso   1.00
C339   C     0.88078   0.54793   0.49200   0.00000  Uiso   1.00
C340   C     0.87760   0.57045   0.44735   0.00000  Uiso   1.00
C341   C     0.84460   0.55776   0.42213   0.00000  Uiso   1.00
C342   C     0.84904   0.49415   0.05911   0.00000  Uiso   1.00
C343   C     0.91434   0.53776   0.06440   0.00000  Uiso   1.00
H344   H     0.90925   0.37241   0.20458   0.00000  Uiso   1.00
H345   H     0.72423   0.47058   0.09478   0.00000  Uiso   1.00
H346   H     0.67206   0.47366   0.05887   0.00000  Uiso   1.00
H347   H     0.75869   0.62789   0.29069   0.00000  Uiso   1.00
H348   H     0.97422   0.44962   0.19294   0.00000  Uiso   1.00
H349   H     0.93971   0.54850   0.30993   0.00000  Uiso   1.00
H350   H     0.72512   0.46719   0.41785   0.00000  Uiso   1.00
H351   H     0.95544   0.52691   0.10620   0.00000  Uiso   1.00
H352   H     0.72117   0.35577   0.31636   0.00000  Uiso   1.00
H353   H     0.98254   0.57685   0.00283   0.00000  Uiso   1.00
H354   H     0.82451   0.44247   0.03908   0.00000  Uiso   1.00
N355   N     0.71426   0.50001   0.25001   0.00000  Uiso   1.00
N356   N     0.95239   0.49998   0.25000   0.00000  Uiso   1.00
O357   O     0.79512   0.56108   0.25000   0.00000  Uiso   1.00
O358   O     0.74768   0.37592   0.30182   0.00000  Uiso   1.00
O359   O     0.95721   0.57890   0.48623   0.00000  Uiso   1.00
O360   O     0.82778   0.45575   0.07244   0.00000  Uiso   1.00
O361   O     0.74783   0.49298   0.08113   0.00000  Uiso   1.00
O362   O     0.68638   0.46142   0.02161   0.00000  Uiso   1.00
O363   O     0.87157   0.56107   0.25000   0.00000  Uiso   1.00
O364   O     0.77613   0.50000   0.32681   0.00000  Uiso   1.00
O365   O     0.85258   0.49999   0.32681   0.00000  Uiso   1.00
O366   O     0.79510   0.43893   0.24999   0.00000  Uiso   1.00
O367   O     0.87154   0.43892   0.24999   0.00000  Uiso   1.00
O368   O     0.81409   0.50001   0.17319   0.00000  Uiso   1.00
O369   O     0.89053   0.50000   0.17319   0.00000  Uiso   1.00
O370   O     0.94606   0.55109   0.08961   0.00000  Uiso   1.00
Zn371  Zn    0.78229   0.50001   0.25000   0.00000  Uiso   1.00
Zn372  Zn    0.88438   0.49999   0.25000   0.00000  Uiso   1.00
Br373  Br    0.07322   0.76031   0.17817   0.00000  Uiso   1.00
Br374  Br    0.02728   0.89540   0.33677   0.00000  Uiso   1.00
Br375  Br    0.24686   0.95439   0.42276   0.00000  Uiso   1.00
Br376  Br    0.16312   0.92850   0.37383   0.00000  Uiso   1.00
Br377  Br    0.27281   0.95373   0.18385   0.00000  Uiso   1.00
C378   C     0.16775   0.91321   0.24706   0.00000  Uiso   1.00
C379   C     0.12132   0.83697   0.41227   0.00000  Uiso   1.00
C380   C     0.21131   0.97927   0.22175   0.00000  Uiso   1.00
C381   C     0.13981   0.83463   0.35249   0.00000  Uiso   1.00
C382   C     0.20975   0.68863   0.22390   0.00000  Uiso   1.00
C383   C     0.16622   0.70930   0.24994   0.00000  Uiso   1.00
C384   C     0.12324   0.68787   0.27437   0.00000  Uiso   1.00
C385   C     0.12472   0.97827   0.27149   0.00000  Uiso   1.00
C386   C     0.16832   0.95745   0.24588   0.00000  Uiso   1.00
C387   C     0.31853   0.80544   0.21807   0.00000  Uiso   1.00
C388   C     0.03276   0.80486   0.21857   0.00000  Uiso   1.00
C389   C     0.14045   0.84397   0.49484   0.00000  Uiso   1.00
C390   C     0.01359   0.86021   0.28373   0.00000  Uiso   1.00
C391   C     0.29934   0.86044   0.28311   0.00000  Uiso   1.00
C392   C     0.16635   0.75341   0.25050   0.00000  Uiso   1.00
C393   C     0.19362   0.83429   0.14737   0.00000  Uiso   1.00
C394   C     0.25115   0.88854   0.01420   0.00000  Uiso   1.00
C395   C     0.21063   0.84240   0.08854   0.00000  Uiso   1.00
C396   C     0.07977   0.81486   0.44002   0.00000  Uiso   1.00
C397   C     0.06422   0.81225   0.49657   0.00000  Uiso   1.00
C398   C     0.09521   0.82629   0.02491   0.00000  Uiso   1.00
C399   C     0.14754   0.85689   0.44185   0.00000  Uiso   1.00
C400   C     0.17826   0.85091   0.01594   0.00000  Uiso   1.00
C401   C     0.21411   0.88126   0.49200   0.00000  Uiso   1.00
C402   C     0.21093   0.90379   0.44735   0.00000  Uiso   1.00
C403   C     0.17794   0.89109   0.42213   0.00000  Uiso   1.00
C404   C     0.18237   0.82749   0.05911   0.00000  Uiso   1.00
C405   C     0.24767   0.87109   0.06440   0.00000  Uiso   1.00
H406   H     0.24259   0.70574   0.20458   0.00000  Uiso   1.00
H407   H     0.05756   0.80392   0.09478   0.00000  Uiso   1.00
H408   H     0.00540   0.80700   0.05887   0.00000  Uiso   1.00
H409   H     0.09202   0.96122   0.29069   0.00000  Uiso   1.00
H410   H     0.30755   0.78295   0.19294   0.00000  Uiso   1.00
H411   H     0.27305   0.88183   0.30993   0.00000  Uiso   1.00
H412   H     0.05845   0.80052   0.41785   0.00000  Uiso   1.00
H413   H     0.28877   0.86024   0.10620   0.00000  Uiso   1.00
H414   H     0.05450   0.68911   0.31636   0.00000  Uiso   1.00
H415   H     0.31587   0.91019   0.00283   0.00000  Uiso   1.00
H416   H     0.15784   0.77580   0.03908   0.00000  Uiso   1.00
N417   N     0.04760   0.83334   0.25001   0.00000  Uiso   1.00
N418   N     0.28573   0.83331   0.25000   0.00000  Uiso   1.00
O419   O     0.12846   0.89442   0.25000   0.00000  Uiso   1.00
O420   O     0.08101   0.70925   0.30182   0.00000  Uiso   1.00
O421   O     0.29054   0.91223   0.48623   0.00000  Uiso   1.00
O422   O     0.16112   0.78908   0.07244   0.00000  Uiso   1.00
O423   O     0.08117   0.82632   0.08113   0.00000  Uiso   1.00
O424   O     0.01971   0.79475   0.02161   0.00000  Uiso   1.00
O425   O     0.20490   0.89441   0.25000   0.00000  Uiso   1.00
O426   O     0.10947   0.83333   0.32681   0.00000  Uiso   1.00
O427   O     0.18591   0.83332   0.32681   0.00000  Uiso   1.00
O428   O     0.12843   0.77226   0.24999   0.00000  Uiso   1.00
O429   O     0.20488   0.77225   0.24999   0.00000  Uiso   1.00
O430   O     0.14742   0.83335   0.17319   0.00000  Uiso   1.00
O431   O     0.22387   0.83334   0.17319   0.00000  Uiso   1.00
O432   O     0.27939   0.88443   0.08961   0.00000  Uiso   1.00
Zn433  Zn    0.11562   0.83334   0.25000   0.00000  Uiso   1.00
Zn434  Zn    0.21771   0.83333   0.25000   0.00000  Uiso   1.00
Br435  Br    0.40655   0.76031   0.17817   0.00000  Uiso   1.00
Br436  Br    0.36061   0.89540   0.33677   0.00000  Uiso   1.00
Br437  Br    0.58019   0.95439   0.42276   0.00000  Uiso   1.00
Br438  Br    0.49645   0.92850   0.37383   0.00000  Uiso   1.00
Br439  Br    0.60614   0.95373   0.18385   0.00000  Uiso   1.00
C440   C     0.50109   0.91321   0.24706   0.00000  Uiso   1.00
C441   C     0.45466   0.83697   0.41227   0.00000  Uiso   1.00
C442   C     0.54464   0.97927   0.22175   0.00000  Uiso   1.00
C443   C     0.47314   0.83463   0.35249   0.00000  Uiso   1.00
C444   C     0.54309   0.68863   0.22390   0.00000  Uiso   1.00
C445   C     0.49955   0.70930   0.24994   0.00000  Uiso   1.00
C446   C     0.45657   0.68787   0.27437   0.00000  Uiso   1.00
C447   C     0.45805   0.97827   0.27149   0.00000  Uiso   1.00
C448   C     0.50166   0.95745   0.24588   0.00000  Uiso   1.00
C449   C     0.65186   0.80544   0.21807   0.00000  Uiso   1.00
C450   C     0.36609   0.80486   0.21857   0.00000  Uiso   1.00
C451   C     0.47379   0.84397   0.49484   0.00000  Uiso   1.00
C452   C     0.34692   0.86021   0.28373   0.00000  Uiso   1.00
C453   C     0.63267   0.86044   0.28311   0.00000  Uiso   1.00
C454   C     0.49968   0.75341   0.25050   0.00000  Uiso   1.00
C455   C     0.52695   0.83429   0.14737   0.00000  Uiso   1.00
C456   C     0.58448   0.88854   0.01420   0.00000  Uiso   1.00
C457   C     0.54396   0.84240   0.08854   0.00000  Uiso   1.00
C458   C     0.41310   0.81486   0.44002   0.00000  Uiso   1.00
C459   C     0.39755   0.81225   0.49657   0.00000  Uiso   1.00
C460   C     0.42854   0.82629   0.02491   0.00000  Uiso   1.00
C461   C     0.48087   0.85689   0.44185   0.00000  Uiso   1.00
C462   C     0.51160   0.85091   0.01594   0.00000  Uiso   1.00
C463   C     0.54745   0.88126   0.49200   0.00000  Uiso   1.00
C464   C     0.54426   0.90379   0.44735   0.00000  Uiso   1.00
C465   C     0.51127   0.89109   0.42213   0.00000  Uiso   1.00
C466   C     0.51571   0.82749   0.05911   0.00000  Uiso   1.00
C467   C     0.58100   0.87109   0.06440   0.00000  Uiso   1.00
H468   H     0.57592   0.70574   0.20458   0.00000  Uiso   1.00
H469   H     0.39089   0.80392   0.09478   0.00000  Uiso   1.00
H470   H     0.33873   0.80700   0.05887   0.00000  Uiso   1.00
H471   H     0.42535   0.96122   0.29069   0.00000  Uiso   1.00
H472   H     0.64089   0.78295   0.19294   0.00000  Uiso   1.00
H473   H     0.60638   0.88183   0.30993   0.00000  Uiso   1.00
H474   H     0.39178   0.80052   0.41785   0.00000  Uiso   1.00
H475   H     0.62210   0.86024   0.10620   0.00000  Uiso   1.00
H476   H     0.38784   0.68911   0.31636   0.00000  Uiso   1.00
H477   H     0.64920   0.91019   0.00283   0.00000  Uiso   1.00
H478   H     0.49117   0.77580   0.03908   0.00000  Uiso   1.00
N479   N     0.38093   0.83334   0.25001   0.00000  Uiso   1.00
N480   N     0.61906   0.83331   0.25000   0.00000  Uiso   1.00
O481   O     0.46179   0.89442   0.25000   0.00000  Uiso   1.00
O482   O     0.41434   0.70925   0.30182   0.00000  Uiso   1.00
O483   O     0.62387   0.91223   0.48623   0.00000  Uiso   1.00
O484   O     0.49445   0.78908   0.07244   0.00000  Uiso   1.00
O485   O     0.41450   0.82632   0.08113   0.00000  Uiso   1.00
O486   O     0.35304   0.79475   0.02161   0.00000  Uiso   1.00
O487   O     0.53823   0.89441   0.25000   0.00000  Uiso   1.00
O488   O     0.44280   0.83333   0.32681   0.00000  Uiso   1.00
O489   O     0.51924   0.83332   0.32681   0.00000  Uiso   1.00
O490   O     0.46177   0.77226   0.24999   0.00000  Uiso   1.00
O491   O     0.53821   0.77225   0.24999   0.00000  Uiso   1.00
O492   O     0.48076   0.83335   0.17319   0.00000  Uiso   1.00
O493   O     0.55720   0.83334   0.17319   0.00000  Uiso   1.00
O494   O     0.61273   0.88443   0.08961   0.00000  Uiso   1.00
Zn495  Zn    0.44896   0.83334   0.25000   0.00000  Uiso   1.00
Zn496  Zn    0.55104   0.83333   0.25000   0.00000  Uiso   1.00
Br497  Br    0.73988   0.76031   0.17817   0.00000  Uiso   1.00
Br498  Br    0.69395   0.89540   0.33677   0.00000  Uiso   1.00
Br499  Br    0.91352   0.95439   0.42276   0.00000  Uiso   1.00
Br500  Br    0.82979   0.92850   0.37383   0.00000  Uiso   1.00
Br501  Br    0.93948   0.95373   0.18385   0.00000  Uiso   1.00
C502   C     0.83442   0.91321   0.24706   0.00000  Uiso   1.00
C503   C     0.78799   0.83697   0.41227   0.00000  Uiso   1.00
C504   C     0.87797   0.97927   0.22175   0.00000  Uiso   1.00
C505   C     0.80648   0.83463   0.35249   0.00000  Uiso   1.00
C506   C     0.87642   0.68863   0.22390   0.00000  Uiso   1.00
C507   C     0.83289   0.70930   0.24994   0.00000  Uiso   1.00
C508   C     0.78991   0.68787   0.27437   0.00000  Uiso   1.00
C509   C     0.79138   0.97827   0.27149   0.00000  Uiso   1.00
C510   C     0.83499   0.95745   0.24588   0.00000  Uiso   1.00
C511   C     0.98519   0.80544   0.21807   0.00000  Uiso   1.00
C512   C     0.69943   0.80486   0.21857   0.00000  Uiso   1.00
C513   C     0.80712   0.84397   0.49484   0.00000  Uiso   1.00
C514   C     0.68025   0.86021   0.28373   0.00000  Uiso   1.00
C515   C     0.96601   0.86044   0.28311   0.00000  Uiso   1.00
C516   C     0.83301   0.75341   0.25050   0.00000  Uiso   1.00
C517   C     0.86029   0.83429   0.14737   0.00000  Uiso   1.00
C518   C     0.91781   0.88854   0.01420   0.00000  Uiso   1.00
C519   C     0.87729   0.84240   0.08854   0.00000  Uiso   1.00
C520   C     0.74643   0.81486   0.44002   0.00000  Uiso   1.00
C521   C     0.73089   0.81225   0.49657   0.00000  Uiso   1.00
C522   C     0.76187   0.82629   0.02491   0.00000  Uiso   1.00
C523   C     0.81421   0.85689   0.44185   0.00000  Uiso   1.00
C524   C     0.84493   0.85091   0.01594   0.00000  Uiso   1.00
C525   C     0.88078   0.88126   0.49200   0.00000  Uiso   1.00
C526   C     0.87760   0.90379   0.44735   0.00000  Uiso   1.00
C527   C     0.84460   0.89109   0.42213   0.00000  Uiso   1.00
C528   C     0.84904   0.82749   0.05911   0.00000  Uiso   1.00
C529   C     0.91434   0.87109   0.06440   0.00000  Uiso   1.00
H530   H     0.90925   0.70574   0.20458   0.00000  Uiso   1.00
H531   H     0.72423   0.80392   0.09478   0.00000  Uiso   1.00
H532   H     0.67206   0.80700   0.05887   0.00000  Uiso   1.00
H533   H     0.75869   0.96122   0.29069   0.00000  Uiso   1.00
H534   H     0.97422   0.78295   0.19294   0.00000  Uiso   1.00
H535   H     0.93971   0.88183   0.30993   0.00000  Uiso   1.00
H536   H     0.72512   0.80052   0.41785   0.00000  Uiso   1.00
H537   H     0.95544   0.86024   0.10620   0.00000  Uiso   1.00
H538   H     0.72117   0.68911   0.31636   0.00000  Uiso   1.00
H539   H     0.98254   0.91019   0.00283   0.00000  Uiso   1.00
H540   H     0.82451   0.77580   0.03908   0.00000  Uiso   1.00
N541   N     0.71426   0.83334   0.25001   0.00000  Uiso   1.00
N542   N     0.95239   0.83331   0.25000   0.00000  Uiso   1.00
O543   O     0.79512   0.89442   0.25000   0.00000  Uiso   1.00
O544   O     0.74768   0.70925   0.30182   0.00000  Uiso   1.00
O545   O     0.95721   0.91223   0.48623   0.00000  Uiso   1.00
O546   O     0.82778   0.78908   0.07244   0.00000  Uiso   1.00
O547   O     0.74783   0.82632   0.08113   0.00000  Uiso   1.00
O548   O     0.68638   0.79475   0.02161   0.00000  Uiso   1.00
O549   O     0.87157   0.89441   0.25000   0.00000  Uiso   1.00
O550   O     0.77613   0.83333   0.32681   0.00000  Uiso   1.00
O551   O     0.85258   0.83332   0.32681   0.00000  Uiso   1.00
O552   O     0.79510   0.77226   0.24999   0.00000  Uiso   1.00
O553   O     0.87154   0.77225   0.24999   0.00000  Uiso   1.00
O554   O     0.81409   0.83335   0.17319   0.00000  Uiso   1.00
O555   O     0.89053   0.83334   0.17319   0.00000  Uiso   1.00
O556   O     0.94606   0.88443   0.08961   0.00000  Uiso   1.00
Zn557  Zn    0.78229   0.83334   0.25000   0.00000  Uiso   1.00
Zn558  Zn    0.88438   0.83333   0.25000   0.00000  Uiso   1.00
Br559  Br    0.07322   0.09365   0.67817   0.00000  Uiso   1.00
Br560  Br    0.02728   0.22873   0.83677   0.00000  Uiso   1.00
Br561  Br    0.24686   0.28773   0.92276   0.00000  Uiso   1.00
Br562  Br    0.16312   0.26183   0.87383   0.00000  Uiso   1.00
Br563  Br    0.27281   0.28706   0.68385   0.00000  Uiso   1.00
C564   C     0.16775   0.24654   0.74706   0.00000  Uiso   1.00
C565   C     0.12132   0.17030   0.91227   0.00000  Uiso   1.00
C566   C     0.21131   0.31260   0.72175   0.00000  Uiso   1.00
C567   C     0.13981   0.16796   0.85249   0.00000  Uiso   1.00
C568   C     0.20975   0.02197   0.72390   0.00000  Uiso   1.00
C569   C     0.16622   0.04263   0.74994   0.00000  Uiso   1.00
C570   C     0.12324   0.02120   0.77437   0.00000  Uiso   1.00
C571   C     0.12472   0.31161   0.77149   0.00000  Uiso   1.00
C572   C     0.16832   0.29079   0.74588   0.00000  Uiso   1.00
C573   C     0.31853   0.13877   0.71807   0.00000  Uiso   1.00
C574   C     0.03276   0.13819   0.71857   0.00000  Uiso   1.00
C575   C     0.14045   0.17730   0.99484   0.00000  Uiso   1.00
C576   C     0.01359   0.19354   0.78373   0.00000  Uiso   1.00
C577   C     0.29934   0.19378   0.78311   0.00000  Uiso   1.00
C578   C     0.16635   0.08674   0.75050   0.00000  Uiso   1.00
C579   C     0.19362   0.16762   0.64737   0.00000  Uiso   1.00
C580   C     0.25115   0.22187   0.51420   0.00000  Uiso   1.00
C581   C     0.21063   0.17573   0.58854   0.00000  Uiso   1.00
C582   C     0.07977   0.14819   0.94002   0.00000  Uiso   1.00
C583   C     0.06422   0.14558   0.99657   0.00000  Uiso   1.00
C584   C     0.09521   0.15962   0.52491   0.00000  Uiso   1.00
C585   C     0.14754   0.19022   0.94185   0.00000  Uiso   1.00
C586   C     0.17826   0.18425   0.51594   0.00000  Uiso   1.00
C587   C     0.21411   0.21460   0.99200   0.00000  Uiso   1.00
C588   C     0.21093   0.23712   0.94735   0.00000  Uiso   1.00
C589   C     0.17794   0.22442   0.92213   0.00000  Uiso   1.00
C590   C     0.18237   0.16082   0.55911   0.00000  Uiso   1.00
C591   C     0.24767   0.20442   0.56440   0.00000  Uiso   1.00
H592   H     0.24259   0.03908   0.70458   0.00000  Uiso   1.00
H593   H     0.05756   0.13725   0.59478   0.00000  Uiso   1.00
H594   H     0.00540   0.14033   0.55887   0.00000  Uiso   1.00
H595   H     0.09202   0.29456   0.79069   0.00000  Uiso   1.00
H596   H     0.30755   0.11629   0.69294   0.00000  Uiso   1.00
H597   H     0.27305   0.21517   0.80993   0.00000  Uiso   1.00
H598   H     0.05845   0.13385   0.91785   0.00000  Uiso   1.00
H599   H     0.28877   0.19357   0.60620   0.00000  Uiso   1.00
H600   H     0.05450   0.02244   0.81636   0.00000  Uiso   1.00
H601   H     0.31587   0.24352   0.50283   0.00000  Uiso   1.00
H602   H     0.15784   0.10914   0.53908   0.00000  Uiso   1.00
N603   N     0.04760   0.16668   0.75001   0.00000  Uiso   1.00
N604   N     0.28573   0.16665   0.75000   0.00000  Uiso   1.00
O605   O     0.12846   0.22775   0.75000   0.00000  Uiso   1.00
O606   O     0.08101   0.04259   0.80182   0.00000  Uiso   1.00
O607   O     0.29054   0.24557   0.98623   0.00000  Uiso   1.00
O608   O     0.16112   0.12241   0.57244   0.00000  Uiso   1.00
O609   O     0.08117   0.15965   0.58113   0.00000  Uiso   1.00
O610   O     0.01971   0.12809   0.52161   0.00000  Uiso   1.00
O611   O     0.20490   0.22774   0.75000   0.00000  Uiso   1.00
O612   O     0.10947   0.16666   0.82681   0.00000  Uiso   1.00
O613   O     0.18591   0.16665   0.82681   0.00000  Uiso   1.00
O614   O     0.12843   0.10559   0.74999   0.00000  Uiso   1.00
O615   O     0.20488   0.10558   0.74999   0.00000  Uiso   1.00
O616   O     0.14742   0.16668   0.67319   0.00000  Uiso   1.00
O617   O     0.22387   0.16667   0.67319   0.00000  Uiso   1.00
O618   O     0.27939   0.21776   0.58961   0.00000  Uiso   1.00
Zn619  Zn    0.11562   0.16667   0.75000   0.00000  Uiso   1.00
Zn620  Zn    0.21771   0.16666   0.75000   0.00000  Uiso   1.00
Br621  Br    0.40655   0.09365   0.67817   0.00000  Uiso   1.00
Br622  Br    0.36061   0.22873   0.83677   0.00000  Uiso   1.00
Br623  Br    0.58019   0.28773   0.92276   0.00000  Uiso   1.00
Br624  Br    0.49645   0.26183   0.87383   0.00000  Uiso   1.00
Br625  Br    0.60614   0.28706   0.68385   0.00000  Uiso   1.00
C626   C     0.50109   0.24654   0.74706   0.00000  Uiso   1.00
C627   C     0.45466   0.17030   0.91227   0.00000  Uiso   1.00
C628   C     0.54464   0.31260   0.72175   0.00000  Uiso   1.00
C629   C     0.47314   0.16796   0.85249   0.00000  Uiso   1.00
C630   C     0.54309   0.02197   0.72390   0.00000  Uiso   1.00
C631   C     0.49955   0.04263   0.74994   0.00000  Uiso   1.00
C632   C     0.45657   0.02120   0.77437   0.00000  Uiso   1.00
C633   C     0.45805   0.31161   0.77149   0.00000  Uiso   1.00
C634   C     0.50166   0.29079   0.74588   0.00000  Uiso   1.00
C635   C     0.65186   0.13877   0.71807   0.00000  Uiso   1.00
C636   C     0.36609   0.13819   0.71857   0.00000  Uiso   1.00
C637   C     0.47379   0.17730   0.99484   0.00000  Uiso   1.00
C638   C     0.34692   0.19354   0.78373   0.00000  Uiso   1.00
C639   C     0.63267   0.19378   0.78311   0.00000  Uiso   1.00
C640   C     0.49968   0.08674   0.75050   0.00000  Uiso   1.00
C641   C     0.52695   0.16762   0.64737   0.00000  Uiso   1.00
C642   C     0.58448   0.22187   0.51420   0.00000  Uiso   1.00
C643   C     0.54396   0.17573   0.58854   0.00000  Uiso   1.00
C644   C     0.41310   0.14819   0.94002   0.00000  Uiso   1.00
C645   C     0.39755   0.14558   0.99657   0.00000  Uiso   1.00
C646   C     0.42854   0.15962   0.52491   0.00000  Uiso   1.00
C647   C     0.48087   0.19022   0.94185   0.00000  Uiso   1.00
C648   C     0.51160   0.18425   0.51594   0.00000  Uiso   1.00
C649   C     0.54745   0.21460   0.99200   0.00000  Uiso   1.00
C650   C     0.54426   0.23712   0.94735   0.00000  Uiso   1.00
C651   C     0.51127   0.22442   0.92213   0.00000  Uiso   1.00
C652   C     0.51571   0.16082   0.55911   0.00000  Uiso   1.00
C653   C     0.58100   0.20442   0.56440   0.00000  Uiso   1.00
H654   H     0.57592   0.03908   0.70458   0.00000  Uiso   1.00
H655   H     0.39089   0.13725   0.59478   0.00000  Uiso   1.00
H656   H     0.33873   0.14033   0.55887   0.00000  Uiso   1.00
H657   H     0.42535   0.29456   0.79069   0.00000  Uiso   1.00
H658   H     0.64089   0.11629   0.69294   0.00000  Uiso   1.00
H659   H     0.60638   0.21517   0.80993   0.00000  Uiso   1.00
H660   H     0.39178   0.13385   0.91785   0.00000  Uiso   1.00
H661   H     0.62210   0.19357   0.60620   0.00000  Uiso   1.00
H662   H     0.38784   0.02244   0.81636   0.00000  Uiso   1.00
H663   H     0.64920   0.24352   0.50283   0.00000  Uiso   1.00
H664   H     0.49117   0.10914   0.53908   0.00000  Uiso   1.00
N665   N     0.38093   0.16668   0.75001   0.00000  Uiso   1.00
N666   N     0.61906   0.16665   0.75000   0.00000  Uiso   1.00
O667   O     0.46179   0.22775   0.75000   0.00000  Uiso   1.00
O668   O     0.41434   0.04259   0.80182   0.00000  Uiso   1.00
O669   O     0.62387   0.24557   0.98623   0.00000  Uiso   1.00
O670   O     0.49445   0.12241   0.57244   0.00000  Uiso   1.00
O671   O     0.41450   0.15965   0.58113   0.00000  Uiso   1.00
O672   O     0.35304   0.12809   0.52161   0.00000  Uiso   1.00
O673   O     0.53823   0.22774   0.75000   0.00000  Uiso   1.00
O674   O     0.44280   0.16666   0.82681   0.00000  Uiso   1.00
O675   O     0.51924   0.16665   0.82681   0.00000  Uiso   1.00
O676   O     0.46177   0.10559   0.74999   0.00000  Uiso   1.00
O677   O     0.53821   0.10558   0.74999   0.00000  Uiso   1.00
O678   O     0.48076   0.16668   0.67319   0.00000  Uiso   1.00
O679   O     0.55720   0.16667   0.67319   0.00000  Uiso   1.00
O680   O     0.61273   0.21776   0.58961   0.00000  Uiso   1.00
Zn681  Zn    0.44896   0.16667   0.75000   0.00000  Uiso   1.00
Zn682  Zn    0.55104   0.16666   0.75000   0.00000  Uiso   1.00
Br683  Br    0.73988   0.09365   0.67817   0.00000  Uiso   1.00
Br684  Br    0.69395   0.22873   0.83677   0.00000  Uiso   1.00
Br685  Br    0.91352   0.28773   0.92276   0.00000  Uiso   1.00
Br686  Br    0.82979   0.26183   0.87383   0.00000  Uiso   1.00
Br687  Br    0.93948   0.28706   0.68385   0.00000  Uiso   1.00
C688   C     0.83442   0.24654   0.74706   0.00000  Uiso   1.00
C689   C     0.78799   0.17030   0.91227   0.00000  Uiso   1.00
C690   C     0.87797   0.31260   0.72175   0.00000  Uiso   1.00
C691   C     0.80648   0.16796   0.85249   0.00000  Uiso   1.00
C692   C     0.87642   0.02197   0.72390   0.00000  Uiso   1.00
C693   C     0.83289   0.04263   0.74994   0.00000  Uiso   1.00
C694   C     0.78991   0.02120   0.77437   0.00000  Uiso   1.00
C695   C     0.79138   0.31161   0.77149   0.00000  Uiso   1.00
C696   C     0.83499   0.29079   0.74588   0.00000  Uiso   1.00
C697   C     0.98519   0.13877   0.71807   0.00000  Uiso   1.00
C698   C     0.69943   0.13819   0.71857   0.00000  Uiso   1.00
C699   C     0.80712   0.17730   0.99484   0.00000  Uiso   1.00
C700   C     0.68025   0.19354   0.78373   0.00000  Uiso   1.00
C701   C     0.96601   0.19378   0.78311   0.00000  Uiso   1.00
C702   C     0.83301   0.08674   0.75050   0.00000  Uiso   1.00
C703   C     0.86029   0.16762   0.64737   0.00000  Uiso   1.00
C704   C     0.91781   0.22187   0.51420   0.00000  Uiso   1.00
C705   C     0.87729   0.17573   0.58854   0.00000  Uiso   1.00
C706   C     0.74643   0.14819   0.94002   0.00000  Uiso   1.00
C707   C     0.73089   0.14558   0.99657   0.00000  Uiso   1.00
C708   C     0.76187   0.15962   0.52491   0.00000  Uiso   1.00
C709   C     0.81421   0.19022   0.94185   0.00000  Uiso   1.00
C710   C     0.84493   0.18425   0.51594   0.00000  Uiso   1.00
C711   C     0.88078   0.21460   0.99200   0.00000  Uiso   1.00
C712   C     0.87760   0.23712   0.94735   0.00000  Uiso   1.00
C713   C     0.84460   0.22442   0.92213   0.00000  Uiso   1.00
C714   C     0.84904   0.16082   0.55911   0.00000  Uiso   1.00
C715   C     0.91434   0.20442   0.56440   0.00000  Uiso   1.00
H716   H     0.90925   0.03908   0.70458   0.00000  Uiso   1.00
H717   H     0.72423   0.13725   0.59478   0.00000  Uiso   1.00
H718   H     0.67206   0.14033   0.55887   0.00000  Uiso   1.00
H719   H     0.75869   0.29456   0.79069   0.00000  Uiso   1.00
H720   H     0.97422   0.11629   0.69294   0.00000  Uiso   1.00
H721   H     0.93971   0.21517   0.80993   0.00000  Uiso   1.00
H722   H     0.72512   0.13385   0.91785   0.00000  Uiso   1.00
H723   H     0.95544   0.19357   0.60620   0.00000  Uiso   1.00
H724   H     0.72117   0.02244   0.81636   0.00000  Uiso   1.00
H725   H     0.98254   0.24352   0.50283   0.00000  Uiso   1.00
H726   H     0.82451   0.10914   0.53908   0.00000  Uiso   1.00
N727   N     0.71426   0.16668   0.75001   0.00000  Uiso   1.00
N728   N     0.95239   0.16665   0.75000   0.00000  Uiso   1.00
O729   O     0.79512   0.22775   0.75000   0.00000  Uiso   1.00
O730   O     0.74768   0.04259   0.80182   0.00000  Uiso   1.00
O731   O     0.95721   0.24557   0.98623   0.00000  Uiso   1.00
O732   O     0.82778   0.12241   0.57244   0.00000  Uiso   1.00
O733   O     0.74783   0.15965   0.58113   0.00000  Uiso   1.00
O734   O     0.68638   0.12809   0.52161   0.00000  Uiso   1.00
O735   O     0.87157   0.22774   0.75000   0.00000  Uiso   1.00
O736   O     0.77613   0.16666   0.82681   0.00000  Uiso   1.00
O737   O     0.85258   0.16665   0.82681   0.00000  Uiso   1.00
O738   O     0.79510   0.10559   0.74999   0.00000  Uiso   1.00
O739   O     0.87154   0.10558   0.74999   0.00000  Uiso   1.00
O740   O     0.81409   0.16668   0.67319   0.00000  Uiso   1.00
O741   O     0.89053   0.16667   0.67319   0.00000  Uiso   1.00
O742   O     0.94606   0.21776   0.58961   0.00000  Uiso   1.00
Zn743  Zn    0.78229   0.16667   0.75000   0.00000  Uiso   1.00
Zn744  Zn    0.88438   0.16666   0.75000   0.00000  Uiso   1.00
Br745  Br    0.07322   0.42698   0.67817   0.00000  Uiso   1.00
Br746  Br    0.02728   0.56207   0.83677   0.00000  Uiso   1.00
Br747  Br    0.24686   0.62106   0.92276   0.00000  Uiso   1.00
Br748  Br    0.16312   0.59517   0.87383   0.00000  Uiso   1.00
Br749  Br    0.27281   0.62039   0.68385   0.00000  Uiso   1.00
C750   C     0.16775   0.57988   0.74706   0.00000  Uiso   1.00
C751   C     0.12132   0.50364   0.91227   0.00000  Uiso   1.00
C752   C     0.21131   0.64594   0.72175   0.00000  Uiso   1.00
C753   C     0.13981   0.50129   0.85249   0.00000  Uiso   1.00
C754   C     0.20975   0.35530   0.72390   0.00000  Uiso   1.00
C755   C     0.16622   0.37597   0.74994   0.00000  Uiso   1.00
C756   C     0.12324   0.35453   0.77437   0.00000  Uiso   1.00
C757   C     0.12472   0.64494   0.77149   0.00000  Uiso   1.00
C758   C     0.16832   0.62412   0.74588   0.00000  Uiso   1.00
C759   C     0.31853   0.47211   0.71807   0.00000  Uiso   1.00
C760   C     0.03276   0.47152   0.71857   0.00000  Uiso   1.00
C761   C     0.14045   0.51064   0.99484   0.00000  Uiso   1.00
C762   C     0.01359   0.52688   0.78373   0.00000  Uiso   1.00
C763   C     0.29934   0.52711   0.78311   0.00000  Uiso   1.00
C764   C     0.16635   0.42008   0.75050   0.00000  Uiso   1.00
C765   C     0.19362   0.50096   0.64737   0.00000  Uiso   1.00
C766   C     0.25115   0.55521   0.51420   0.00000  Uiso   1.00
C767   C     0.21063   0.50907   0.58854   0.00000  Uiso   1.00
C768   C     0.07977   0.48153   0.94002   0.00000  Uiso   1.00
C769   C     0.06422   0.47892   0.99657   0.00000  Uiso   1.00
C770   C     0.09521   0.49296   0.52491   0.00000  Uiso   1.00
C771   C     0.14754   0.52356   0.94185   0.00000  Uiso   1.00
C772   C     0.17826   0.51758   0.51594   0.00000  Uiso   1.00
C773   C     0.21411   0.54793   0.99200   0.00000  Uiso   1.00
C774   C     0.21093   0.57045   0.94735   0.00000  Uiso   1.00
C775   C     0.17794   0.55776   0.92213   0.00000  Uiso   1.00
C776   C     0.18237   0.49415   0.55911   0.00000  Uiso   1.00
C777   C     0.24767   0.53776   0.56440   0.00000  Uiso   1.00
H778   H     0.24259   0.37241   0.70458   0.00000  Uiso   1.00
H779   H     0.05756   0.47058   0.59478   0.00000  Uiso   1.00
H780   H     0.00540   0.47366   0.55887   0.00000  Uiso   1.00
H781   H     0.09202   0.62789   0.79069   0.00000  Uiso   1.00
H782   H     0.30755   0.44962   0.69294   0.00000  Uiso   1.00
H783   H     0.27305   0.54850   0.80993   0.00000  Uiso   1.00
H784   H     0.05845   0.46719   0.91785   0.00000  Uiso   1.00
H785   H     0.28877   0.52691   0.60620   0.00000  Uiso   1.00
H786   H     0.05450   0.35577   0.81636   0.00000  Uiso   1.00
H787   H     0.31587   0.57685   0.50283   0.00000  Uiso   1.00
H788   H     0.15784   0.44247   0.53908   0.00000  Uiso   1.00
N789   N     0.04760   0.50001   0.75001   0.00000  Uiso   1.00
N790   N     0.28573   0.49998   0.75000   0.00000  Uiso   1.00
O791   O     0.12846   0.56108   0.75000   0.00000  Uiso   1.00
O792   O     0.08101   0.37592   0.80182   0.00000  Uiso   1.00
O793   O     0.29054   0.57890   0.98623   0.00000  Uiso   1.00
O794   O     0.16112   0.45575   0.57244   0.00000  Uiso   1.00
O795   O     0.08117   0.49298   0.58113   0.00000  Uiso   1.00
O796   O     0.01971   0.46142   0.52161   0.00000  Uiso   1.00
O797   O     0.20490   0.56107   0.75000   0.00000  Uiso   1.00
O798   O     0.10947   0.50000   0.82681   0.00000  Uiso   1.00
O799   O     0.18591   0.49999   0.82681   0.00000  Uiso   1.00
O800   O     0.12843   0.43893   0.74999   0.00000  Uiso   1.00
O801   O     0.20488   0.43892   0.74999   0.00000  Uiso   1.00
O802   O     0.14742   0.50001   0.67319   0.00000  Uiso   1.00
O803   O     0.22387   0.50000   0.67319   0.00000  Uiso   1.00
O804   O     0.27939   0.55109   0.58961   0.00000  Uiso   1.00
Zn805  Zn    0.11562   0.50001   0.75000   0.00000  Uiso   1.00
Zn806  Zn    0.21771   0.49999   0.75000   0.00000  Uiso   1.00
Br807  Br    0.40655   0.42698   0.67817   0.00000  Uiso   1.00
Br808  Br    0.36061   0.56207   0.83677   0.00000  Uiso   1.00
Br809  Br    0.58019   0.62106   0.92276   0.00000  Uiso   1.00
Br810  Br    0.49645   0.59517   0.87383   0.00000  Uiso   1.00
Br811  Br    0.60614   0.62039   0.68385   0.00000  Uiso   1.00
C812   C     0.50109   0.57988   0.74706   0.00000  Uiso   1.00
C813   C     0.45466   0.50364   0.91227   0.00000  Uiso   1.00
C814   C     0.54464   0.64594   0.72175   0.00000  Uiso   1.00
C815   C     0.47314   0.50129   0.85249   0.00000  Uiso   1.00
C816   C     0.54309   0.35530   0.72390   0.00000  Uiso   1.00
C817   C     0.49955   0.37597   0.74994   0.00000  Uiso   1.00
C818   C     0.45657   0.35453   0.77437   0.00000  Uiso   1.00
C819   C     0.45805   0.64494   0.77149   0.00000  Uiso   1.00
C820   C     0.50166   0.62412   0.74588   0.00000  Uiso   1.00
C821   C     0.65186   0.47211   0.71807   0.00000  Uiso   1.00
C822   C     0.36609   0.47152   0.71857   0.00000  Uiso   1.00
C823   C     0.47379   0.51064   0.99484   0.00000  Uiso   1.00
C824   C     0.34692   0.52688   0.78373   0.00000  Uiso   1.00
C825   C     0.63267   0.52711   0.78311   0.00000  Uiso   1.00
C826   C     0.49968   0.42008   0.75050   0.00000  Uiso   1.00
C827   C     0.52695   0.50096   0.64737   0.00000  Uiso   1.00
C828   C     0.58448   0.55521   0.51420   0.00000  Uiso   1.00
C829   C     0.54396   0.50907   0.58854   0.00000  Uiso   1.00
C830   C     0.41310   0.48153   0.94002   0.00000  Uiso   1.00
C831   C     0.39755   0.47892   0.99657   0.00000  Uiso   1.00
C832   C     0.42854   0.49296   0.52491   0.00000  Uiso   1.00
C833   C     0.48087   0.52356   0.94185   0.00000  Uiso   1.00
C834   C     0.51160   0.51758   0.51594   0.00000  Uiso   1.00
C835   C     0.54745   0.54793   0.99200   0.00000  Uiso   1.00
C836   C     0.54426   0.57045   0.94735   0.00000  Uiso   1.00
C837   C     0.51127   0.55776   0.92213   0.00000  Uiso   1.00
C838   C     0.51571   0.49415   0.55911   0.00000  Uiso   1.00
C839   C     0.58100   0.53776   0.56440   0.00000  Uiso   1.00
H840   H     0.57592   0.37241   0.70458   0.00000  Uiso   1.00
H841   H     0.39089   0.47058   0.59478   0.00000  Uiso   1.00
H842   H     0.33873   0.47366   0.55887   0.00000  Uiso   1.00
H843   H     0.42535   0.62789   0.79069   0.00000  Uiso   1.00
H844   H     0.64089   0.44962   0.69294   0.00000  Uiso   1.00
H845   H     0.60638   0.54850   0.80993   0.00000  Uiso   1.00
H846   H     0.39178   0.46719   0.91785   0.00000  Uiso   1.00
H847   H     0.62210   0.52691   0.60620   0.00000  Uiso   1.00
H848   H     0.38784   0.35577   0.81636   0.00000  Uiso   1.00
H849   H     0.64920   0.57685   0.50283   0.00000  Uiso   1.00
H850   H     0.49117   0.44247   0.53908   0.00000  Uiso   1.00
N851   N     0.38093   0.50001   0.75001   0.00000  Uiso   1.00
N852   N     0.61906   0.49998   0.75000   0.00000  Uiso   1.00
O853   O     0.46179   0.56108   0.75000   0.00000  Uiso   1.00
O854   O     0.41434   0.37592   0.80182   0.00000  Uiso   1.00
O855   O     0.62387   0.57890   0.98623   0.00000  Uiso   1.00
O856   O     0.49445   0.45575   0.57244   0.00000  Uiso   1.00
O857   O     0.41450   0.49298   0.58113   0.00000  Uiso   1.00
O858   O     0.35304   0.46142   0.52161   0.00000  Uiso   1.00
O859   O     0.53823   0.56107   0.75000   0.00000  Uiso   1.00
O860   O     0.44280   0.50000   0.82681   0.00000  Uiso   1.00
O861   O     0.51924   0.49999   0.82681   0.00000  Uiso   1.00
O862   O     0.46177   0.43893   0.74999   0.00000  Uiso   1.00
O863   O     0.53821   0.43892   0.74999   0.00000  Uiso   1.00
O864   O     0.48076   0.50001   0.67319   0.00000  Uiso   1.00
O865   O     0.55720   0.50000   0.67319   0.00000  Uiso   1.00
O866   O     0.61273   0.55109   0.58961   0.00000  Uiso   1.00
Zn867  Zn    0.44896   0.50001   0.75000   0.00000  Uiso   1.00
Zn868  Zn    0.55104   0.49999   0.75000   0.00000  Uiso   1.00
Br869  Br    0.73988   0.42698   0.67817   0.00000  Uiso   1.00
Br870  Br    0.69395   0.56207   0.83677   0.00000  Uiso   1.00
Br871  Br    0.91352   0.62106   0.92276   0.00000  Uiso   1.00
Br872  Br    0.82979   0.59517   0.87383   0.00000  Uiso   1.00
Br873  Br    0.93948   0.62039   0.68385   0.00000  Uiso   1.00
C874   C     0.83442   0.57988   0.74706   0.00000  Uiso   1.00
C875   C     0.78799   0.50364   0.91227   0.00000  Uiso   1.00
C876   C     0.87797   0.64594   0.72175   0.00000  Uiso   1.00
C877   C     0.80648   0.50129   0.85249   0.00000  Uiso   1.00
C878   C     0.87642   0.35530   0.72390   0.00000  Uiso   1.00
C879   C     0.83289   0.37597   0.74994   0.00000  Uiso   1.00
C880   C     0.78991   0.35453   0.77437   0.00000  Uiso   1.00
C881   C     0.79138   0.64494   0.77149   0.00000  Uiso   1.00
C882   C     0.83499   0.62412   0.74588   0.00000  Uiso   1.00
C883   C     0.98519   0.47211   0.71807   0.00000  Uiso   1.00
C884   C     0.69943   0.47152   0.71857   0.00000  Uiso   1.00
C885   C     0.80712   0.51064   0.99484   0.00000  Uiso   1.00
C886   C     0.68025   0.52688   0.78373   0.00000  Uiso   1.00
C887   C     0.96601   0.52711   0.78311   0.00000  Uiso   1.00
C888   C     0.83301   0.42008   0.75050   0.00000  Uiso   1.00
C889   C     0.86029   0.50096   0.64737   0.00000  Uiso   1.00
C890   C     0.91781   0.55521   0.51420   0.00000  Uiso   1.00
C891   C     0.87729   0.50907   0.58854   0.00000  Uiso   1.00
C892   C     0.74643   0.48153   0.94002   0.00000  Uiso   1.00
C893   C     0.73089   0.47892   0.99657   0.00000  Uiso   1.00
C894   C     0.76187   0.49296   0.52491   0.00000  Uiso   1.00
C895   C     0.81421   0.52356   0.94185   0.00000  Uiso   1.00
C896   C     0.84493   0.51758   0.51594   0.00000  Uiso   1.00
C897   C     0.88078   0.54793   0.99200   0.00000  Uiso   1.00
C898   C     0.87760   0.57045   0.94735   0.00000  Uiso   1.00
C899   C     0.84460   0.55776   0.92213   0.00000  Uiso   1.00
C900   C     0.84904   0.49415   0.55911   0.00000  Uiso   1.00
C901   C     0.91434   0.53776   0.56440   0.00000  Uiso   1.00
H902   H     0.90925   0.37241   0.70458   0.00000  Uiso   1.00
H903   H     0.72423   0.47058   0.59478   0.00000  Uiso   1.00
H904   H     0.67206   0.47366   0.55887   0.00000  Uiso   1.00
H905   H     0.75869   0.62789   0.79069   0.00000  Uiso   1.00
H906   H     0.97422   0.44962   0.69294   0.00000  Uiso   1.00
H907   H     0.93971   0.54850   0.80993   0.00000  Uiso   1.00
H908   H     0.72512   0.46719   0.91785   0.00000  Uiso   1.00
H909   H     0.95544   0.52691   0.60620   0.00000  Uiso   1.00
H910   H     0.72117   0.35577   0.81636   0.00000  Uiso   1.00
H911   H     0.98254   0.57685   0.50283   0.00000  Uiso   1.00
H912   H     0.82451   0.44247   0.53908   0.00000  Uiso   1.00
N913   N     0.71426   0.50001   0.75001   0.00000  Uiso   1.00
N914   N     0.95239   0.49998   0.75000   0.00000  Uiso   1.00
O915   O     0.79512   0.56108   0.75000   0.00000  Uiso   1.00
O916   O     0.74768   0.37592   0.80182   0.00000  Uiso   1.00
O917   O     0.95721   0.57890   0.98623   0.00000  Uiso   1.00
O918   O     0.82778   0.45575   0.57244   0.00000  Uiso   1.00
O919   O     0.74783   0.49298   0.58113   0.00000  Uiso   1.00
O920   O     0.68638   0.46142   0.52161   0.00000  Uiso   1.00
O921   O     0.87157   0.56107   0.75000   0.00000  Uiso   1.00
O922   O     0.77613   0.50000   0.82681   0.00000  Uiso   1.00
O923   O     0.85258   0.49999   0.82681   0.00000  Uiso   1.00
O924   O     0.79510   0.43893   0.74999   0.00000  Uiso   1.00
O925   O     0.87154   0.43892   0.74999   0.00000  Uiso   1.00
O926   O     0.81409   0.50001   0.67319   0.00000  Uiso   1.00
O927   O     0.89053   0.50000   0.67319   0.00000  Uiso   1.00
O928   O     0.94606   0.55109   0.58961   0.00000  Uiso   1.00
Zn929  Zn    0.78229   0.50001   0.75000   0.00000  Uiso   1.00
Zn930  Zn    0.88438   0.49999   0.75000   0.00000  Uiso   1.00
Br931  Br    0.07322   0.76031   0.67817   0.00000  Uiso   1.00
Br932  Br    0.02728   0.89540   0.83677   0.00000  Uiso   1.00
Br933  Br    0.24686   0.95439   0.92276   0.00000  Uiso   1.00
Br934  Br    0.16312   0.92850   0.87383   0.00000  Uiso   1.00
Br935  Br    0.27281   0.95373   0.68385   0.00000  Uiso   1.00
C936   C     0.16775   0.91321   0.74706   0.00000  Uiso   1.00
C937   C     0.12132   0.83697   0.91227   0.00000  Uiso   1.00
C938   C     0.21131   0.97927   0.72175   0.00000  Uiso   1.00
C939   C     0.13981   0.83463   0.85249   0.00000  Uiso   1.00
C940   C     0.20975   0.68863   0.72390   0.00000  Uiso   1.00
C941   C     0.16622   0.70930   0.74994   0.00000  Uiso   1.00
C942   C     0.12324   0.68787   0.77437   0.00000  Uiso   1.00
C943   C     0.12472   0.97827   0.77149   0.00000  Uiso   1.00
C944   C     0.16832   0.95745   0.74588   0.00000  Uiso   1.00
C945   C     0.31853   0.80544   0.71807   0.00000  Uiso   1.00
C946   C     0.03276   0.80486   0.71857   0.00000  Uiso   1.00
C947   C     0.14045   0.84397   0.99484   0.00000  Uiso   1.00
C948   C     0.01359   0.86021   0.78373   0.00000  Uiso   1.00
C949   C     0.29934   0.86044   0.78311   0.00000  Uiso   1.00
C950   C     0.16635   0.75341   0.75050   0.00000  Uiso   1.00
C951   C     0.19362   0.83429   0.64737   0.00000  Uiso   1.00
C952   C     0.25115   0.88854   0.51420   0.00000  Uiso   1.00
C953   C     0.21063   0.84240   0.58854   0.00000  Uiso   1.00
C954   C     0.07977   0.81486   0.94002   0.00000  Uiso   1.00
C955   C     0.06422   0.81225   0.99657   0.00000  Uiso   1.00
C956   C     0.09521   0.82629   0.52491   0.00000  Uiso   1.00
C957   C     0.14754   0.85689   0.94185   0.00000  Uiso   1.00
C958   C     0.17826   0.85091   0.51594   0.00000  Uiso   1.00
C959   C     0.21411   0.88126   0.99200   0.00000  Uiso   1.00
C960   C     0.21093   0.90379   0.94735   0.00000  Uiso   1.00
C961   C     0.17794   0.89109   0.92213   0.00000  Uiso   1.00
C962   C     0.18237   0.82749   0.55911   0.00000  Uiso   1.00
C963   C     0.24767   0.87109   0.56440   0.00000  Uiso   1.00
H964   H     0.24259   0.70574   0.70458   0.00000  Uiso   1.00
H965   H     0.05756   0.80392   0.59478   0.00000  Uiso   1.00
H966   H     0.00540   0.80700   0.55887   0.00000  Uiso   1.00
H967   H     0.09202   0.96122   0.79069   0.00000  Uiso   1.00
H968   H     0.30755   0.78295   0.69294   0.00000  Uiso   1.00
H969   H     0.27305   0.88183   0.80993   0.00000  Uiso   1.00
H970   H     0.05845   0.80052   0.91785   0.00000  Uiso   1.00
H971   H     0.28877   0.86024   0.60620   0.00000  Uiso   1.00
H972   H     0.05450   0.68911   0.81636   0.00000  Uiso   1.00
H973   H     0.31587   0.91019   0.50283   0.00000  Uiso   1.00
H974   H     0.15784   0.77580   0.53908   0.00000  Uiso   1.00
N975   N     0.04760   0.83334   0.75001   0.00000  Uiso   1.00
N976   N     0.28573   0.83331   0.75000   0.00000  Uiso   1.00
O977   O     0.12846   0.89442   0.75000   0.00000  Uiso   1.00
O978   O     0.08101   0.70925   0.80182   0.00000  Uiso   1.00
O979   O     0.29054   0.91223   0.98623   0.00000  Uiso   1.00
O980   O     0.16112   0.78908   0.57244   0.00000  Uiso   1.00
O981   O     0.08117   0.82632   0.58113   0.00000  Uiso   1.00
O982   O     0.01971   0.79475   0.52161   0.00000  Uiso   1.00
O983   O     0.20490   0.89441   0.75000   0.00000  Uiso   1.00
O984   O     0.10947   0.83333   0.82681   0.00000  Uiso   1.00
O985   O     0.18591   0.83332   0.82681   0.00000  Uiso   1.00
O986   O     0.12843   0.77226   0.74999   0.00000  Uiso   1.00
O987   O     0.20488   0.77225   0.74999   0.00000  Uiso   1.00
O988   O     0.14742   0.83335   0.67319   0.00000  Uiso   1.00
O989   O     0.22387   0.83334   0.67319   0.00000  Uiso   1.00
O990   O     0.27939   0.88443   0.58961   0.00000  Uiso   1.00
Zn991  Zn    0.11562   0.83334   0.75000   0.00000  Uiso   1.00
Zn992  Zn    0.21771   0.83333   0.75000   0.00000  Uiso   1.00
Br993  Br    0.40655   0.76031   0.67817   0.00000  Uiso   1.00
Br994  Br    0.36061   0.89540   0.83677   0.00000  Uiso   1.00
Br995  Br    0.58019   0.95439   0.92276   0.00000  Uiso   1.00
Br996  Br    0.49645   0.92850   0.87383   0.00000  Uiso   1.00
Br997  Br    0.60614   0.95373   0.68385   0.00000  Uiso   1.00
C998   C     0.50109   0.91321   0.74706   0.00000  Uiso   1.00
C999   C     0.45466   0.83697   0.91227   0.00000  Uiso   1.00
C1000  C     0.54464   0.97927   0.72175   0.00000  Uiso   1.00
C1001  C     0.47314   0.83463   0.85249   0.00000  Uiso   1.00
C1002  C     0.54309   0.68863   0.72390   0.00000  Uiso   1.00
C1003  C     0.49955   0.70930   0.74994   0.00000  Uiso   1.00
C1004  C     0.45657   0.68787   0.77437   0.00000  Uiso   1.00
C1005  C     0.45805   0.97827   0.77149   0.00000  Uiso   1.00
C1006  C     0.50166   0.95745   0.74588   0.00000  Uiso   1.00
C1007  C     0.65186   0.80544   0.71807   0.00000  Uiso   1.00
C1008  C     0.36609   0.80486   0.71857   0.00000  Uiso   1.00
C1009  C     0.47379   0.84397   0.99484   0.00000  Uiso   1.00
C1010  C     0.34692   0.86021   0.78373   0.00000  Uiso   1.00
C1011  C     0.63267   0.86044   0.78311   0.00000  Uiso   1.00
C1012  C     0.49968   0.75341   0.75050   0.00000  Uiso   1.00
C1013  C     0.52695   0.83429   0.64737   0.00000  Uiso   1.00
C1014  C     0.58448   0.88854   0.51420   0.00000  Uiso   1.00
C1015  C     0.54396   0.84240   0.58854   0.00000  Uiso   1.00
C1016  C     0.41310   0.81486   0.94002   0.00000  Uiso   1.00
C1017  C     0.39755   0.81225   0.99657   0.00000  Uiso   1.00
C1018  C     0.42854   0.82629   0.52491   0.00000  Uiso   1.00
C1019  C     0.48087   0.85689   0.94185   0.00000  Uiso   1.00
C1020  C     0.51160   0.85091   0.51594   0.00000  Uiso   1.00
C1021  C     0.54745   0.88126   0.99200   0.00000  Uiso   1.00
C1022  C     0.54426   0.90379   0.94735   0.00000  Uiso   1.00
C1023  C     0.51127   0.89109   0.92213   0.00000  Uiso   1.00
C1024  C     0.51571   0.82749   0.55911   0.00000  Uiso   1.00
C1025  C     0.58100   0.87109   0.56440   0.00000  Uiso   1.00
H1026  H     0.57592   0.70574   0.70458   0.00000  Uiso   1.00
H1027  H     0.39089   0.80392   0.59478   0.00000  Uiso   1.00
H1028  H     0.33873   0.80700   0.55887   0.00000  Uiso   1.00
H1029  H     0.42535   0.96122   0.79069   0.00000  Uiso   1.00
H1030  H     0.64089   0.78295   0.69294   0.00000  Uiso   1.00
H1031  H     0.60638   0.88183   0.80993   0.00000  Uiso   1.00
H1032  H     0.39178   0.80052   0.91785   0.00000  Uiso   1.00
H1033  H     0.62210   0.86024   0.60620   0.00000  Uiso   1.00
H1034  H     0.38784   0.68911   0.81636   0.00000  Uiso   1.00
H1035  H     0.64920   0.91019   0.50283   0.00000  Uiso   1.00
H1036  H     0.49117   0.77580   0.53908   0.00000  Uiso   1.00
N1037  N     0.38093   0.83334   0.75001   0.00000  Uiso   1.00
N1038  N     0.61906   0.83331   0.75000   0.00000  Uiso   1.00
O1039  O     0.46179   0.89442   0.75000   0.00000  Uiso   1.00
O1040  O     0.41434   0.70925   0.80182   0.00000  Uiso   1.00
O1041  O     0.62387   0.91223   0.98623   0.00000  Uiso   1.00
O1042  O     0.49445   0.78908   0.57244   0.00000  Uiso   1.00
O1043  O     0.41450   0.82632   0.58113   0.00000  Uiso   1.00
O1044  O     0.35304   0.79475   0.52161   0.00000  Uiso   1.00
O1045  O     0.53823   0.89441   0.75000   0.00000  Uiso   1.00
O1046  O     0.44280   0.83333   0.82681   0.00000  Uiso   1.00
O1047  O     0.51924   0.83332   0.82681   0.00000  Uiso   1.00
O1048  O     0.46177   0.77226   0.74999   0.00000  Uiso   1.00
O1049  O     0.53821   0.77225   0.74999   0.00000  Uiso   1.00
O1050  O     0.48076   0.83335   0.67319   0.00000  Uiso   1.00
O1051  O     0.55720   0.83334   0.67319   0.00000  Uiso   1.00
O1052  O     0.61273   0.88443   0.58961   0.00000  Uiso   1.00
Zn1053 Zn    0.44896   0.83334   0.75000   0.00000  Uiso   1.00
Zn1054 Zn    0.55104   0.83333   0.75000   0.00000  Uiso   1.00
Br1055 Br    0.73988   0.76031   0.67817   0.00000  Uiso   1.00
Br1056 Br    0.69395   0.89540   0.83677   0.00000  Uiso   1.00
Br1057 Br    0.91352   0.95439   0.92276   0.00000  Uiso   1.00
Br1058 Br    0.82979   0.92850   0.87383   0.00000  Uiso   1.00
Br1059 Br    0.93948   0.95373   0.68385   0.00000  Uiso   1.00
C1060  C     0.83442   0.91321   0.74706   0.00000  Uiso   1.00
C1061  C     0.78799   0.83697   0.91227   0.00000  Uiso   1.00
C1062  C     0.87797   0.97927   0.72175   0.00000  Uiso   1.00
C1063  C     0.80648   0.83463   0.85249   0.00000  Uiso   1.00
C1064  C     0.87642   0.68863   0.72390   0.00000  Uiso   1.00
C1065  C     0.83289   0.70930   0.74994   0.00000  Uiso   1.00
C1066  C     0.78991   0.68787   0.77437   0.00000  Uiso   1.00
C1067  C     0.79138   0.97827   0.77149   0.00000  Uiso   1.00
C1068  C     0.83499   0.95745   0.74588   0.00000  Uiso   1.00
C1069  C     0.98519   0.80544   0.71807   0.00000  Uiso   1.00
C1070  C     0.69943   0.80486   0.71857   0.00000  Uiso   1.00
C1071  C     0.80712   0.84397   0.99484   0.00000  Uiso   1.00
C1072  C     0.68025   0.86021   0.78373   0.00000  Uiso   1.00
C1073  C     0.96601   0.86044   0.78311   0.00000  Uiso   1.00
C1074  C     0.83301   0.75341   0.75050   0.00000  Uiso   1.00
C1075  C     0.86029   0.83429   0.64737   0.00000  Uiso   1.00
C1076  C     0.91781   0.88854   0.51420   0.00000  Uiso   1.00
C1077  C     0.87729   0.84240   0.58854   0.00000  Uiso   1.00
C1078  C     0.74643   0.81486   0.94002   0.00000  Uiso   1.00
C1079  C     0.73089   0.81225   0.99657   0.00000  Uiso   1.00
C1080  C     0.76187   0.82629   0.52491   0.00000  Uiso   1.00
C1081  C     0.81421   0.85689   0.94185   0.00000  Uiso   1.00
C1082  C     0.84493   0.85091   0.51594   0.00000  Uiso   1.00
C1083  C     0.88078   0.88126   0.99200   0.00000  Uiso   1.00
C1084  C     0.87760   0.90379   0.94735   0.00000  Uiso   1.00
C1085  C     0.84460   0.89109   0.92213   0.00000  Uiso   1.00
C1086  C     0.84904   0.82749   0.55911   0.00000  Uiso   1.00
C1087  C     0.91434   0.87109   0.56440   0.00000  Uiso   1.00
H1088  H     0.90925   0.70574   0.70458   0.00000  Uiso   1.00
H1089  H     0.72423   0.80392   0.59478   0.00000  Uiso   1.00
H1090  H     0.67206   0.80700   0.55887   0.00000  Uiso   1.00
H1091  H     0.75869   0.96122   0.79069   0.00000  Uiso   1.00
H1092  H     0.97422   0.78295   0.69294   0.00000  Uiso   1.00
H1093  H     0.93971   0.88183   0.80993   0.00000  Uiso   1.00
H1094  H     0.72512   0.80052   0.91785   0.00000  Uiso   1.00
H1095  H     0.95544   0.86024   0.60620   0.00000  Uiso   1.00
H1096  H     0.72117   0.68911   0.81636   0.00000  Uiso   1.00
H1097  H     0.98254   0.91019   0.50283   0.00000  Uiso   1.00
H1098  H     0.82451   0.77580   0.53908   0.00000  Uiso   1.00
N1099  N     0.71426   0.83334   0.75001   0.00000  Uiso   1.00
N1100  N     0.95239   0.83331   0.75000   0.00000  Uiso   1.00
O1101  O     0.79512   0.89442   0.75000   0.00000  Uiso   1.00
O1102  O     0.74768   0.70925   0.80182   0.00000  Uiso   1.00
O1103  O     0.95721   0.91223   0.98623   0.00000  Uiso   1.00
O1104  O     0.82778   0.78908   0.57244   0.00000  Uiso   1.00
O1105  O     0.74783   0.82632   0.58113   0.00000  Uiso   1.00
O1106  O     0.68638   0.79475   0.52161   0.00000  Uiso   1.00
O1107  O     0.87157   0.89441   0.75000   0.00000  Uiso   1.00
O1108  O     0.77613   0.83333   0.82681   0.00000  Uiso   1.00
O1109  O     0.85258   0.83332   0.82681   0.00000  Uiso   1.00
O1110  O     0.79510   0.77226   0.74999   0.00000  Uiso   1.00
O1111  O     0.87154   0.77225   0.74999   0.00000  Uiso   1.00
O1112  O     0.81409   0.83335   0.67319   0.00000  Uiso   1.00
O1113  O     0.89053   0.83334   0.67319   0.00000  Uiso   1.00
O1114  O     0.94606   0.88443   0.58961   0.00000  Uiso   1.00
Zn1115 Zn    0.78229   0.83334   0.75000   0.00000  Uiso   1.00
Zn1116 Zn    0.88438   0.83333   0.75000   0.00000  Uiso   1.00
loop_
_geom_bond_atom_site_label_1
_geom_bond_atom_site_label_2
_geom_bond_distance
_geom_bond_site_symmetry_2
_ccdc_geom_bond_type
Br1    C16     1.912   .     S
Br2    C18     1.907   .     S
Br3    C30     1.940   .     S
Br4    C31     1.924   .     S
Br5    C8      1.924   .     S
C6     C14     1.423   .     S
C6     O53     1.285   .     A
C6     O47     1.288   .     A
C7     C24     1.397   .     A
C7     C27     1.408   .     A
C7     C9      1.463   .     S
C8     C14     1.405   .     A
C8     C196    1.372   .     S
C9     O55     1.298   .     A
C9     O54     1.292   .     A
C10    H34     1.084   .     S
C10    C11     1.395   .     A
C10    C380    1.372   1_545 S
C11    C12     1.400   .     A
C11    C20     1.417   .     S
C12    O48     1.384   .     S
C12    C385    1.379   1_545 S
C13    H37     1.080   .     S
C13    C14     1.397   .     A
C13    C198    1.379   .     S
C15    H38     1.082   .     S
C15    N46     1.360   .     A
C15    C78     1.414   .     S
C16    N45     1.378   .     A
C16    C139    1.414   1_455 S
C17    C27     1.400   .     A
C17    C584    1.425   .     S
C17    C586    1.421   .     S
C18    N45     1.374   .     A
C18    C143    1.415   1_455 S
C19    H39     1.082   .     S
C19    N46     1.362   .     A
C19    C80     1.415   .     S
C20    O56     1.284   .     A
C20    O57     1.285   .     A
C21    O58     1.302   .     A
C21    O59     1.293   .     A
C21    C23     1.471   .     S
C22    C33     1.411   .     A
C22    C587    1.420   1_554 S
C22    O607    1.383   1_554 S
C23    C32     1.390   .     A
C23    C33     1.414   .     A
C24    C25     1.390   .     A
C24    H40     1.084   .     S
C25    C584    1.425   .     S
C25    O610    1.380   .     S
C26    O51     1.379   .     S
C26    C583    1.425   1_554 S
C26    C575    1.425   1_554 S
C27    C31     1.410   .     A
C28    C32     1.412   .     A
C28    C575    1.421   1_554 S
C28    C587    1.428   1_554 S
C29    C30     1.420   .     A
C29    C580    1.420   .     S
C29    C586    1.428   .     S
C30    C31     1.405   .     A
C32    O50     1.381   .     S
C33    O60     1.378   .     S
H35    O51     0.986   .     S
H36    O52     0.987   .     S
H41    O60     0.987   .     S
H42    O48     0.992   .     S
H43    O607    0.990   1_554 S
H44    O50     0.991   .     S
N45    Zn61    2.015   .     S
N46    Zn62    2.015   .     S
O47    Zn61    1.997   .     S
O49    C580    1.383   .     S
O49    H601    0.990   .     S
O52    C583    1.380   1_554 S
O53    Zn62    2.001   .     S
O54    Zn61    1.947   .     S
O55    Zn62    1.897   .     S
O56    Zn61    2.001   .     S
O57    Zn62    1.997   .     S
O58    Zn61    1.897   .     S
O59    Zn62    1.947   .     S
Br63   C78     1.912   .     S
Br64   C80     1.907   .     S
Br65   C92     1.940   .     S
Br66   C93     1.924   .     S
Br67   C70     1.924   .     S
C68    C76     1.423   .     S
C68    O115    1.285   .     A
C68    O109    1.288   .     A
C69    C86     1.397   .     A
C69    C89     1.408   .     A
C69    C71     1.463   .     S
C70    C76     1.405   .     A
C70    C258    1.372   .     S
C71    O117    1.298   .     A
C71    O116    1.292   .     A
C72    H96     1.084   .     S
C72    C73     1.395   .     A
C72    C442    1.372   1_545 S
C73    C74     1.400   .     A
C73    C82     1.417   .     S
C74    O110    1.384   .     S
C74    C447    1.379   1_545 S
C75    H99     1.080   .     S
C75    C76     1.397   .     A
C75    C260    1.379   .     S
C77    H100    1.082   .     S
C77    N108    1.360   .     A
C77    C140    1.414   .     S
C78    N107    1.378   .     A
C79    C89     1.400   .     A
C79    C646    1.425   .     S
C79    C648    1.421   .     S
C80    N107    1.374   .     A
C81    H101    1.082   .     S
C81    N108    1.362   .     A
C81    C142    1.415   .     S
C82    O118    1.284   .     A
C82    O119    1.285   .     A
C83    O120    1.302   .     A
C83    O121    1.293   .     A
C83    C85     1.471   .     S
C84    C95     1.411   .     A
C84    C649    1.420   1_554 S
C84    O669    1.383   1_554 S
C85    C94     1.390   .     A
C85    C95     1.414   .     A
C86    C87     1.390   .     A
C86    H102    1.084   .     S
C87    C646    1.425   .     S
C87    O672    1.380   .     S
C88    O113    1.379   .     S
C88    C645    1.425   1_554 S
C88    C637    1.425   1_554 S
C89    C93     1.410   .     A
C90    C94     1.412   .     A
C90    C637    1.421   1_554 S
C90    C649    1.428   1_554 S
C91    C92     1.420   .     A
C91    C642    1.420   .     S
C91    C648    1.428   .     S
C92    C93     1.405   .     A
C94    O112    1.381   .     S
C95    O122    1.378   .     S
H97    O113    0.986   .     S
H98    O114    0.987   .     S
H103   O122    0.987   .     S
H104   O110    0.992   .     S
H105   O669    0.990   1_554 S
H106   O112    0.991   .     S
N107   Zn123   2.015   .     S
N108   Zn124   2.015   .     S
O109   Zn123   1.997   .     S
O111   C642    1.383   .     S
O111   H663    0.990   .     S
O114   C645    1.380   1_554 S
O115   Zn124   2.001   .     S
O116   Zn123   1.947   .     S
O117   Zn124   1.897   .     S
O118   Zn123   2.001   .     S
O119   Zn124   1.997   .     S
O120   Zn123   1.897   .     S
O121   Zn124   1.947   .     S
Br125  C140    1.912   .     S
Br126  C142    1.907   .     S
Br127  C154    1.940   .     S
Br128  C155    1.924   .     S
Br129  C132    1.924   .     S
C130   C138    1.423   .     S
C130   O177    1.285   .     A
C130   O171    1.288   .     A
C131   C148    1.397   .     A
C131   C151    1.408   .     A
C131   C133    1.463   .     S
C132   C138    1.405   .     A
C132   C320    1.372   .     S
C133   O179    1.298   .     A
C133   O178    1.292   .     A
C134   H158    1.084   .     S
C134   C135    1.395   .     A
C134   C504    1.372   1_545 S
C135   C136    1.400   .     A
C135   C144    1.417   .     S
C136   O172    1.384   .     S
C136   C509    1.379   1_545 S
C137   H161    1.080   .     S
C137   C138    1.397   .     A
C137   C322    1.379   .     S
C139   H162    1.082   .     S
C139   N170    1.360   .     A
C139   C16     1.414   1_655 S
C140   N169    1.378   .     A
C141   C151    1.400   .     A
C141   C708    1.425   .     S
C141   C710    1.421   .     S
C142   N169    1.374   .     A
C143   H163    1.082   .     S
C143   N170    1.362   .     A
C143   C18     1.415   1_655 S
C144   O180    1.284   .     A
C144   O181    1.285   .     A
C145   O182    1.302   .     A
C145   O183    1.293   .     A
C145   C147    1.471   .     S
C146   C157    1.411   .     A
C146   C711    1.420   1_554 S
C146   O731    1.383   1_554 S
C147   C156    1.390   .     A
C147   C157    1.414   .     A
C148   C149    1.390   .     A
C148   H164    1.084   .     S
C149   C708    1.425   .     S
C149   O734    1.380   .     S
C150   O175    1.379   .     S
C150   C707    1.425   1_554 S
C150   C699    1.425   1_554 S
C151   C155    1.410   .     A
C152   C156    1.412   .     A
C152   C699    1.421   1_554 S
C152   C711    1.428   1_554 S
C153   C154    1.420   .     A
C153   C704    1.420   .     S
C153   C710    1.428   .     S
C154   C155    1.405   .     A
C156   O174    1.381   .     S
C157   O184    1.378   .     S
H159   O175    0.986   .     S
H160   O176    0.987   .     S
H165   O184    0.987   .     S
H166   O172    0.992   .     S
H167   O731    0.990   1_554 S
H168   O174    0.991   .     S
N169   Zn185   2.015   .     S
N170   Zn186   2.015   .     S
O171   Zn185   1.997   .     S
O173   C704    1.383   .     S
O173   H725    0.990   .     S
O176   C707    1.380   1_554 S
O177   Zn186   2.001   .     S
O178   Zn185   1.947   .     S
O179   Zn186   1.897   .     S
O180   Zn185   2.001   .     S
O181   Zn186   1.997   .     S
O182   Zn185   1.897   .     S
O183   Zn186   1.947   .     S
Br187  C202    1.912   .     S
Br188  C204    1.907   .     S
Br189  C216    1.940   .     S
Br190  C217    1.924   .     S
Br191  C194    1.924   .     S
C192   C200    1.423   .     S
C192   O239    1.285   .     A
C192   O233    1.288   .     A
C193   C210    1.397   .     A
C193   C213    1.408   .     A
C193   C195    1.463   .     S
C194   C200    1.405   .     A
C194   C382    1.372   .     S
C195   O241    1.298   .     A
C195   O240    1.292   .     A
C196   H220    1.084   .     S
C196   C197    1.395   .     A
C197   C198    1.400   .     A
C197   C206    1.417   .     S
C198   O234    1.384   .     S
C199   H223    1.080   .     S
C199   C200    1.397   .     A
C199   C384    1.379   .     S
C201   H224    1.082   .     S
C201   N232    1.360   .     A
C201   C264    1.414   .     S
C202   N231    1.378   .     A
C202   C325    1.414   1_455 S
C203   C213    1.400   .     A
C203   C770    1.425   .     S
C203   C772    1.421   .     S
C204   N231    1.374   .     A
C204   C329    1.415   1_455 S
C205   H225    1.082   .     S
C205   N232    1.362   .     A
C205   C266    1.415   .     S
C206   O242    1.284   .     A
C206   O243    1.285   .     A
C207   O244    1.302   .     A
C207   O245    1.293   .     A
C207   C209    1.471   .     S
C208   C219    1.411   .     A
C208   C773    1.420   1_554 S
C208   O793    1.383   1_554 S
C209   C218    1.390   .     A
C209   C219    1.414   .     A
C210   C211    1.390   .     A
C210   H226    1.084   .     S
C211   C770    1.425   .     S
C211   O796    1.380   .     S
C212   O237    1.379   .     S
C212   C769    1.425   1_554 S
C212   C761    1.425   1_554 S
C213   C217    1.410   .     A
C214   C218    1.412   .     A
C214   C761    1.421   1_554 S
C214   C773    1.428   1_554 S
C215   C216    1.420   .     A
C215   C766    1.420   .     S
C215   C772    1.428   .     S
C216   C217    1.405   .     A
C218   O236    1.381   .     S
C219   O246    1.378   .     S
H221   O237    0.986   .     S
H222   O238    0.987   .     S
H227   O246    0.987   .     S
H228   O234    0.992   .     S
H229   O793    0.990   1_554 S
H230   O236    0.991   .     S
N231   Zn247   2.015   .     S
N232   Zn248   2.015   .     S
O233   Zn247   1.997   .     S
O235   C766    1.383   .     S
O235   H787    0.990   .     S
O238   C769    1.380   1_554 S
O239   Zn248   2.001   .     S
O240   Zn247   1.947   .     S
O241   Zn248   1.897   .     S
O242   Zn247   2.001   .     S
O243   Zn248   1.997   .     S
O244   Zn247   1.897   .     S
O245   Zn248   1.947   .     S
Br249  C264    1.912   .     S
Br250  C266    1.907   .     S
Br251  C278    1.940   .     S
Br252  C279    1.924   .     S
Br253  C256    1.924   .     S
C254   C262    1.423   .     S
C254   O301    1.285   .     A
C254   O295    1.288   .     A
C255   C272    1.397   .     A
C255   C275    1.408   .     A
C255   C257    1.463   .     S
C256   C262    1.405   .     A
C256   C444    1.372   .     S
C257   O303    1.298   .     A
C257   O302    1.292   .     A
C258   H282    1.084   .     S
C258   C259    1.395   .     A
C259   C260    1.400   .     A
C259   C268    1.417   .     S
C260   O296    1.384   .     S
C261   H285    1.080   .     S
C261   C262    1.397   .     A
C261   C446    1.379   .     S
C263   H286    1.082   .     S
C263   N294    1.360   .     A
C263   C326    1.414   .     S
C264   N293    1.378   .     A
C265   C275    1.400   .     A
C265   C832    1.425   .     S
C265   C834    1.421   .     S
C266   N293    1.374   .     A
C267   H287    1.082   .     S
C267   N294    1.362   .     A
C267   C328    1.415   .     S
C268   O304    1.284   .     A
C268   O305    1.285   .     A
C269   O306    1.302   .     A
C269   O307    1.293   .     A
C269   C271    1.471   .     S
C270   C281    1.411   .     A
C270   C835    1.420   1_554 S
C270   O855    1.383   1_554 S
C271   C280    1.390   .     A
C271   C281    1.414   .     A
C272   C273    1.390   .     A
C272   H288    1.084   .     S
C273   C832    1.425   .     S
C273   O858    1.380   .     S
C274   O299    1.379   .     S
C274   C831    1.425   1_554 S
C274   C823    1.425   1_554 S
C275   C279    1.410   .     A
C276   C280    1.412   .     A
C276   C823    1.421   1_554 S
C276   C835    1.428   1_554 S
C277   C278    1.420   .     A
C277   C828    1.420   .     S
C277   C834    1.428   .     S
C278   C279    1.405   .     A
C280   O298    1.381   .     S
C281   O308    1.378   .     S
H283   O299    0.986   .     S
H284   O300    0.987   .     S
H289   O308    0.987   .     S
H290   O296    0.992   .     S
H291   O855    0.990   1_554 S
H292   O298    0.991   .     S
N293   Zn309   2.015   .     S
N294   Zn310   2.015   .     S
O295   Zn309   1.997   .     S
O297   C828    1.383   .     S
O297   H849    0.990   .     S
O300   C831    1.380   1_554 S
O301   Zn310   2.001   .     S
O302   Zn309   1.947   .     S
O303   Zn310   1.897   .     S
O304   Zn309   2.001   .     S
O305   Zn310   1.997   .     S
O306   Zn309   1.897   .     S
O307   Zn310   1.947   .     S
Br311  C326    1.912   .     S
Br312  C328    1.907   .     S
Br313  C340    1.940   .     S
Br314  C341    1.924   .     S
Br315  C318    1.924   .     S
C316   C324    1.423   .     S
C316   O363    1.285   .     A
C316   O357    1.288   .     A
C317   C334    1.397   .     A
C317   C337    1.408   .     A
C317   C319    1.463   .     S
C318   C324    1.405   .     A
C318   C506    1.372   .     S
C319   O365    1.298   .     A
C319   O364    1.292   .     A
C320   H344    1.084   .     S
C320   C321    1.395   .     A
C321   C322    1.400   .     A
C321   C330    1.417   .     S
C322   O358    1.384   .     S
C323   H347    1.080   .     S
C323   C324    1.397   .     A
C323   C508    1.379   .     S
C325   H348    1.082   .     S
C325   N356    1.360   .     A
C325   C202    1.414   1_655 S
C326   N355    1.378   .     A
C327   C337    1.400   .     A
C327   C894    1.425   .     S
C327   C896    1.421   .     S
C328   N355    1.374   .     A
C329   H349    1.082   .     S
C329   N356    1.362   .     A
C329   C204    1.415   1_655 S
C330   O366    1.284   .     A
C330   O367    1.285   .     A
C331   O368    1.302   .     A
C331   O369    1.293   .     A
C331   C333    1.471   .     S
C332   C343    1.411   .     A
C332   C897    1.420   1_554 S
C332   O917    1.383   1_554 S
C333   C342    1.390   .     A
C333   C343    1.414   .     A
C334   C335    1.390   .     A
C334   H350    1.084   .     S
C335   C894    1.425   .     S
C335   O920    1.380   .     S
C336   O361    1.379   .     S
C336   C893    1.425   1_554 S
C336   C885    1.425   1_554 S
C337   C341    1.410   .     A
C338   C342    1.412   .     A
C338   C885    1.421   1_554 S
C338   C897    1.428   1_554 S
C339   C340    1.420   .     A
C339   C890    1.420   .     S
C339   C896    1.428   .     S
C340   C341    1.405   .     A
C342   O360    1.381   .     S
C343   O370    1.378   .     S
H345   O361    0.986   .     S
H346   O362    0.987   .     S
H351   O370    0.987   .     S
H352   O358    0.992   .     S
H353   O917    0.990   1_554 S
H354   O360    0.991   .     S
N355   Zn371   2.015   .     S
N356   Zn372   2.015   .     S
O357   Zn371   1.997   .     S
O359   C890    1.383   .     S
O359   H911    0.990   .     S
O362   C893    1.380   1_554 S
O363   Zn372   2.001   .     S
O364   Zn371   1.947   .     S
O365   Zn372   1.897   .     S
O366   Zn371   2.001   .     S
O367   Zn372   1.997   .     S
O368   Zn371   1.897   .     S
O369   Zn372   1.947   .     S
Br373  C388    1.912   .     S
Br374  C390    1.907   .     S
Br375  C402    1.940   .     S
Br376  C403    1.924   .     S
Br377  C380    1.924   .     S
C378   C386    1.423   .     S
C378   O425    1.285   .     A
C378   O419    1.288   .     A
C379   C396    1.397   .     A
C379   C399    1.408   .     A
C379   C381    1.463   .     S
C380   C386    1.405   .     A
C380   C10     1.372   1_565 S
C381   O427    1.298   .     A
C381   O426    1.292   .     A
C382   H406    1.084   .     S
C382   C383    1.395   .     A
C383   C384    1.400   .     A
C383   C392    1.417   .     S
C384   O420    1.384   .     S
C385   H409    1.080   .     S
C385   C386    1.397   .     A
C385   C12     1.379   1_565 S
C387   H410    1.082   .     S
C387   N418    1.360   .     A
C387   C450    1.414   .     S
C388   N417    1.378   .     A
C388   C511    1.414   1_455 S
C389   C399    1.400   .     A
C389   C956    1.425   .     S
C389   C958    1.421   .     S
C390   N417    1.374   .     A
C390   C515    1.415   1_455 S
C391   H411    1.082   .     S
C391   N418    1.362   .     A
C391   C452    1.415   .     S
C392   O428    1.284   .     A
C392   O429    1.285   .     A
C393   O430    1.302   .     A
C393   O431    1.293   .     A
C393   C395    1.471   .     S
C394   C405    1.411   .     A
C394   C959    1.420   1_554 S
C394   O979    1.383   1_554 S
C395   C404    1.390   .     A
C395   C405    1.414   .     A
C396   C397    1.390   .     A
C396   H412    1.084   .     S
C397   C956    1.425   .     S
C397   O982    1.380   .     S
C398   O423    1.379   .     S
C398   C955    1.425   1_554 S
C398   C947    1.425   1_554 S
C399   C403    1.410   .     A
C400   C404    1.412   .     A
C400   C947    1.421   1_554 S
C400   C959    1.428   1_554 S
C401   C402    1.420   .     A
C401   C952    1.420   .     S
C401   C958    1.428   .     S
C402   C403    1.405   .     A
C404   O422    1.381   .     S
C405   O432    1.378   .     S
H407   O423    0.986   .     S
H408   O424    0.987   .     S
H413   O432    0.987   .     S
H414   O420    0.992   .     S
H415   O979    0.990   1_554 S
H416   O422    0.991   .     S
N417   Zn433   2.015   .     S
N418   Zn434   2.015   .     S
O419   Zn433   1.997   .     S
O421   C952    1.383   .     S
O421   H973    0.990   .     S
O424   C955    1.380   1_554 S
O425   Zn434   2.001   .     S
O426   Zn433   1.947   .     S
O427   Zn434   1.897   .     S
O428   Zn433   2.001   .     S
O429   Zn434   1.997   .     S
O430   Zn433   1.897   .     S
O431   Zn434   1.947   .     S
Br435  C450    1.912   .     S
Br436  C452    1.907   .     S
Br437  C464    1.940   .     S
Br438  C465    1.924   .     S
Br439  C442    1.924   .     S
C440   C448    1.423   .     S
C440   O487    1.285   .     A
C440   O481    1.288   .     A
C441   C458    1.397   .     A
C441   C461    1.408   .     A
C441   C443    1.463   .     S
C442   C448    1.405   .     A
C442   C72     1.372   1_565 S
C443   O489    1.298   .     A
C443   O488    1.292   .     A
C444   H468    1.084   .     S
C444   C445    1.395   .     A
C445   C446    1.400   .     A
C445   C454    1.417   .     S
C446   O482    1.384   .     S
C447   H471    1.080   .     S
C447   C448    1.397   .     A
C447   C74     1.379   1_565 S
C449   H472    1.082   .     S
C449   N480    1.360   .     A
C449   C512    1.414   .     S
C450   N479    1.378   .     A
C451   C461    1.400   .     A
C451   C1018   1.425   .     S
C451   C1020   1.421   .     S
C452   N479    1.374   .     A
C453   H473    1.082   .     S
C453   N480    1.362   .     A
C453   C514    1.415   .     S
C454   O490    1.284   .     A
C454   O491    1.285   .     A
C455   O492    1.302   .     A
C455   O493    1.293   .     A
C455   C457    1.471   .     S
C456   C467    1.411   .     A
C456   C1021   1.420   1_554 S
C456   O1041   1.383   1_554 S
C457   C466    1.390   .     A
C457   C467    1.414   .     A
C458   C459    1.390   .     A
C458   H474    1.084   .     S
C459   C1018   1.425   .     S
C459   O1044   1.380   .     S
C460   O485    1.379   .     S
C460   C1017   1.425   1_554 S
C460   C1009   1.425   1_554 S
C461   C465    1.410   .     A
C462   C466    1.412   .     A
C462   C1009   1.421   1_554 S
C462   C1021   1.428   1_554 S
C463   C464    1.420   .     A
C463   C1014   1.420   .     S
C463   C1020   1.428   .     S
C464   C465    1.405   .     A
C466   O484    1.381   .     S
C467   O494    1.378   .     S
H469   O485    0.986   .     S
H470   O486    0.987   .     S
H475   O494    0.987   .     S
H476   O482    0.992   .     S
H477   O1041   0.990   1_554 S
H478   O484    0.991   .     S
N479   Zn495   2.015   .     S
N480   Zn496   2.015   .     S
O481   Zn495   1.997   .     S
O483   C1014   1.383   .     S
O483   H1035   0.990   .     S
O486   C1017   1.380   1_554 S
O487   Zn496   2.001   .     S
O488   Zn495   1.947   .     S
O489   Zn496   1.897   .     S
O490   Zn495   2.001   .     S
O491   Zn496   1.997   .     S
O492   Zn495   1.897   .     S
O493   Zn496   1.947   .     S
Br497  C512    1.912   .     S
Br498  C514    1.907   .     S
Br499  C526    1.940   .     S
Br500  C527    1.924   .     S
Br501  C504    1.924   .     S
C502   C510    1.423   .     S
C502   O549    1.285   .     A
C502   O543    1.288   .     A
C503   C520    1.397   .     A
C503   C523    1.408   .     A
C503   C505    1.463   .     S
C504   C510    1.405   .     A
C504   C134    1.372   1_565 S
C505   O551    1.298   .     A
C505   O550    1.292   .     A
C506   H530    1.084   .     S
C506   C507    1.395   .     A
C507   C508    1.400   .     A
C507   C516    1.417   .     S
C508   O544    1.384   .     S
C509   H533    1.080   .     S
C509   C510    1.397   .     A
C509   C136    1.379   1_565 S
C511   H534    1.082   .     S
C511   N542    1.360   .     A
C511   C388    1.414   1_655 S
C512   N541    1.378   .     A
C513   C523    1.400   .     A
C513   C1080   1.425   .     S
C513   C1082   1.421   .     S
C514   N541    1.374   .     A
C515   H535    1.082   .     S
C515   N542    1.362   .     A
C515   C390    1.415   1_655 S
C516   O552    1.284   .     A
C516   O553    1.285   .     A
C517   O554    1.302   .     A
C517   O555    1.293   .     A
C517   C519    1.471   .     S
C518   C529    1.411   .     A
C518   C1083   1.420   1_554 S
C518   O1103   1.383   1_554 S
C519   C528    1.390   .     A
C519   C529    1.414   .     A
C520   C521    1.390   .     A
C520   H536    1.084   .     S
C521   C1080   1.425   .     S
C521   O1106   1.380   .     S
C522   O547    1.379   .     S
C522   C1079   1.425   1_554 S
C522   C1071   1.425   1_554 S
C523   C527    1.410   .     A
C524   C528    1.412   .     A
C524   C1071   1.421   1_554 S
C524   C1083   1.428   1_554 S
C525   C526    1.420   .     A
C525   C1076   1.420   .     S
C525   C1082   1.428   .     S
C526   C527    1.405   .     A
C528   O546    1.381   .     S
C529   O556    1.378   .     S
H531   O547    0.986   .     S
H532   O548    0.987   .     S
H537   O556    0.987   .     S
H538   O544    0.992   .     S
H539   O1103   0.990   1_554 S
H540   O546    0.991   .     S
N541   Zn557   2.015   .     S
N542   Zn558   2.015   .     S
O543   Zn557   1.997   .     S
O545   C1076   1.383   .     S
O545   H1097   0.990   .     S
O548   C1079   1.380   1_554 S
O549   Zn558   2.001   .     S
O550   Zn557   1.947   .     S
O551   Zn558   1.897   .     S
O552   Zn557   2.001   .     S
O553   Zn558   1.997   .     S
O554   Zn557   1.897   .     S
O555   Zn558   1.947   .     S
Br559  C574    1.912   .     S
Br560  C576    1.907   .     S
Br561  C588    1.940   .     S
Br562  C589    1.924   .     S
Br563  C566    1.924   .     S
C564   C572    1.423   .     S
C564   O611    1.285   .     A
C564   O605    1.288   .     A
C565   C582    1.397   .     A
C565   C585    1.408   .     A
C565   C567    1.463   .     S
C566   C572    1.405   .     A
C566   C754    1.372   .     S
C567   O613    1.298   .     A
C567   O612    1.292   .     A
C568   H592    1.084   .     S
C568   C569    1.395   .     A
C568   C938    1.372   1_545 S
C569   C570    1.400   .     A
C569   C578    1.417   .     S
C570   O606    1.384   .     S
C570   C943    1.379   1_545 S
C571   H595    1.080   .     S
C571   C572    1.397   .     A
C571   C756    1.379   .     S
C573   H596    1.082   .     S
C573   N604    1.360   .     A
C573   C636    1.414   .     S
C574   N603    1.378   .     A
C574   C697    1.414   1_455 S
C575   C585    1.400   .     A
C575   C26     1.425   1_556 S
C575   C28     1.421   1_556 S
C576   N603    1.374   .     A
C576   C701    1.415   1_455 S
C577   H597    1.082   .     S
C577   N604    1.362   .     A
C577   C638    1.415   .     S
C578   O614    1.284   .     A
C578   O615    1.285   .     A
C579   O616    1.302   .     A
C579   O617    1.293   .     A
C579   C581    1.471   .     S
C580   C591    1.411   .     A
C581   C590    1.390   .     A
C581   C591    1.414   .     A
C582   C583    1.390   .     A
C582   H598    1.084   .     S
C583   C26     1.425   1_556 S
C583   O52     1.380   1_556 S
C584   O609    1.379   .     S
C585   C589    1.410   .     A
C586   C590    1.412   .     A
C587   C588    1.420   .     A
C587   C22     1.420   1_556 S
C587   C28     1.428   1_556 S
C588   C589    1.405   .     A
C590   O608    1.381   .     S
C591   O618    1.378   .     S
H593   O609    0.986   .     S
H594   O610    0.987   .     S
H599   O618    0.987   .     S
H600   O606    0.992   .     S
H602   O608    0.991   .     S
N603   Zn619   2.015   .     S
N604   Zn620   2.015   .     S
O605   Zn619   1.997   .     S
O607   C22     1.383   1_556 S
O607   H43     0.990   1_556 S
O611   Zn620   2.001   .     S
O612   Zn619   1.947   .     S
O613   Zn620   1.897   .     S
O614   Zn619   2.001   .     S
O615   Zn620   1.997   .     S
O616   Zn619   1.897   .     S
O617   Zn620   1.947   .     S
Br621  C636    1.912   .     S
Br622  C638    1.907   .     S
Br623  C650    1.940   .     S
Br624  C651    1.924   .     S
Br625  C628    1.924   .     S
C626   C634    1.423   .     S
C626   O673    1.285   .     A
C626   O667    1.288   .     A
C627   C644    1.397   .     A
C627   C647    1.408   .     A
C627   C629    1.463   .     S
C628   C634    1.405   .     A
C628   C816    1.372   .     S
C629   O675    1.298   .     A
C629   O674    1.292   .     A
C630   H654    1.084   .     S
C630   C631    1.395   .     A
C630   C1000   1.372   1_545 S
C631   C632    1.400   .     A
C631   C640    1.417   .     S
C632   O668    1.384   .     S
C632   C1005   1.379   1_545 S
C633   H657    1.080   .     S
C633   C634    1.397   .     A
C633   C818    1.379   .     S
C635   H658    1.082   .     S
C635   N666    1.360   .     A
C635   C698    1.414   .     S
C636   N665    1.378   .     A
C637   C647    1.400   .     A
C637   C88     1.425   1_556 S
C637   C90     1.421   1_556 S
C638   N665    1.374   .     A
C639   H659    1.082   .     S
C639   N666    1.362   .     A
C639   C700    1.415   .     S
C640   O676    1.284   .     A
C640   O677    1.285   .     A
C641   O678    1.302   .     A
C641   O679    1.293   .     A
C641   C643    1.471   .     S
C642   C653    1.411   .     A
C643   C652    1.390   .     A
C643   C653    1.414   .     A
C644   C645    1.390   .     A
C644   H660    1.084   .     S
C645   C88     1.425   1_556 S
C645   O114    1.380   1_556 S
C646   O671    1.379   .     S
C647   C651    1.410   .     A
C648   C652    1.412   .     A
C649   C650    1.420   .     A
C649   C84     1.420   1_556 S
C649   C90     1.428   1_556 S
C650   C651    1.405   .     A
C652   O670    1.381   .     S
C653   O680    1.378   .     S
H655   O671    0.986   .     S
H656   O672    0.987   .     S
H661   O680    0.987   .     S
H662   O668    0.992   .     S
H664   O670    0.991   .     S
N665   Zn681   2.015   .     S
N666   Zn682   2.015   .     S
O667   Zn681   1.997   .     S
O669   C84     1.383   1_556 S
O669   H105    0.990   1_556 S
O673   Zn682   2.001   .     S
O674   Zn681   1.947   .     S
O675   Zn682   1.897   .     S
O676   Zn681   2.001   .     S
O677   Zn682   1.997   .     S
O678   Zn681   1.897   .     S
O679   Zn682   1.947   .     S
Br683  C698    1.912   .     S
Br684  C700    1.907   .     S
Br685  C712    1.940   .     S
Br686  C713    1.924   .     S
Br687  C690    1.924   .     S
C688   C696    1.423   .     S
C688   O735    1.285   .     A
C688   O729    1.288   .     A
C689   C706    1.397   .     A
C689   C709    1.408   .     A
C689   C691    1.463   .     S
C690   C696    1.405   .     A
C690   C878    1.372   .     S
C691   O737    1.298   .     A
C691   O736    1.292   .     A
C692   H716    1.084   .     S
C692   C693    1.395   .     A
C692   C1062   1.372   1_545 S
C693   C694    1.400   .     A
C693   C702    1.417   .     S
C694   O730    1.384   .     S
C694   C1067   1.379   1_545 S
C695   H719    1.080   .     S
C695   C696    1.397   .     A
C695   C880    1.379   .     S
C697   H720    1.082   .     S
C697   N728    1.360   .     A
C697   C574    1.414   1_655 S
C698   N727    1.378   .     A
C699   C709    1.400   .     A
C699   C150    1.425   1_556 S
C699   C152    1.421   1_556 S
C700   N727    1.374   .     A
C701   H721    1.082   .     S
C701   N728    1.362   .     A
C701   C576    1.415   1_655 S
C702   O738    1.284   .     A
C702   O739    1.285   .     A
C703   O740    1.302   .     A
C703   O741    1.293   .     A
C703   C705    1.471   .     S
C704   C715    1.411   .     A
C705   C714    1.390   .     A
C705   C715    1.414   .     A
C706   C707    1.390   .     A
C706   H722    1.084   .     S
C707   C150    1.425   1_556 S
C707   O176    1.380   1_556 S
C708   O733    1.379   .     S
C709   C713    1.410   .     A
C710   C714    1.412   .     A
C711   C712    1.420   .     A
C711   C146    1.420   1_556 S
C711   C152    1.428   1_556 S
C712   C713    1.405   .     A
C714   O732    1.381   .     S
C715   O742    1.378   .     S
H717   O733    0.986   .     S
H718   O734    0.987   .     S
H723   O742    0.987   .     S
H724   O730    0.992   .     S
H726   O732    0.991   .     S
N727   Zn743   2.015   .     S
N728   Zn744   2.015   .     S
O729   Zn743   1.997   .     S
O731   C146    1.383   1_556 S
O731   H167    0.990   1_556 S
O735   Zn744   2.001   .     S
O736   Zn743   1.947   .     S
O737   Zn744   1.897   .     S
O738   Zn743   2.001   .     S
O739   Zn744   1.997   .     S
O740   Zn743   1.897   .     S
O741   Zn744   1.947   .     S
Br745  C760    1.912   .     S
Br746  C762    1.907   .     S
Br747  C774    1.940   .     S
Br748  C775    1.924   .     S
Br749  C752    1.924   .     S
C750   C758    1.423   .     S
C750   O797    1.285   .     A
C750   O791    1.288   .     A
C751   C768    1.397   .     A
C751   C771    1.408   .     A
C751   C753    1.463   .     S
C752   C758    1.405   .     A
C752   C940    1.372   .     S
C753   O799    1.298   .     A
C753   O798    1.292   .     A
C754   H778    1.084   .     S
C754   C755    1.395   .     A
C755   C756    1.400   .     A
C755   C764    1.417   .     S
C756   O792    1.384   .     S
C757   H781    1.080   .     S
C757   C758    1.397   .     A
C757   C942    1.379   .     S
C759   H782    1.082   .     S
C759   N790    1.360   .     A
C759   C822    1.414   .     S
C760   N789    1.378   .     A
C760   C883    1.414   1_455 S
C761   C771    1.400   .     A
C761   C212    1.425   1_556 S
C761   C214    1.421   1_556 S
C762   N789    1.374   .     A
C762   C887    1.415   1_455 S
C763   H783    1.082   .     S
C763   N790    1.362   .     A
C763   C824    1.415   .     S
C764   O800    1.284   .     A
C764   O801    1.285   .     A
C765   O802    1.302   .     A
C765   O803    1.293   .     A
C765   C767    1.471   .     S
C766   C777    1.411   .     A
C767   C776    1.390   .     A
C767   C777    1.414   .     A
C768   C769    1.390   .     A
C768   H784    1.084   .     S
C769   C212    1.425   1_556 S
C769   O238    1.380   1_556 S
C770   O795    1.379   .     S
C771   C775    1.410   .     A
C772   C776    1.412   .     A
C773   C774    1.420   .     A
C773   C208    1.420   1_556 S
C773   C214    1.428   1_556 S
C774   C775    1.405   .     A
C776   O794    1.381   .     S
C777   O804    1.378   .     S
H779   O795    0.986   .     S
H780   O796    0.987   .     S
H785   O804    0.987   .     S
H786   O792    0.992   .     S
H788   O794    0.991   .     S
N789   Zn805   2.015   .     S
N790   Zn806   2.015   .     S
O791   Zn805   1.997   .     S
O793   C208    1.383   1_556 S
O793   H229    0.990   1_556 S
O797   Zn806   2.001   .     S
O798   Zn805   1.947   .     S
O799   Zn806   1.897   .     S
O800   Zn805   2.001   .     S
O801   Zn806   1.997   .     S
O802   Zn805   1.897   .     S
O803   Zn806   1.947   .     S
Br807  C822    1.912   .     S
Br808  C824    1.907   .     S
Br809  C836    1.940   .     S
Br810  C837    1.924   .     S
Br811  C814    1.924   .     S
C812   C820    1.423   .     S
C812   O859    1.285   .     A
C812   O853    1.288   .     A
C813   C830    1.397   .     A
C813   C833    1.408   .     A
C813   C815    1.463   .     S
C814   C820    1.405   .     A
C814   C1002   1.372   .     S
C815   O861    1.298   .     A
C815   O860    1.292   .     A
C816   H840    1.084   .     S
C816   C817    1.395   .     A
C817   C818    1.400   .     A
C817   C826    1.417   .     S
C818   O854    1.384   .     S
C819   H843    1.080   .     S
C819   C820    1.397   .     A
C819   C1004   1.379   .     S
C821   H844    1.082   .     S
C821   N852    1.360   .     A
C821   C884    1.414   .     S
C822   N851    1.378   .     A
C823   C833    1.400   .     A
C823   C274    1.425   1_556 S
C823   C276    1.421   1_556 S
C824   N851    1.374   .     A
C825   H845    1.082   .     S
C825   N852    1.362   .     A
C825   C886    1.415   .     S
C826   O862    1.284   .     A
C826   O863    1.285   .     A
C827   O864    1.302   .     A
C827   O865    1.293   .     A
C827   C829    1.471   .     S
C828   C839    1.411   .     A
C829   C838    1.390   .     A
C829   C839    1.414   .     A
C830   C831    1.390   .     A
C830   H846    1.084   .     S
C831   C274    1.425   1_556 S
C831   O300    1.380   1_556 S
C832   O857    1.379   .     S
C833   C837    1.410   .     A
C834   C838    1.412   .     A
C835   C836    1.420   .     A
C835   C270    1.420   1_556 S
C835   C276    1.428   1_556 S
C836   C837    1.405   .     A
C838   O856    1.381   .     S
C839   O866    1.378   .     S
H841   O857    0.986   .     S
H842   O858    0.987   .     S
H847   O866    0.987   .     S
H848   O854    0.992   .     S
H850   O856    0.991   .     S
N851   Zn867   2.015   .     S
N852   Zn868   2.015   .     S
O853   Zn867   1.997   .     S
O855   C270    1.383   1_556 S
O855   H291    0.990   1_556 S
O859   Zn868   2.001   .     S
O860   Zn867   1.947   .     S
O861   Zn868   1.897   .     S
O862   Zn867   2.001   .     S
O863   Zn868   1.997   .     S
O864   Zn867   1.897   .     S
O865   Zn868   1.947   .     S
Br869  C884    1.912   .     S
Br870  C886    1.907   .     S
Br871  C898    1.940   .     S
Br872  C899    1.924   .     S
Br873  C876    1.924   .     S
C874   C882    1.423   .     S
C874   O921    1.285   .     A
C874   O915    1.288   .     A
C875   C892    1.397   .     A
C875   C895    1.408   .     A
C875   C877    1.463   .     S
C876   C882    1.405   .     A
C876   C1064   1.372   .     S
C877   O923    1.298   .     A
C877   O922    1.292   .     A
C878   H902    1.084   .     S
C878   C879    1.395   .     A
C879   C880    1.400   .     A
C879   C888    1.417   .     S
C880   O916    1.384   .     S
C881   H905    1.080   .     S
C881   C882    1.397   .     A
C881   C1066   1.379   .     S
C883   H906    1.082   .     S
C883   N914    1.360   .     A
C883   C760    1.414   1_655 S
C884   N913    1.378   .     A
C885   C895    1.400   .     A
C885   C336    1.425   1_556 S
C885   C338    1.421   1_556 S
C886   N913    1.374   .     A
C887   H907    1.082   .     S
C887   N914    1.362   .     A
C887   C762    1.415   1_655 S
C888   O924    1.284   .     A
C888   O925    1.285   .     A
C889   O926    1.302   .     A
C889   O927    1.293   .     A
C889   C891    1.471   .     S
C890   C901    1.411   .     A
C891   C900    1.390   .     A
C891   C901    1.414   .     A
C892   C893    1.390   .     A
C892   H908    1.084   .     S
C893   C336    1.425   1_556 S
C893   O362    1.380   1_556 S
C894   O919    1.379   .     S
C895   C899    1.410   .     A
C896   C900    1.412   .     A
C897   C898    1.420   .     A
C897   C332    1.420   1_556 S
C897   C338    1.428   1_556 S
C898   C899    1.405   .     A
C900   O918    1.381   .     S
C901   O928    1.378   .     S
H903   O919    0.986   .     S
H904   O920    0.987   .     S
H909   O928    0.987   .     S
H910   O916    0.992   .     S
H912   O918    0.991   .     S
N913   Zn929   2.015   .     S
N914   Zn930   2.015   .     S
O915   Zn929   1.997   .     S
O917   C332    1.383   1_556 S
O917   H353    0.990   1_556 S
O921   Zn930   2.001   .     S
O922   Zn929   1.947   .     S
O923   Zn930   1.897   .     S
O924   Zn929   2.001   .     S
O925   Zn930   1.997   .     S
O926   Zn929   1.897   .     S
O927   Zn930   1.947   .     S
Br931  C946    1.912   .     S
Br932  C948    1.907   .     S
Br933  C960    1.940   .     S
Br934  C961    1.924   .     S
Br935  C938    1.924   .     S
C936   C944    1.423   .     S
C936   O983    1.285   .     A
C936   O977    1.288   .     A
C937   C954    1.397   .     A
C937   C957    1.408   .     A
C937   C939    1.463   .     S
C938   C944    1.405   .     A
C938   C568    1.372   1_565 S
C939   O985    1.298   .     A
C939   O984    1.292   .     A
C940   H964    1.084   .     S
C940   C941    1.395   .     A
C941   C942    1.400   .     A
C941   C950    1.417   .     S
C942   O978    1.384   .     S
C943   H967    1.080   .     S
C943   C944    1.397   .     A
C943   C570    1.379   1_565 S
C945   H968    1.082   .     S
C945   N976    1.360   .     A
C945   C1008   1.414   .     S
C946   N975    1.378   .     A
C946   C1069   1.414   1_455 S
C947   C957    1.400   .     A
C947   C398    1.425   1_556 S
C947   C400    1.421   1_556 S
C948   N975    1.374   .     A
C948   C1073   1.415   1_455 S
C949   H969    1.082   .     S
C949   N976    1.362   .     A
C949   C1010   1.415   .     S
C950   O986    1.284   .     A
C950   O987    1.285   .     A
C951   O988    1.302   .     A
C951   O989    1.293   .     A
C951   C953    1.471   .     S
C952   C963    1.411   .     A
C953   C962    1.390   .     A
C953   C963    1.414   .     A
C954   C955    1.390   .     A
C954   H970    1.084   .     S
C955   C398    1.425   1_556 S
C955   O424    1.380   1_556 S
C956   O981    1.379   .     S
C957   C961    1.410   .     A
C958   C962    1.412   .     A
C959   C960    1.420   .     A
C959   C394    1.420   1_556 S
C959   C400    1.428   1_556 S
C960   C961    1.405   .     A
C962   O980    1.381   .     S
C963   O990    1.378   .     S
H965   O981    0.986   .     S
H966   O982    0.987   .     S
H971   O990    0.987   .     S
H972   O978    0.992   .     S
H974   O980    0.991   .     S
N975   Zn991   2.015   .     S
N976   Zn992   2.015   .     S
O977   Zn991   1.997   .     S
O979   C394    1.383   1_556 S
O979   H415    0.990   1_556 S
O983   Zn992   2.001   .     S
O984   Zn991   1.947   .     S
O985   Zn992   1.897   .     S
O986   Zn991   2.001   .     S
O987   Zn992   1.997   .     S
O988   Zn991   1.897   .     S
O989   Zn992   1.947   .     S
Br993  C1008   1.912   .     S
Br994  C1010   1.907   .     S
Br995  C1022   1.940   .     S
Br996  C1023   1.924   .     S
Br997  C1000   1.924   .     S
C998   C1006   1.423   .     S
C998   O1045   1.285   .     A
C998   O1039   1.288   .     A
C999   C1016   1.397   .     A
C999   C1019   1.408   .     A
C999   C1001   1.463   .     S
C1000  C1006   1.405   .     A
C1000  C630    1.372   1_565 S
C1001  O1047   1.298   .     A
C1001  O1046   1.292   .     A
C1002  H1026   1.084   .     S
C1002  C1003   1.395   .     A
C1003  C1004   1.400   .     A
C1003  C1012   1.417   .     S
C1004  O1040   1.384   .     S
C1005  H1029   1.080   .     S
C1005  C1006   1.397   .     A
C1005  C632    1.379   1_565 S
C1007  H1030   1.082   .     S
C1007  N1038   1.360   .     A
C1007  C1070   1.414   .     S
C1008  N1037   1.378   .     A
C1009  C1019   1.400   .     A
C1009  C460    1.425   1_556 S
C1009  C462    1.421   1_556 S
C1010  N1037   1.374   .     A
C1011  H1031   1.082   .     S
C1011  N1038   1.362   .     A
C1011  C1072   1.415   .     S
C1012  O1048   1.284   .     A
C1012  O1049   1.285   .     A
C1013  O1050   1.302   .     A
C1013  O1051   1.293   .     A
C1013  C1015   1.471   .     S
C1014  C1025   1.411   .     A
C1015  C1024   1.390   .     A
C1015  C1025   1.414   .     A
C1016  C1017   1.390   .     A
C1016  H1032   1.084   .     S
C1017  C460    1.425   1_556 S
C1017  O486    1.380   1_556 S
C1018  O1043   1.379   .     S
C1019  C1023   1.410   .     A
C1020  C1024   1.412   .     A
C1021  C1022   1.420   .     A
C1021  C456    1.420   1_556 S
C1021  C462    1.428   1_556 S
C1022  C1023   1.405   .     A
C1024  O1042   1.381   .     S
C1025  O1052   1.378   .     S
H1027  O1043   0.986   .     S
H1028  O1044   0.987   .     S
H1033  O1052   0.987   .     S
H1034  O1040   0.992   .     S
H1036  O1042   0.991   .     S
N1037  Zn1053  2.015   .     S
N1038  Zn1054  2.015   .     S
O1039  Zn1053  1.997   .     S
O1041  C456    1.383   1_556 S
O1041  H477    0.990   1_556 S
O1045  Zn1054  2.001   .     S
O1046  Zn1053  1.947   .     S
O1047  Zn1054  1.897   .     S
O1048  Zn1053  2.001   .     S
O1049  Zn1054  1.997   .     S
O1050  Zn1053  1.897   .     S
O1051  Zn1054  1.947   .     S
Br1055 C1070   1.912   .     S
Br1056 C1072   1.907   .     S
Br1057 C1084   1.940   .     S
Br1058 C1085   1.924   .     S
Br1059 C1062   1.924   .     S
C1060  C1068   1.423   .     S
C1060  O1107   1.285   .     A
C1060  O1101   1.288   .     A
C1061  C1078   1.397   .     A
C1061  C1081   1.408   .     A
C1061  C1063   1.463   .     S
C1062  C1068   1.405   .     A
C1062  C692    1.372   1_565 S
C1063  O1109   1.298   .     A
C1063  O1108   1.292   .     A
C1064  H1088   1.084   .     S
C1064  C1065   1.395   .     A
C1065  C1066   1.400   .     A
C1065  C1074   1.417   .     S
C1066  O1102   1.384   .     S
C1067  H1091   1.080   .     S
C1067  C1068   1.397   .     A
C1067  C694    1.379   1_565 S
C1069  H1092   1.082   .     S
C1069  N1100   1.360   .     A
C1069  C946    1.414   1_655 S
C1070  N1099   1.378   .     A
C1071  C1081   1.400   .     A
C1071  C522    1.425   1_556 S
C1071  C524    1.421   1_556 S
C1072  N1099   1.374   .     A
C1073  H1093   1.082   .     S
C1073  N1100   1.362   .     A
C1073  C948    1.415   1_655 S
C1074  O1110   1.284   .     A
C1074  O1111   1.285   .     A
C1075  O1112   1.302   .     A
C1075  O1113   1.293   .     A
C1075  C1077   1.471   .     S
C1076  C1087   1.411   .     A
C1077  C1086   1.390   .     A
C1077  C1087   1.414   .     A
C1078  C1079   1.390   .     A
C1078  H1094   1.084   .     S
C1079  C522    1.425   1_556 S
C1079  O548    1.380   1_556 S
C1080  O1105   1.379   .     S
C1081  C1085   1.410   .     A
C1082  C1086   1.412   .     A
C1083  C1084   1.420   .     A
C1083  C518    1.420   1_556 S
C1083  C524    1.428   1_556 S
C1084  C1085   1.405   .     A
C1086  O1104   1.381   .     S
C1087  O1114   1.378   .     S
H1089  O1105   0.986   .     S
H1090  O1106   0.987   .     S
H1095  O1114   0.987   .     S
H1096  O1102   0.992   .     S
H1098  O1104   0.991   .     S
N1099  Zn1115  2.015   .     S
N1100  Zn1116  2.015   .     S
O1101  Zn1115  1.997   .     S
O1103  C518    1.383   1_556 S
O1103  H539    0.990   1_556 S
O1107  Zn1116  2.001   .     S
O1108  Zn1115  1.947   .     S
O1109  Zn1116  1.897   .     S
O1110  Zn1115  2.001   .     S
O1111  Zn1116  1.997   .     S
O1112  Zn1115  1.897   .     S
O1113  Zn1116  1.947   .     S
