data_str_m3_o1_o10_pcu_sym.166
_audit_creation_date              2020-01-03
_audit_creation_method            'Materials Studio'
_symmetry_space_group_name_H-M    'P1'
_symmetry_Int_Tables_number       1
_symmetry_cell_setting            triclinic
loop_
_symmetry_equiv_pos_as_xyz
  x,y,z
_cell_length_a                    25.7243
_cell_length_b                    31.9456
_cell_length_c                    29.6308
_cell_angle_alpha                 90.3415
_cell_angle_beta                  98.9689
_cell_angle_gamma                 90.4033
loop_
_atom_site_label
_atom_site_type_symbol
_atom_site_fract_x
_atom_site_fract_y
_atom_site_fract_z
_atom_site_U_iso_or_equiv
_atom_site_adp_type
_atom_site_occupancy
C1     C     0.16735   0.08675   0.16661   0.00000  Uiso   1.00
C2     C     0.16632   0.24658   0.16675   0.00000  Uiso   1.00
C3     C     0.06703   0.16639   0.15464   0.00000  Uiso   1.00
C4     C     0.26629   0.16626   0.17867   0.00000  Uiso   1.00
C5     C     0.01187   0.16613   0.14820   0.00000  Uiso   1.00
C6     C     0.32140   0.16511   0.18502   0.00000  Uiso   1.00
C7     C     0.19923   0.02118   0.13968   0.00000  Uiso   1.00
C8     C     0.13271   0.31230   0.19192   0.00000  Uiso   1.00
C9     C     0.19890   0.31131   0.14081   0.00000  Uiso   1.00
C10    C     0.13472   0.02199   0.19241   0.00000  Uiso   1.00
C11    C     0.16585   0.29070   0.16669   0.00000  Uiso   1.00
C12    C     0.16749   0.04261   0.16633   0.00000  Uiso   1.00
C13    C     0.19990   0.19235   0.02883   0.00000  Uiso   1.00
C14    C     0.13348   0.14094   0.30452   0.00000  Uiso   1.00
C15    C     0.19997   0.19245   0.31436   0.00000  Uiso   1.00
C16    C     0.13334   0.14090   0.01897   0.00000  Uiso   1.00
H17    H     0.32437   0.16725   0.11333   0.00000  Uiso   1.00
H18    H     0.00889   0.16375   0.21986   0.00000  Uiso   1.00
H19    H     0.22525   0.29387   0.12263   0.00000  Uiso   1.00
H20    H     0.11000   0.03925   0.21238   0.00000  Uiso   1.00
H21    H     0.22642   0.21286   0.05087   0.00000  Uiso   1.00
H22    H     0.10698   0.12042   0.28248   0.00000  Uiso   1.00
N23    N     0.16665   0.16666   0.28573   0.00000  Uiso   1.00
N24    N     0.16668   0.16668   0.04760   0.00000  Uiso   1.00
O25    O     0.16666   0.10558   0.20487   0.00000  Uiso   1.00
O26    O     0.16667   0.22775   0.12846   0.00000  Uiso   1.00
O27    O     0.16666   0.10559   0.12843   0.00000  Uiso   1.00
O28    O     0.16667   0.22774   0.20490   0.00000  Uiso   1.00
O29    O     0.09058   0.16666   0.19595   0.00000  Uiso   1.00
O30    O     0.24275   0.16667   0.13739   0.00000  Uiso   1.00
O31    O     0.09058   0.16667   0.11950   0.00000  Uiso   1.00
O32    O     0.24275   0.16666   0.21383   0.00000  Uiso   1.00
Zn33   Zn    0.16667   0.16666   0.21771   0.00000  Uiso   1.00
Zn34   Zn    0.16667   0.16667   0.11563   0.00000  Uiso   1.00
O35    O     0.23482   0.04275   0.11765   0.00000  Uiso   1.00
C36    C     0.22150   0.03706   0.06992   0.00000  Uiso   1.00
H37    H     0.17878   0.04254   0.05812   0.00000  Uiso   1.00
H38    H     0.23175   0.00495   0.05976   0.00000  Uiso   1.00
C39    C     0.25257   0.06832   0.04595   0.00000  Uiso   1.00
H40    H     0.29542   0.06269   0.05546   0.00000  Uiso   1.00
H41    H     0.24160   0.06492   0.00834   0.00000  Uiso   1.00
H42    H     0.24384   0.10074   0.05606   0.00000  Uiso   1.00
O43    O     0.10016   0.29165   0.21762   0.00000  Uiso   1.00
C44    C     0.04999   0.28664   0.19089   0.00000  Uiso   1.00
H45    H     0.05186   0.26387   0.16259   0.00000  Uiso   1.00
H46    H     0.03430   0.31696   0.17628   0.00000  Uiso   1.00
C47    C     0.01171   0.26982   0.22079   0.00000  Uiso   1.00
H48    H     0.00676   0.29311   0.24773   0.00000  Uiso   1.00
H49    H     0.30613   0.26357   0.19967   0.00000  Uiso   1.00
H50    H     0.02691   0.24032   0.23732   0.00000  Uiso   1.00
Cl51   Cl    0.24369   0.22646   0.29266   0.00000  Uiso   1.00
Cl52   Cl    0.08933   0.10713   0.04062   0.00000  Uiso   1.00
C53    C     0.50068   0.08675   0.16661   0.00000  Uiso   1.00
C54    C     0.49965   0.24658   0.16675   0.00000  Uiso   1.00
C55    C     0.40036   0.16639   0.15464   0.00000  Uiso   1.00
C56    C     0.59962   0.16626   0.17867   0.00000  Uiso   1.00
C57    C     0.34520   0.16613   0.14820   0.00000  Uiso   1.00
C58    C     0.65473   0.16511   0.18502   0.00000  Uiso   1.00
C59    C     0.53256   0.02118   0.13968   0.00000  Uiso   1.00
C60    C     0.46604   0.31230   0.19192   0.00000  Uiso   1.00
C61    C     0.53223   0.31131   0.14081   0.00000  Uiso   1.00
C62    C     0.46805   0.02199   0.19241   0.00000  Uiso   1.00
C63    C     0.49919   0.29070   0.16669   0.00000  Uiso   1.00
C64    C     0.50082   0.04261   0.16633   0.00000  Uiso   1.00
C65    C     0.53323   0.19235   0.02883   0.00000  Uiso   1.00
C66    C     0.46682   0.14094   0.30452   0.00000  Uiso   1.00
C67    C     0.53330   0.19245   0.31436   0.00000  Uiso   1.00
C68    C     0.46667   0.14090   0.01897   0.00000  Uiso   1.00
H69    H     0.65771   0.16725   0.11333   0.00000  Uiso   1.00
H70    H     0.34223   0.16375   0.21986   0.00000  Uiso   1.00
H71    H     0.55858   0.29387   0.12263   0.00000  Uiso   1.00
H72    H     0.44333   0.03925   0.21238   0.00000  Uiso   1.00
H73    H     0.55975   0.21286   0.05087   0.00000  Uiso   1.00
H74    H     0.44031   0.12042   0.28248   0.00000  Uiso   1.00
N75    N     0.49999   0.16666   0.28573   0.00000  Uiso   1.00
N76    N     0.50001   0.16668   0.04760   0.00000  Uiso   1.00
O77    O     0.50000   0.10558   0.20487   0.00000  Uiso   1.00
O78    O     0.50000   0.22775   0.12846   0.00000  Uiso   1.00
O79    O     0.50000   0.10559   0.12843   0.00000  Uiso   1.00
O80    O     0.50000   0.22774   0.20490   0.00000  Uiso   1.00
O81    O     0.42392   0.16666   0.19595   0.00000  Uiso   1.00
O82    O     0.57608   0.16667   0.13739   0.00000  Uiso   1.00
O83    O     0.42392   0.16667   0.11950   0.00000  Uiso   1.00
O84    O     0.57608   0.16666   0.21383   0.00000  Uiso   1.00
Zn85   Zn    0.50000   0.16666   0.21771   0.00000  Uiso   1.00
Zn86   Zn    0.50000   0.16667   0.11563   0.00000  Uiso   1.00
O87    O     0.56816   0.04275   0.11765   0.00000  Uiso   1.00
C88    C     0.55483   0.03706   0.06992   0.00000  Uiso   1.00
H89    H     0.51212   0.04254   0.05812   0.00000  Uiso   1.00
H90    H     0.56509   0.00495   0.05976   0.00000  Uiso   1.00
C91    C     0.58590   0.06832   0.04595   0.00000  Uiso   1.00
H92    H     0.62876   0.06269   0.05546   0.00000  Uiso   1.00
H93    H     0.57493   0.06492   0.00834   0.00000  Uiso   1.00
H94    H     0.57717   0.10074   0.05606   0.00000  Uiso   1.00
O95    O     0.43349   0.29165   0.21762   0.00000  Uiso   1.00
C96    C     0.38332   0.28664   0.19089   0.00000  Uiso   1.00
H97    H     0.38519   0.26387   0.16259   0.00000  Uiso   1.00
H98    H     0.36764   0.31696   0.17628   0.00000  Uiso   1.00
C99    C     0.34505   0.26982   0.22079   0.00000  Uiso   1.00
H100   H     0.34009   0.29311   0.24773   0.00000  Uiso   1.00
H101   H     0.63946   0.26357   0.19967   0.00000  Uiso   1.00
H102   H     0.36025   0.24032   0.23732   0.00000  Uiso   1.00
Cl103  Cl    0.57702   0.22646   0.29266   0.00000  Uiso   1.00
Cl104  Cl    0.42266   0.10713   0.04062   0.00000  Uiso   1.00
C105   C     0.83401   0.08675   0.16661   0.00000  Uiso   1.00
C106   C     0.83299   0.24658   0.16675   0.00000  Uiso   1.00
C107   C     0.73369   0.16639   0.15464   0.00000  Uiso   1.00
C108   C     0.93296   0.16626   0.17867   0.00000  Uiso   1.00
C109   C     0.67854   0.16613   0.14820   0.00000  Uiso   1.00
C110   C     0.98807   0.16511   0.18502   0.00000  Uiso   1.00
C111   C     0.86589   0.02118   0.13968   0.00000  Uiso   1.00
C112   C     0.79938   0.31230   0.19192   0.00000  Uiso   1.00
C113   C     0.86556   0.31131   0.14081   0.00000  Uiso   1.00
C114   C     0.80139   0.02199   0.19241   0.00000  Uiso   1.00
C115   C     0.83252   0.29070   0.16669   0.00000  Uiso   1.00
C116   C     0.83415   0.04261   0.16633   0.00000  Uiso   1.00
C117   C     0.86656   0.19235   0.02883   0.00000  Uiso   1.00
C118   C     0.80015   0.14094   0.30452   0.00000  Uiso   1.00
C119   C     0.86664   0.19245   0.31436   0.00000  Uiso   1.00
C120   C     0.80000   0.14090   0.01897   0.00000  Uiso   1.00
H121   H     0.99104   0.16725   0.11333   0.00000  Uiso   1.00
H122   H     0.67556   0.16375   0.21986   0.00000  Uiso   1.00
H123   H     0.89191   0.29387   0.12263   0.00000  Uiso   1.00
H124   H     0.77667   0.03925   0.21238   0.00000  Uiso   1.00
H125   H     0.89309   0.21286   0.05087   0.00000  Uiso   1.00
H126   H     0.77365   0.12042   0.28248   0.00000  Uiso   1.00
N127   N     0.83332   0.16666   0.28573   0.00000  Uiso   1.00
N128   N     0.83335   0.16668   0.04760   0.00000  Uiso   1.00
O129   O     0.83333   0.10558   0.20487   0.00000  Uiso   1.00
O130   O     0.83334   0.22775   0.12846   0.00000  Uiso   1.00
O131   O     0.83333   0.10559   0.12843   0.00000  Uiso   1.00
O132   O     0.83334   0.22774   0.20490   0.00000  Uiso   1.00
O133   O     0.75725   0.16666   0.19595   0.00000  Uiso   1.00
O134   O     0.90942   0.16667   0.13739   0.00000  Uiso   1.00
O135   O     0.75725   0.16667   0.11950   0.00000  Uiso   1.00
O136   O     0.90942   0.16666   0.21383   0.00000  Uiso   1.00
Zn137  Zn    0.83333   0.16666   0.21771   0.00000  Uiso   1.00
Zn138  Zn    0.83333   0.16667   0.11563   0.00000  Uiso   1.00
O139   O     0.90149   0.04275   0.11765   0.00000  Uiso   1.00
C140   C     0.88816   0.03706   0.06992   0.00000  Uiso   1.00
H141   H     0.84545   0.04254   0.05812   0.00000  Uiso   1.00
H142   H     0.89842   0.00495   0.05976   0.00000  Uiso   1.00
C143   C     0.91923   0.06832   0.04595   0.00000  Uiso   1.00
H144   H     0.96209   0.06269   0.05546   0.00000  Uiso   1.00
H145   H     0.90827   0.06492   0.00834   0.00000  Uiso   1.00
H146   H     0.91050   0.10074   0.05606   0.00000  Uiso   1.00
O147   O     0.76683   0.29165   0.21762   0.00000  Uiso   1.00
C148   C     0.71666   0.28664   0.19089   0.00000  Uiso   1.00
H149   H     0.71853   0.26387   0.16259   0.00000  Uiso   1.00
H150   H     0.70097   0.31696   0.17628   0.00000  Uiso   1.00
C151   C     0.67838   0.26982   0.22079   0.00000  Uiso   1.00
H152   H     0.67343   0.29311   0.24773   0.00000  Uiso   1.00
H153   H     0.97279   0.26357   0.19967   0.00000  Uiso   1.00
H154   H     0.69358   0.24032   0.23732   0.00000  Uiso   1.00
Cl155  Cl    0.91035   0.22646   0.29266   0.00000  Uiso   1.00
Cl156  Cl    0.75600   0.10713   0.04062   0.00000  Uiso   1.00
C157   C     0.16735   0.42009   0.16661   0.00000  Uiso   1.00
C158   C     0.16632   0.57991   0.16675   0.00000  Uiso   1.00
C159   C     0.06703   0.49972   0.15464   0.00000  Uiso   1.00
C160   C     0.26629   0.49960   0.17867   0.00000  Uiso   1.00
C161   C     0.01187   0.49946   0.14820   0.00000  Uiso   1.00
C162   C     0.32140   0.49844   0.18502   0.00000  Uiso   1.00
C163   C     0.19923   0.35451   0.13968   0.00000  Uiso   1.00
C164   C     0.13271   0.64563   0.19192   0.00000  Uiso   1.00
C165   C     0.19890   0.64465   0.14081   0.00000  Uiso   1.00
C166   C     0.13472   0.35533   0.19241   0.00000  Uiso   1.00
C167   C     0.16585   0.62403   0.16669   0.00000  Uiso   1.00
C168   C     0.16749   0.37595   0.16633   0.00000  Uiso   1.00
C169   C     0.19990   0.52568   0.02883   0.00000  Uiso   1.00
C170   C     0.13348   0.47428   0.30452   0.00000  Uiso   1.00
C171   C     0.19997   0.52578   0.31436   0.00000  Uiso   1.00
C172   C     0.13334   0.47424   0.01897   0.00000  Uiso   1.00
H173   H     0.32437   0.50059   0.11333   0.00000  Uiso   1.00
H174   H     0.00889   0.49708   0.21986   0.00000  Uiso   1.00
H175   H     0.22525   0.62720   0.12263   0.00000  Uiso   1.00
H176   H     0.11000   0.37258   0.21238   0.00000  Uiso   1.00
H177   H     0.22642   0.54619   0.05087   0.00000  Uiso   1.00
H178   H     0.10698   0.45375   0.28248   0.00000  Uiso   1.00
N179   N     0.16665   0.49999   0.28573   0.00000  Uiso   1.00
N180   N     0.16668   0.50001   0.04760   0.00000  Uiso   1.00
O181   O     0.16666   0.43892   0.20487   0.00000  Uiso   1.00
O182   O     0.16667   0.56108   0.12846   0.00000  Uiso   1.00
O183   O     0.16666   0.43893   0.12843   0.00000  Uiso   1.00
O184   O     0.16667   0.56107   0.20490   0.00000  Uiso   1.00
O185   O     0.09058   0.50000   0.19595   0.00000  Uiso   1.00
O186   O     0.24275   0.50000   0.13739   0.00000  Uiso   1.00
O187   O     0.09058   0.50000   0.11950   0.00000  Uiso   1.00
O188   O     0.24275   0.50000   0.21383   0.00000  Uiso   1.00
Zn189  Zn    0.16667   0.49999   0.21771   0.00000  Uiso   1.00
Zn190  Zn    0.16667   0.50001   0.11563   0.00000  Uiso   1.00
O191   O     0.23482   0.37608   0.11765   0.00000  Uiso   1.00
C192   C     0.22150   0.37039   0.06992   0.00000  Uiso   1.00
H193   H     0.17878   0.37588   0.05812   0.00000  Uiso   1.00
H194   H     0.23175   0.33828   0.05976   0.00000  Uiso   1.00
C195   C     0.25257   0.40166   0.04595   0.00000  Uiso   1.00
H196   H     0.29542   0.39602   0.05546   0.00000  Uiso   1.00
H197   H     0.24160   0.39826   0.00834   0.00000  Uiso   1.00
H198   H     0.24384   0.43407   0.05606   0.00000  Uiso   1.00
O199   O     0.10016   0.62498   0.21762   0.00000  Uiso   1.00
C200   C     0.04999   0.61997   0.19089   0.00000  Uiso   1.00
H201   H     0.05186   0.59720   0.16259   0.00000  Uiso   1.00
H202   H     0.03430   0.65030   0.17628   0.00000  Uiso   1.00
C203   C     0.01171   0.60315   0.22079   0.00000  Uiso   1.00
H204   H     0.00676   0.62645   0.24773   0.00000  Uiso   1.00
H205   H     0.30613   0.59690   0.19967   0.00000  Uiso   1.00
H206   H     0.02691   0.57365   0.23732   0.00000  Uiso   1.00
Cl207  Cl    0.24369   0.55979   0.29266   0.00000  Uiso   1.00
Cl208  Cl    0.08933   0.44046   0.04062   0.00000  Uiso   1.00
C209   C     0.50068   0.42009   0.16661   0.00000  Uiso   1.00
C210   C     0.49965   0.57991   0.16675   0.00000  Uiso   1.00
C211   C     0.40036   0.49972   0.15464   0.00000  Uiso   1.00
C212   C     0.59962   0.49960   0.17867   0.00000  Uiso   1.00
C213   C     0.34520   0.49946   0.14820   0.00000  Uiso   1.00
C214   C     0.65473   0.49844   0.18502   0.00000  Uiso   1.00
C215   C     0.53256   0.35451   0.13968   0.00000  Uiso   1.00
C216   C     0.46604   0.64563   0.19192   0.00000  Uiso   1.00
C217   C     0.53223   0.64465   0.14081   0.00000  Uiso   1.00
C218   C     0.46805   0.35533   0.19241   0.00000  Uiso   1.00
C219   C     0.49919   0.62403   0.16669   0.00000  Uiso   1.00
C220   C     0.50082   0.37595   0.16633   0.00000  Uiso   1.00
C221   C     0.53323   0.52568   0.02883   0.00000  Uiso   1.00
C222   C     0.46682   0.47428   0.30452   0.00000  Uiso   1.00
C223   C     0.53330   0.52578   0.31436   0.00000  Uiso   1.00
C224   C     0.46667   0.47424   0.01897   0.00000  Uiso   1.00
H225   H     0.65771   0.50059   0.11333   0.00000  Uiso   1.00
H226   H     0.34223   0.49708   0.21986   0.00000  Uiso   1.00
H227   H     0.55858   0.62720   0.12263   0.00000  Uiso   1.00
H228   H     0.44333   0.37258   0.21238   0.00000  Uiso   1.00
H229   H     0.55975   0.54619   0.05087   0.00000  Uiso   1.00
H230   H     0.44031   0.45375   0.28248   0.00000  Uiso   1.00
N231   N     0.49999   0.49999   0.28573   0.00000  Uiso   1.00
N232   N     0.50001   0.50001   0.04760   0.00000  Uiso   1.00
O233   O     0.50000   0.43892   0.20487   0.00000  Uiso   1.00
O234   O     0.50000   0.56108   0.12846   0.00000  Uiso   1.00
O235   O     0.50000   0.43893   0.12843   0.00000  Uiso   1.00
O236   O     0.50000   0.56107   0.20490   0.00000  Uiso   1.00
O237   O     0.42392   0.50000   0.19595   0.00000  Uiso   1.00
O238   O     0.57608   0.50000   0.13739   0.00000  Uiso   1.00
O239   O     0.42392   0.50000   0.11950   0.00000  Uiso   1.00
O240   O     0.57608   0.50000   0.21383   0.00000  Uiso   1.00
Zn241  Zn    0.50000   0.49999   0.21771   0.00000  Uiso   1.00
Zn242  Zn    0.50000   0.50001   0.11563   0.00000  Uiso   1.00
O243   O     0.56816   0.37608   0.11765   0.00000  Uiso   1.00
C244   C     0.55483   0.37039   0.06992   0.00000  Uiso   1.00
H245   H     0.51212   0.37588   0.05812   0.00000  Uiso   1.00
H246   H     0.56509   0.33828   0.05976   0.00000  Uiso   1.00
C247   C     0.58590   0.40166   0.04595   0.00000  Uiso   1.00
H248   H     0.62876   0.39602   0.05546   0.00000  Uiso   1.00
H249   H     0.57493   0.39826   0.00834   0.00000  Uiso   1.00
H250   H     0.57717   0.43407   0.05606   0.00000  Uiso   1.00
O251   O     0.43349   0.62498   0.21762   0.00000  Uiso   1.00
C252   C     0.38332   0.61997   0.19089   0.00000  Uiso   1.00
H253   H     0.38519   0.59720   0.16259   0.00000  Uiso   1.00
H254   H     0.36764   0.65030   0.17628   0.00000  Uiso   1.00
C255   C     0.34505   0.60315   0.22079   0.00000  Uiso   1.00
H256   H     0.34009   0.62645   0.24773   0.00000  Uiso   1.00
H257   H     0.63946   0.59690   0.19967   0.00000  Uiso   1.00
H258   H     0.36025   0.57365   0.23732   0.00000  Uiso   1.00
Cl259  Cl    0.57702   0.55979   0.29266   0.00000  Uiso   1.00
Cl260  Cl    0.42266   0.44046   0.04062   0.00000  Uiso   1.00
C261   C     0.83401   0.42009   0.16661   0.00000  Uiso   1.00
C262   C     0.83299   0.57991   0.16675   0.00000  Uiso   1.00
C263   C     0.73369   0.49972   0.15464   0.00000  Uiso   1.00
C264   C     0.93296   0.49960   0.17867   0.00000  Uiso   1.00
C265   C     0.67854   0.49946   0.14820   0.00000  Uiso   1.00
C266   C     0.98807   0.49844   0.18502   0.00000  Uiso   1.00
C267   C     0.86589   0.35451   0.13968   0.00000  Uiso   1.00
C268   C     0.79938   0.64563   0.19192   0.00000  Uiso   1.00
C269   C     0.86556   0.64465   0.14081   0.00000  Uiso   1.00
C270   C     0.80139   0.35533   0.19241   0.00000  Uiso   1.00
C271   C     0.83252   0.62403   0.16669   0.00000  Uiso   1.00
C272   C     0.83415   0.37595   0.16633   0.00000  Uiso   1.00
C273   C     0.86656   0.52568   0.02883   0.00000  Uiso   1.00
C274   C     0.80015   0.47428   0.30452   0.00000  Uiso   1.00
C275   C     0.86664   0.52578   0.31436   0.00000  Uiso   1.00
C276   C     0.80000   0.47424   0.01897   0.00000  Uiso   1.00
H277   H     0.99104   0.50059   0.11333   0.00000  Uiso   1.00
H278   H     0.67556   0.49708   0.21986   0.00000  Uiso   1.00
H279   H     0.89191   0.62720   0.12263   0.00000  Uiso   1.00
H280   H     0.77667   0.37258   0.21238   0.00000  Uiso   1.00
H281   H     0.89309   0.54619   0.05087   0.00000  Uiso   1.00
H282   H     0.77365   0.45375   0.28248   0.00000  Uiso   1.00
N283   N     0.83332   0.49999   0.28573   0.00000  Uiso   1.00
N284   N     0.83335   0.50001   0.04760   0.00000  Uiso   1.00
O285   O     0.83333   0.43892   0.20487   0.00000  Uiso   1.00
O286   O     0.83334   0.56108   0.12846   0.00000  Uiso   1.00
O287   O     0.83333   0.43893   0.12843   0.00000  Uiso   1.00
O288   O     0.83334   0.56107   0.20490   0.00000  Uiso   1.00
O289   O     0.75725   0.50000   0.19595   0.00000  Uiso   1.00
O290   O     0.90942   0.50000   0.13739   0.00000  Uiso   1.00
O291   O     0.75725   0.50000   0.11950   0.00000  Uiso   1.00
O292   O     0.90942   0.50000   0.21383   0.00000  Uiso   1.00
Zn293  Zn    0.83333   0.49999   0.21771   0.00000  Uiso   1.00
Zn294  Zn    0.83333   0.50001   0.11563   0.00000  Uiso   1.00
O295   O     0.90149   0.37608   0.11765   0.00000  Uiso   1.00
C296   C     0.88816   0.37039   0.06992   0.00000  Uiso   1.00
H297   H     0.84545   0.37588   0.05812   0.00000  Uiso   1.00
H298   H     0.89842   0.33828   0.05976   0.00000  Uiso   1.00
C299   C     0.91923   0.40166   0.04595   0.00000  Uiso   1.00
H300   H     0.96209   0.39602   0.05546   0.00000  Uiso   1.00
H301   H     0.90827   0.39826   0.00834   0.00000  Uiso   1.00
H302   H     0.91050   0.43407   0.05606   0.00000  Uiso   1.00
O303   O     0.76683   0.62498   0.21762   0.00000  Uiso   1.00
C304   C     0.71666   0.61997   0.19089   0.00000  Uiso   1.00
H305   H     0.71853   0.59720   0.16259   0.00000  Uiso   1.00
H306   H     0.70097   0.65030   0.17628   0.00000  Uiso   1.00
C307   C     0.67838   0.60315   0.22079   0.00000  Uiso   1.00
H308   H     0.67343   0.62645   0.24773   0.00000  Uiso   1.00
H309   H     0.97279   0.59690   0.19967   0.00000  Uiso   1.00
H310   H     0.69358   0.57365   0.23732   0.00000  Uiso   1.00
Cl311  Cl    0.91035   0.55979   0.29266   0.00000  Uiso   1.00
Cl312  Cl    0.75600   0.44046   0.04062   0.00000  Uiso   1.00
C313   C     0.16735   0.75342   0.16661   0.00000  Uiso   1.00
C314   C     0.16632   0.91324   0.16675   0.00000  Uiso   1.00
C315   C     0.06703   0.83305   0.15464   0.00000  Uiso   1.00
C316   C     0.26629   0.83293   0.17867   0.00000  Uiso   1.00
C317   C     0.01187   0.83279   0.14820   0.00000  Uiso   1.00
C318   C     0.32140   0.83178   0.18502   0.00000  Uiso   1.00
C319   C     0.19923   0.68785   0.13968   0.00000  Uiso   1.00
C320   C     0.13271   0.97896   0.19192   0.00000  Uiso   1.00
C321   C     0.19890   0.97798   0.14081   0.00000  Uiso   1.00
C322   C     0.13472   0.68866   0.19241   0.00000  Uiso   1.00
C323   C     0.16585   0.95736   0.16669   0.00000  Uiso   1.00
C324   C     0.16749   0.70928   0.16633   0.00000  Uiso   1.00
C325   C     0.19990   0.85902   0.02883   0.00000  Uiso   1.00
C326   C     0.13348   0.80761   0.30452   0.00000  Uiso   1.00
C327   C     0.19997   0.85912   0.31436   0.00000  Uiso   1.00
C328   C     0.13334   0.80757   0.01897   0.00000  Uiso   1.00
H329   H     0.32437   0.83392   0.11333   0.00000  Uiso   1.00
H330   H     0.00889   0.83041   0.21986   0.00000  Uiso   1.00
H331   H     0.22525   0.96054   0.12263   0.00000  Uiso   1.00
H332   H     0.11000   0.70592   0.21238   0.00000  Uiso   1.00
H333   H     0.22642   0.87953   0.05087   0.00000  Uiso   1.00
H334   H     0.10698   0.78708   0.28248   0.00000  Uiso   1.00
N335   N     0.16665   0.83332   0.28573   0.00000  Uiso   1.00
N336   N     0.16668   0.83334   0.04760   0.00000  Uiso   1.00
O337   O     0.16666   0.77225   0.20487   0.00000  Uiso   1.00
O338   O     0.16667   0.89442   0.12846   0.00000  Uiso   1.00
O339   O     0.16666   0.77226   0.12843   0.00000  Uiso   1.00
O340   O     0.16667   0.89441   0.20490   0.00000  Uiso   1.00
O341   O     0.09058   0.83333   0.19595   0.00000  Uiso   1.00
O342   O     0.24275   0.83334   0.13739   0.00000  Uiso   1.00
O343   O     0.09058   0.83334   0.11950   0.00000  Uiso   1.00
O344   O     0.24275   0.83333   0.21383   0.00000  Uiso   1.00
Zn345  Zn    0.16667   0.83333   0.21771   0.00000  Uiso   1.00
Zn346  Zn    0.16667   0.83334   0.11563   0.00000  Uiso   1.00
O347   O     0.23482   0.70941   0.11765   0.00000  Uiso   1.00
C348   C     0.22150   0.70372   0.06992   0.00000  Uiso   1.00
H349   H     0.17878   0.70921   0.05812   0.00000  Uiso   1.00
H350   H     0.23175   0.67162   0.05976   0.00000  Uiso   1.00
C351   C     0.25257   0.73499   0.04595   0.00000  Uiso   1.00
H352   H     0.29542   0.72935   0.05546   0.00000  Uiso   1.00
H353   H     0.24160   0.73159   0.00834   0.00000  Uiso   1.00
H354   H     0.24384   0.76741   0.05606   0.00000  Uiso   1.00
O355   O     0.10016   0.95832   0.21762   0.00000  Uiso   1.00
C356   C     0.04999   0.95331   0.19089   0.00000  Uiso   1.00
H357   H     0.05186   0.93054   0.16259   0.00000  Uiso   1.00
H358   H     0.03430   0.98363   0.17628   0.00000  Uiso   1.00
C359   C     0.01171   0.93649   0.22079   0.00000  Uiso   1.00
H360   H     0.00676   0.95978   0.24773   0.00000  Uiso   1.00
H361   H     0.30613   0.93023   0.19967   0.00000  Uiso   1.00
H362   H     0.02691   0.90699   0.23732   0.00000  Uiso   1.00
Cl363  Cl    0.24369   0.89312   0.29266   0.00000  Uiso   1.00
Cl364  Cl    0.08933   0.77380   0.04062   0.00000  Uiso   1.00
C365   C     0.50068   0.75342   0.16661   0.00000  Uiso   1.00
C366   C     0.49965   0.91324   0.16675   0.00000  Uiso   1.00
C367   C     0.40036   0.83305   0.15464   0.00000  Uiso   1.00
C368   C     0.59962   0.83293   0.17867   0.00000  Uiso   1.00
C369   C     0.34520   0.83279   0.14820   0.00000  Uiso   1.00
C370   C     0.65473   0.83178   0.18502   0.00000  Uiso   1.00
C371   C     0.53256   0.68785   0.13968   0.00000  Uiso   1.00
C372   C     0.46604   0.97896   0.19192   0.00000  Uiso   1.00
C373   C     0.53223   0.97798   0.14081   0.00000  Uiso   1.00
C374   C     0.46805   0.68866   0.19241   0.00000  Uiso   1.00
C375   C     0.49919   0.95736   0.16669   0.00000  Uiso   1.00
C376   C     0.50082   0.70928   0.16633   0.00000  Uiso   1.00
C377   C     0.53323   0.85902   0.02883   0.00000  Uiso   1.00
C378   C     0.46682   0.80761   0.30452   0.00000  Uiso   1.00
C379   C     0.53330   0.85912   0.31436   0.00000  Uiso   1.00
C380   C     0.46667   0.80757   0.01897   0.00000  Uiso   1.00
H381   H     0.65771   0.83392   0.11333   0.00000  Uiso   1.00
H382   H     0.34223   0.83041   0.21986   0.00000  Uiso   1.00
H383   H     0.55858   0.96054   0.12263   0.00000  Uiso   1.00
H384   H     0.44333   0.70592   0.21238   0.00000  Uiso   1.00
H385   H     0.55975   0.87953   0.05087   0.00000  Uiso   1.00
H386   H     0.44031   0.78708   0.28248   0.00000  Uiso   1.00
N387   N     0.49999   0.83332   0.28573   0.00000  Uiso   1.00
N388   N     0.50001   0.83334   0.04760   0.00000  Uiso   1.00
O389   O     0.50000   0.77225   0.20487   0.00000  Uiso   1.00
O390   O     0.50000   0.89442   0.12846   0.00000  Uiso   1.00
O391   O     0.50000   0.77226   0.12843   0.00000  Uiso   1.00
O392   O     0.50000   0.89441   0.20490   0.00000  Uiso   1.00
O393   O     0.42392   0.83333   0.19595   0.00000  Uiso   1.00
O394   O     0.57608   0.83334   0.13739   0.00000  Uiso   1.00
O395   O     0.42392   0.83334   0.11950   0.00000  Uiso   1.00
O396   O     0.57608   0.83333   0.21383   0.00000  Uiso   1.00
Zn397  Zn    0.50000   0.83333   0.21771   0.00000  Uiso   1.00
Zn398  Zn    0.50000   0.83334   0.11563   0.00000  Uiso   1.00
O399   O     0.56816   0.70941   0.11765   0.00000  Uiso   1.00
C400   C     0.55483   0.70372   0.06992   0.00000  Uiso   1.00
H401   H     0.51212   0.70921   0.05812   0.00000  Uiso   1.00
H402   H     0.56509   0.67162   0.05976   0.00000  Uiso   1.00
C403   C     0.58590   0.73499   0.04595   0.00000  Uiso   1.00
H404   H     0.62876   0.72935   0.05546   0.00000  Uiso   1.00
H405   H     0.57493   0.73159   0.00834   0.00000  Uiso   1.00
H406   H     0.57717   0.76741   0.05606   0.00000  Uiso   1.00
O407   O     0.43349   0.95832   0.21762   0.00000  Uiso   1.00
C408   C     0.38332   0.95331   0.19089   0.00000  Uiso   1.00
H409   H     0.38519   0.93054   0.16259   0.00000  Uiso   1.00
H410   H     0.36764   0.98363   0.17628   0.00000  Uiso   1.00
C411   C     0.34505   0.93649   0.22079   0.00000  Uiso   1.00
H412   H     0.34009   0.95978   0.24773   0.00000  Uiso   1.00
H413   H     0.63946   0.93023   0.19967   0.00000  Uiso   1.00
H414   H     0.36025   0.90699   0.23732   0.00000  Uiso   1.00
Cl415  Cl    0.57702   0.89312   0.29266   0.00000  Uiso   1.00
Cl416  Cl    0.42266   0.77380   0.04062   0.00000  Uiso   1.00
C417   C     0.83401   0.75342   0.16661   0.00000  Uiso   1.00
C418   C     0.83299   0.91324   0.16675   0.00000  Uiso   1.00
C419   C     0.73369   0.83305   0.15464   0.00000  Uiso   1.00
C420   C     0.93296   0.83293   0.17867   0.00000  Uiso   1.00
C421   C     0.67854   0.83279   0.14820   0.00000  Uiso   1.00
C422   C     0.98807   0.83178   0.18502   0.00000  Uiso   1.00
C423   C     0.86589   0.68785   0.13968   0.00000  Uiso   1.00
C424   C     0.79938   0.97896   0.19192   0.00000  Uiso   1.00
C425   C     0.86556   0.97798   0.14081   0.00000  Uiso   1.00
C426   C     0.80139   0.68866   0.19241   0.00000  Uiso   1.00
C427   C     0.83252   0.95736   0.16669   0.00000  Uiso   1.00
C428   C     0.83415   0.70928   0.16633   0.00000  Uiso   1.00
C429   C     0.86656   0.85902   0.02883   0.00000  Uiso   1.00
C430   C     0.80015   0.80761   0.30452   0.00000  Uiso   1.00
C431   C     0.86664   0.85912   0.31436   0.00000  Uiso   1.00
C432   C     0.80000   0.80757   0.01897   0.00000  Uiso   1.00
H433   H     0.99104   0.83392   0.11333   0.00000  Uiso   1.00
H434   H     0.67556   0.83041   0.21986   0.00000  Uiso   1.00
H435   H     0.89191   0.96054   0.12263   0.00000  Uiso   1.00
H436   H     0.77667   0.70592   0.21238   0.00000  Uiso   1.00
H437   H     0.89309   0.87953   0.05087   0.00000  Uiso   1.00
H438   H     0.77365   0.78708   0.28248   0.00000  Uiso   1.00
N439   N     0.83332   0.83332   0.28573   0.00000  Uiso   1.00
N440   N     0.83335   0.83334   0.04760   0.00000  Uiso   1.00
O441   O     0.83333   0.77225   0.20487   0.00000  Uiso   1.00
O442   O     0.83334   0.89442   0.12846   0.00000  Uiso   1.00
O443   O     0.83333   0.77226   0.12843   0.00000  Uiso   1.00
O444   O     0.83334   0.89441   0.20490   0.00000  Uiso   1.00
O445   O     0.75725   0.83333   0.19595   0.00000  Uiso   1.00
O446   O     0.90942   0.83334   0.13739   0.00000  Uiso   1.00
O447   O     0.75725   0.83334   0.11950   0.00000  Uiso   1.00
O448   O     0.90942   0.83333   0.21383   0.00000  Uiso   1.00
Zn449  Zn    0.83333   0.83333   0.21771   0.00000  Uiso   1.00
Zn450  Zn    0.83333   0.83334   0.11563   0.00000  Uiso   1.00
O451   O     0.90149   0.70941   0.11765   0.00000  Uiso   1.00
C452   C     0.88816   0.70372   0.06992   0.00000  Uiso   1.00
H453   H     0.84545   0.70921   0.05812   0.00000  Uiso   1.00
H454   H     0.89842   0.67162   0.05976   0.00000  Uiso   1.00
C455   C     0.91923   0.73499   0.04595   0.00000  Uiso   1.00
H456   H     0.96209   0.72935   0.05546   0.00000  Uiso   1.00
H457   H     0.90827   0.73159   0.00834   0.00000  Uiso   1.00
H458   H     0.91050   0.76741   0.05606   0.00000  Uiso   1.00
O459   O     0.76683   0.95832   0.21762   0.00000  Uiso   1.00
C460   C     0.71666   0.95331   0.19089   0.00000  Uiso   1.00
H461   H     0.71853   0.93054   0.16259   0.00000  Uiso   1.00
H462   H     0.70097   0.98363   0.17628   0.00000  Uiso   1.00
C463   C     0.67838   0.93649   0.22079   0.00000  Uiso   1.00
H464   H     0.67343   0.95978   0.24773   0.00000  Uiso   1.00
H465   H     0.97279   0.93023   0.19967   0.00000  Uiso   1.00
H466   H     0.69358   0.90699   0.23732   0.00000  Uiso   1.00
Cl467  Cl    0.91035   0.89312   0.29266   0.00000  Uiso   1.00
Cl468  Cl    0.75600   0.77380   0.04062   0.00000  Uiso   1.00
C469   C     0.16735   0.08675   0.49995   0.00000  Uiso   1.00
C470   C     0.16632   0.24658   0.50008   0.00000  Uiso   1.00
C471   C     0.06703   0.16639   0.48797   0.00000  Uiso   1.00
C472   C     0.26629   0.16626   0.51201   0.00000  Uiso   1.00
C473   C     0.01187   0.16613   0.48153   0.00000  Uiso   1.00
C474   C     0.32140   0.16511   0.51835   0.00000  Uiso   1.00
C475   C     0.19923   0.02118   0.47301   0.00000  Uiso   1.00
C476   C     0.13271   0.31230   0.52525   0.00000  Uiso   1.00
C477   C     0.19890   0.31131   0.47414   0.00000  Uiso   1.00
C478   C     0.13472   0.02199   0.52574   0.00000  Uiso   1.00
C479   C     0.16585   0.29070   0.50002   0.00000  Uiso   1.00
C480   C     0.16749   0.04261   0.49966   0.00000  Uiso   1.00
C481   C     0.19990   0.19235   0.36216   0.00000  Uiso   1.00
C482   C     0.13348   0.14094   0.63785   0.00000  Uiso   1.00
C483   C     0.19997   0.19245   0.64770   0.00000  Uiso   1.00
C484   C     0.13334   0.14090   0.35230   0.00000  Uiso   1.00
H485   H     0.32437   0.16725   0.44666   0.00000  Uiso   1.00
H486   H     0.00889   0.16375   0.55320   0.00000  Uiso   1.00
H487   H     0.22525   0.29387   0.45596   0.00000  Uiso   1.00
H488   H     0.11000   0.03925   0.54571   0.00000  Uiso   1.00
H489   H     0.22642   0.21286   0.38421   0.00000  Uiso   1.00
H490   H     0.10698   0.12042   0.61581   0.00000  Uiso   1.00
N491   N     0.16665   0.16666   0.61907   0.00000  Uiso   1.00
N492   N     0.16668   0.16668   0.38093   0.00000  Uiso   1.00
O493   O     0.16666   0.10558   0.53821   0.00000  Uiso   1.00
O494   O     0.16667   0.22775   0.46179   0.00000  Uiso   1.00
O495   O     0.16666   0.10559   0.46176   0.00000  Uiso   1.00
O496   O     0.16667   0.22774   0.53824   0.00000  Uiso   1.00
O497   O     0.09058   0.16666   0.52928   0.00000  Uiso   1.00
O498   O     0.24275   0.16667   0.47072   0.00000  Uiso   1.00
O499   O     0.09058   0.16667   0.45284   0.00000  Uiso   1.00
O500   O     0.24275   0.16666   0.54716   0.00000  Uiso   1.00
Zn501  Zn    0.16667   0.16666   0.55104   0.00000  Uiso   1.00
Zn502  Zn    0.16667   0.16667   0.44896   0.00000  Uiso   1.00
O503   O     0.23482   0.04275   0.45099   0.00000  Uiso   1.00
C504   C     0.22150   0.03706   0.40326   0.00000  Uiso   1.00
H505   H     0.17878   0.04254   0.39145   0.00000  Uiso   1.00
H506   H     0.23175   0.00495   0.39309   0.00000  Uiso   1.00
C507   C     0.25257   0.06832   0.37929   0.00000  Uiso   1.00
H508   H     0.29542   0.06269   0.38880   0.00000  Uiso   1.00
H509   H     0.24160   0.06492   0.34168   0.00000  Uiso   1.00
H510   H     0.24384   0.10074   0.38939   0.00000  Uiso   1.00
O511   O     0.10016   0.29165   0.55095   0.00000  Uiso   1.00
C512   C     0.04999   0.28664   0.52422   0.00000  Uiso   1.00
H513   H     0.05186   0.26387   0.49593   0.00000  Uiso   1.00
H514   H     0.03430   0.31696   0.50961   0.00000  Uiso   1.00
C515   C     0.01171   0.26982   0.55412   0.00000  Uiso   1.00
H516   H     0.00676   0.29311   0.58107   0.00000  Uiso   1.00
H517   H     0.30613   0.26357   0.53300   0.00000  Uiso   1.00
H518   H     0.02691   0.24032   0.57065   0.00000  Uiso   1.00
Cl519  Cl    0.24369   0.22646   0.62600   0.00000  Uiso   1.00
Cl520  Cl    0.08933   0.10713   0.37395   0.00000  Uiso   1.00
C521   C     0.50068   0.08675   0.49995   0.00000  Uiso   1.00
C522   C     0.49965   0.24658   0.50008   0.00000  Uiso   1.00
C523   C     0.40036   0.16639   0.48797   0.00000  Uiso   1.00
C524   C     0.59962   0.16626   0.51201   0.00000  Uiso   1.00
C525   C     0.34520   0.16613   0.48153   0.00000  Uiso   1.00
C526   C     0.65473   0.16511   0.51835   0.00000  Uiso   1.00
C527   C     0.53256   0.02118   0.47301   0.00000  Uiso   1.00
C528   C     0.46604   0.31230   0.52525   0.00000  Uiso   1.00
C529   C     0.53223   0.31131   0.47414   0.00000  Uiso   1.00
C530   C     0.46805   0.02199   0.52574   0.00000  Uiso   1.00
C531   C     0.49919   0.29070   0.50002   0.00000  Uiso   1.00
C532   C     0.50082   0.04261   0.49966   0.00000  Uiso   1.00
C533   C     0.53323   0.19235   0.36216   0.00000  Uiso   1.00
C534   C     0.46682   0.14094   0.63785   0.00000  Uiso   1.00
C535   C     0.53330   0.19245   0.64770   0.00000  Uiso   1.00
C536   C     0.46667   0.14090   0.35230   0.00000  Uiso   1.00
H537   H     0.65771   0.16725   0.44666   0.00000  Uiso   1.00
H538   H     0.34223   0.16375   0.55320   0.00000  Uiso   1.00
H539   H     0.55858   0.29387   0.45596   0.00000  Uiso   1.00
H540   H     0.44333   0.03925   0.54571   0.00000  Uiso   1.00
H541   H     0.55975   0.21286   0.38421   0.00000  Uiso   1.00
H542   H     0.44031   0.12042   0.61581   0.00000  Uiso   1.00
N543   N     0.49999   0.16666   0.61907   0.00000  Uiso   1.00
N544   N     0.50001   0.16668   0.38093   0.00000  Uiso   1.00
O545   O     0.50000   0.10558   0.53821   0.00000  Uiso   1.00
O546   O     0.50000   0.22775   0.46179   0.00000  Uiso   1.00
O547   O     0.50000   0.10559   0.46176   0.00000  Uiso   1.00
O548   O     0.50000   0.22774   0.53824   0.00000  Uiso   1.00
O549   O     0.42392   0.16666   0.52928   0.00000  Uiso   1.00
O550   O     0.57608   0.16667   0.47072   0.00000  Uiso   1.00
O551   O     0.42392   0.16667   0.45284   0.00000  Uiso   1.00
O552   O     0.57608   0.16666   0.54716   0.00000  Uiso   1.00
Zn553  Zn    0.50000   0.16666   0.55104   0.00000  Uiso   1.00
Zn554  Zn    0.50000   0.16667   0.44896   0.00000  Uiso   1.00
O555   O     0.56816   0.04275   0.45099   0.00000  Uiso   1.00
C556   C     0.55483   0.03706   0.40326   0.00000  Uiso   1.00
H557   H     0.51212   0.04254   0.39145   0.00000  Uiso   1.00
H558   H     0.56509   0.00495   0.39309   0.00000  Uiso   1.00
C559   C     0.58590   0.06832   0.37929   0.00000  Uiso   1.00
H560   H     0.62876   0.06269   0.38880   0.00000  Uiso   1.00
H561   H     0.57493   0.06492   0.34168   0.00000  Uiso   1.00
H562   H     0.57717   0.10074   0.38939   0.00000  Uiso   1.00
O563   O     0.43349   0.29165   0.55095   0.00000  Uiso   1.00
C564   C     0.38332   0.28664   0.52422   0.00000  Uiso   1.00
H565   H     0.38519   0.26387   0.49593   0.00000  Uiso   1.00
H566   H     0.36764   0.31696   0.50961   0.00000  Uiso   1.00
C567   C     0.34505   0.26982   0.55412   0.00000  Uiso   1.00
H568   H     0.34009   0.29311   0.58107   0.00000  Uiso   1.00
H569   H     0.63946   0.26357   0.53300   0.00000  Uiso   1.00
H570   H     0.36025   0.24032   0.57065   0.00000  Uiso   1.00
Cl571  Cl    0.57702   0.22646   0.62600   0.00000  Uiso   1.00
Cl572  Cl    0.42266   0.10713   0.37395   0.00000  Uiso   1.00
C573   C     0.83401   0.08675   0.49995   0.00000  Uiso   1.00
C574   C     0.83299   0.24658   0.50008   0.00000  Uiso   1.00
C575   C     0.73369   0.16639   0.48797   0.00000  Uiso   1.00
C576   C     0.93296   0.16626   0.51201   0.00000  Uiso   1.00
C577   C     0.67854   0.16613   0.48153   0.00000  Uiso   1.00
C578   C     0.98807   0.16511   0.51835   0.00000  Uiso   1.00
C579   C     0.86589   0.02118   0.47301   0.00000  Uiso   1.00
C580   C     0.79938   0.31230   0.52525   0.00000  Uiso   1.00
C581   C     0.86556   0.31131   0.47414   0.00000  Uiso   1.00
C582   C     0.80139   0.02199   0.52574   0.00000  Uiso   1.00
C583   C     0.83252   0.29070   0.50002   0.00000  Uiso   1.00
C584   C     0.83415   0.04261   0.49966   0.00000  Uiso   1.00
C585   C     0.86656   0.19235   0.36216   0.00000  Uiso   1.00
C586   C     0.80015   0.14094   0.63785   0.00000  Uiso   1.00
C587   C     0.86664   0.19245   0.64770   0.00000  Uiso   1.00
C588   C     0.80000   0.14090   0.35230   0.00000  Uiso   1.00
H589   H     0.99104   0.16725   0.44666   0.00000  Uiso   1.00
H590   H     0.67556   0.16375   0.55320   0.00000  Uiso   1.00
H591   H     0.89191   0.29387   0.45596   0.00000  Uiso   1.00
H592   H     0.77667   0.03925   0.54571   0.00000  Uiso   1.00
H593   H     0.89309   0.21286   0.38421   0.00000  Uiso   1.00
H594   H     0.77365   0.12042   0.61581   0.00000  Uiso   1.00
N595   N     0.83332   0.16666   0.61907   0.00000  Uiso   1.00
N596   N     0.83335   0.16668   0.38093   0.00000  Uiso   1.00
O597   O     0.83333   0.10558   0.53821   0.00000  Uiso   1.00
O598   O     0.83334   0.22775   0.46179   0.00000  Uiso   1.00
O599   O     0.83333   0.10559   0.46176   0.00000  Uiso   1.00
O600   O     0.83334   0.22774   0.53824   0.00000  Uiso   1.00
O601   O     0.75725   0.16666   0.52928   0.00000  Uiso   1.00
O602   O     0.90942   0.16667   0.47072   0.00000  Uiso   1.00
O603   O     0.75725   0.16667   0.45284   0.00000  Uiso   1.00
O604   O     0.90942   0.16666   0.54716   0.00000  Uiso   1.00
Zn605  Zn    0.83333   0.16666   0.55104   0.00000  Uiso   1.00
Zn606  Zn    0.83333   0.16667   0.44896   0.00000  Uiso   1.00
O607   O     0.90149   0.04275   0.45099   0.00000  Uiso   1.00
C608   C     0.88816   0.03706   0.40326   0.00000  Uiso   1.00
H609   H     0.84545   0.04254   0.39145   0.00000  Uiso   1.00
H610   H     0.89842   0.00495   0.39309   0.00000  Uiso   1.00
C611   C     0.91923   0.06832   0.37929   0.00000  Uiso   1.00
H612   H     0.96209   0.06269   0.38880   0.00000  Uiso   1.00
H613   H     0.90827   0.06492   0.34168   0.00000  Uiso   1.00
H614   H     0.91050   0.10074   0.38939   0.00000  Uiso   1.00
O615   O     0.76683   0.29165   0.55095   0.00000  Uiso   1.00
C616   C     0.71666   0.28664   0.52422   0.00000  Uiso   1.00
H617   H     0.71853   0.26387   0.49593   0.00000  Uiso   1.00
H618   H     0.70097   0.31696   0.50961   0.00000  Uiso   1.00
C619   C     0.67838   0.26982   0.55412   0.00000  Uiso   1.00
H620   H     0.67343   0.29311   0.58107   0.00000  Uiso   1.00
H621   H     0.97279   0.26357   0.53300   0.00000  Uiso   1.00
H622   H     0.69358   0.24032   0.57065   0.00000  Uiso   1.00
Cl623  Cl    0.91035   0.22646   0.62600   0.00000  Uiso   1.00
Cl624  Cl    0.75600   0.10713   0.37395   0.00000  Uiso   1.00
C625   C     0.16735   0.42009   0.49995   0.00000  Uiso   1.00
C626   C     0.16632   0.57991   0.50008   0.00000  Uiso   1.00
C627   C     0.06703   0.49972   0.48797   0.00000  Uiso   1.00
C628   C     0.26629   0.49960   0.51201   0.00000  Uiso   1.00
C629   C     0.01187   0.49946   0.48153   0.00000  Uiso   1.00
C630   C     0.32140   0.49844   0.51835   0.00000  Uiso   1.00
C631   C     0.19923   0.35451   0.47301   0.00000  Uiso   1.00
C632   C     0.13271   0.64563   0.52525   0.00000  Uiso   1.00
C633   C     0.19890   0.64465   0.47414   0.00000  Uiso   1.00
C634   C     0.13472   0.35533   0.52574   0.00000  Uiso   1.00
C635   C     0.16585   0.62403   0.50002   0.00000  Uiso   1.00
C636   C     0.16749   0.37595   0.49966   0.00000  Uiso   1.00
C637   C     0.19990   0.52568   0.36216   0.00000  Uiso   1.00
C638   C     0.13348   0.47428   0.63785   0.00000  Uiso   1.00
C639   C     0.19997   0.52578   0.64770   0.00000  Uiso   1.00
C640   C     0.13334   0.47424   0.35230   0.00000  Uiso   1.00
H641   H     0.32437   0.50059   0.44666   0.00000  Uiso   1.00
H642   H     0.00889   0.49708   0.55320   0.00000  Uiso   1.00
H643   H     0.22525   0.62720   0.45596   0.00000  Uiso   1.00
H644   H     0.11000   0.37258   0.54571   0.00000  Uiso   1.00
H645   H     0.22642   0.54619   0.38421   0.00000  Uiso   1.00
H646   H     0.10698   0.45375   0.61581   0.00000  Uiso   1.00
N647   N     0.16665   0.49999   0.61907   0.00000  Uiso   1.00
N648   N     0.16668   0.50001   0.38093   0.00000  Uiso   1.00
O649   O     0.16666   0.43892   0.53821   0.00000  Uiso   1.00
O650   O     0.16667   0.56108   0.46179   0.00000  Uiso   1.00
O651   O     0.16666   0.43893   0.46176   0.00000  Uiso   1.00
O652   O     0.16667   0.56107   0.53824   0.00000  Uiso   1.00
O653   O     0.09058   0.50000   0.52928   0.00000  Uiso   1.00
O654   O     0.24275   0.50000   0.47072   0.00000  Uiso   1.00
O655   O     0.09058   0.50000   0.45284   0.00000  Uiso   1.00
O656   O     0.24275   0.50000   0.54716   0.00000  Uiso   1.00
Zn657  Zn    0.16667   0.49999   0.55104   0.00000  Uiso   1.00
Zn658  Zn    0.16667   0.50001   0.44896   0.00000  Uiso   1.00
O659   O     0.23482   0.37608   0.45099   0.00000  Uiso   1.00
C660   C     0.22150   0.37039   0.40326   0.00000  Uiso   1.00
H661   H     0.17878   0.37588   0.39145   0.00000  Uiso   1.00
H662   H     0.23175   0.33828   0.39309   0.00000  Uiso   1.00
C663   C     0.25257   0.40166   0.37929   0.00000  Uiso   1.00
H664   H     0.29542   0.39602   0.38880   0.00000  Uiso   1.00
H665   H     0.24160   0.39826   0.34168   0.00000  Uiso   1.00
H666   H     0.24384   0.43407   0.38939   0.00000  Uiso   1.00
O667   O     0.10016   0.62498   0.55095   0.00000  Uiso   1.00
C668   C     0.04999   0.61997   0.52422   0.00000  Uiso   1.00
H669   H     0.05186   0.59720   0.49593   0.00000  Uiso   1.00
H670   H     0.03430   0.65030   0.50961   0.00000  Uiso   1.00
C671   C     0.01171   0.60315   0.55412   0.00000  Uiso   1.00
H672   H     0.00676   0.62645   0.58107   0.00000  Uiso   1.00
H673   H     0.30613   0.59690   0.53300   0.00000  Uiso   1.00
H674   H     0.02691   0.57365   0.57065   0.00000  Uiso   1.00
Cl675  Cl    0.24369   0.55979   0.62600   0.00000  Uiso   1.00
Cl676  Cl    0.08933   0.44046   0.37395   0.00000  Uiso   1.00
C677   C     0.50068   0.42009   0.49995   0.00000  Uiso   1.00
C678   C     0.49965   0.57991   0.50008   0.00000  Uiso   1.00
C679   C     0.40036   0.49972   0.48797   0.00000  Uiso   1.00
C680   C     0.59962   0.49960   0.51201   0.00000  Uiso   1.00
C681   C     0.34520   0.49946   0.48153   0.00000  Uiso   1.00
C682   C     0.65473   0.49844   0.51835   0.00000  Uiso   1.00
C683   C     0.53256   0.35451   0.47301   0.00000  Uiso   1.00
C684   C     0.46604   0.64563   0.52525   0.00000  Uiso   1.00
C685   C     0.53223   0.64465   0.47414   0.00000  Uiso   1.00
C686   C     0.46805   0.35533   0.52574   0.00000  Uiso   1.00
C687   C     0.49919   0.62403   0.50002   0.00000  Uiso   1.00
C688   C     0.50082   0.37595   0.49966   0.00000  Uiso   1.00
C689   C     0.53323   0.52568   0.36216   0.00000  Uiso   1.00
C690   C     0.46682   0.47428   0.63785   0.00000  Uiso   1.00
C691   C     0.53330   0.52578   0.64770   0.00000  Uiso   1.00
C692   C     0.46667   0.47424   0.35230   0.00000  Uiso   1.00
H693   H     0.65771   0.50059   0.44666   0.00000  Uiso   1.00
H694   H     0.34223   0.49708   0.55320   0.00000  Uiso   1.00
H695   H     0.55858   0.62720   0.45596   0.00000  Uiso   1.00
H696   H     0.44333   0.37258   0.54571   0.00000  Uiso   1.00
H697   H     0.55975   0.54619   0.38421   0.00000  Uiso   1.00
H698   H     0.44031   0.45375   0.61581   0.00000  Uiso   1.00
N699   N     0.49999   0.49999   0.61907   0.00000  Uiso   1.00
N700   N     0.50001   0.50001   0.38093   0.00000  Uiso   1.00
O701   O     0.50000   0.43892   0.53821   0.00000  Uiso   1.00
O702   O     0.50000   0.56108   0.46179   0.00000  Uiso   1.00
O703   O     0.50000   0.43893   0.46176   0.00000  Uiso   1.00
O704   O     0.50000   0.56107   0.53824   0.00000  Uiso   1.00
O705   O     0.42392   0.50000   0.52928   0.00000  Uiso   1.00
O706   O     0.57608   0.50000   0.47072   0.00000  Uiso   1.00
O707   O     0.42392   0.50000   0.45284   0.00000  Uiso   1.00
O708   O     0.57608   0.50000   0.54716   0.00000  Uiso   1.00
Zn709  Zn    0.50000   0.49999   0.55104   0.00000  Uiso   1.00
Zn710  Zn    0.50000   0.50001   0.44896   0.00000  Uiso   1.00
O711   O     0.56816   0.37608   0.45099   0.00000  Uiso   1.00
C712   C     0.55483   0.37039   0.40326   0.00000  Uiso   1.00
H713   H     0.51212   0.37588   0.39145   0.00000  Uiso   1.00
H714   H     0.56509   0.33828   0.39309   0.00000  Uiso   1.00
C715   C     0.58590   0.40166   0.37929   0.00000  Uiso   1.00
H716   H     0.62876   0.39602   0.38880   0.00000  Uiso   1.00
H717   H     0.57493   0.39826   0.34168   0.00000  Uiso   1.00
H718   H     0.57717   0.43407   0.38939   0.00000  Uiso   1.00
O719   O     0.43349   0.62498   0.55095   0.00000  Uiso   1.00
C720   C     0.38332   0.61997   0.52422   0.00000  Uiso   1.00
H721   H     0.38519   0.59720   0.49593   0.00000  Uiso   1.00
H722   H     0.36764   0.65030   0.50961   0.00000  Uiso   1.00
C723   C     0.34505   0.60315   0.55412   0.00000  Uiso   1.00
H724   H     0.34009   0.62645   0.58107   0.00000  Uiso   1.00
H725   H     0.63946   0.59690   0.53300   0.00000  Uiso   1.00
H726   H     0.36025   0.57365   0.57065   0.00000  Uiso   1.00
Cl727  Cl    0.57702   0.55979   0.62600   0.00000  Uiso   1.00
Cl728  Cl    0.42266   0.44046   0.37395   0.00000  Uiso   1.00
C729   C     0.83401   0.42009   0.49995   0.00000  Uiso   1.00
C730   C     0.83299   0.57991   0.50008   0.00000  Uiso   1.00
C731   C     0.73369   0.49972   0.48797   0.00000  Uiso   1.00
C732   C     0.93296   0.49960   0.51201   0.00000  Uiso   1.00
C733   C     0.67854   0.49946   0.48153   0.00000  Uiso   1.00
C734   C     0.98807   0.49844   0.51835   0.00000  Uiso   1.00
C735   C     0.86589   0.35451   0.47301   0.00000  Uiso   1.00
C736   C     0.79938   0.64563   0.52525   0.00000  Uiso   1.00
C737   C     0.86556   0.64465   0.47414   0.00000  Uiso   1.00
C738   C     0.80139   0.35533   0.52574   0.00000  Uiso   1.00
C739   C     0.83252   0.62403   0.50002   0.00000  Uiso   1.00
C740   C     0.83415   0.37595   0.49966   0.00000  Uiso   1.00
C741   C     0.86656   0.52568   0.36216   0.00000  Uiso   1.00
C742   C     0.80015   0.47428   0.63785   0.00000  Uiso   1.00
C743   C     0.86664   0.52578   0.64770   0.00000  Uiso   1.00
C744   C     0.80000   0.47424   0.35230   0.00000  Uiso   1.00
H745   H     0.99104   0.50059   0.44666   0.00000  Uiso   1.00
H746   H     0.67556   0.49708   0.55320   0.00000  Uiso   1.00
H747   H     0.89191   0.62720   0.45596   0.00000  Uiso   1.00
H748   H     0.77667   0.37258   0.54571   0.00000  Uiso   1.00
H749   H     0.89309   0.54619   0.38421   0.00000  Uiso   1.00
H750   H     0.77365   0.45375   0.61581   0.00000  Uiso   1.00
N751   N     0.83332   0.49999   0.61907   0.00000  Uiso   1.00
N752   N     0.83335   0.50001   0.38093   0.00000  Uiso   1.00
O753   O     0.83333   0.43892   0.53821   0.00000  Uiso   1.00
O754   O     0.83334   0.56108   0.46179   0.00000  Uiso   1.00
O755   O     0.83333   0.43893   0.46176   0.00000  Uiso   1.00
O756   O     0.83334   0.56107   0.53824   0.00000  Uiso   1.00
O757   O     0.75725   0.50000   0.52928   0.00000  Uiso   1.00
O758   O     0.90942   0.50000   0.47072   0.00000  Uiso   1.00
O759   O     0.75725   0.50000   0.45284   0.00000  Uiso   1.00
O760   O     0.90942   0.50000   0.54716   0.00000  Uiso   1.00
Zn761  Zn    0.83333   0.49999   0.55104   0.00000  Uiso   1.00
Zn762  Zn    0.83333   0.50001   0.44896   0.00000  Uiso   1.00
O763   O     0.90149   0.37608   0.45099   0.00000  Uiso   1.00
C764   C     0.88816   0.37039   0.40326   0.00000  Uiso   1.00
H765   H     0.84545   0.37588   0.39145   0.00000  Uiso   1.00
H766   H     0.89842   0.33828   0.39309   0.00000  Uiso   1.00
C767   C     0.91923   0.40166   0.37929   0.00000  Uiso   1.00
H768   H     0.96209   0.39602   0.38880   0.00000  Uiso   1.00
H769   H     0.90827   0.39826   0.34168   0.00000  Uiso   1.00
H770   H     0.91050   0.43407   0.38939   0.00000  Uiso   1.00
O771   O     0.76683   0.62498   0.55095   0.00000  Uiso   1.00
C772   C     0.71666   0.61997   0.52422   0.00000  Uiso   1.00
H773   H     0.71853   0.59720   0.49593   0.00000  Uiso   1.00
H774   H     0.70097   0.65030   0.50961   0.00000  Uiso   1.00
C775   C     0.67838   0.60315   0.55412   0.00000  Uiso   1.00
H776   H     0.67343   0.62645   0.58107   0.00000  Uiso   1.00
H777   H     0.97279   0.59690   0.53300   0.00000  Uiso   1.00
H778   H     0.69358   0.57365   0.57065   0.00000  Uiso   1.00
Cl779  Cl    0.91035   0.55979   0.62600   0.00000  Uiso   1.00
Cl780  Cl    0.75600   0.44046   0.37395   0.00000  Uiso   1.00
C781   C     0.16735   0.75342   0.49995   0.00000  Uiso   1.00
C782   C     0.16632   0.91324   0.50008   0.00000  Uiso   1.00
C783   C     0.06703   0.83305   0.48797   0.00000  Uiso   1.00
C784   C     0.26629   0.83293   0.51201   0.00000  Uiso   1.00
C785   C     0.01187   0.83279   0.48153   0.00000  Uiso   1.00
C786   C     0.32140   0.83178   0.51835   0.00000  Uiso   1.00
C787   C     0.19923   0.68785   0.47301   0.00000  Uiso   1.00
C788   C     0.13271   0.97896   0.52525   0.00000  Uiso   1.00
C789   C     0.19890   0.97798   0.47414   0.00000  Uiso   1.00
C790   C     0.13472   0.68866   0.52574   0.00000  Uiso   1.00
C791   C     0.16585   0.95736   0.50002   0.00000  Uiso   1.00
C792   C     0.16749   0.70928   0.49966   0.00000  Uiso   1.00
C793   C     0.19990   0.85902   0.36216   0.00000  Uiso   1.00
C794   C     0.13348   0.80761   0.63785   0.00000  Uiso   1.00
C795   C     0.19997   0.85912   0.64770   0.00000  Uiso   1.00
C796   C     0.13334   0.80757   0.35230   0.00000  Uiso   1.00
H797   H     0.32437   0.83392   0.44666   0.00000  Uiso   1.00
H798   H     0.00889   0.83041   0.55320   0.00000  Uiso   1.00
H799   H     0.22525   0.96054   0.45596   0.00000  Uiso   1.00
H800   H     0.11000   0.70592   0.54571   0.00000  Uiso   1.00
H801   H     0.22642   0.87953   0.38421   0.00000  Uiso   1.00
H802   H     0.10698   0.78708   0.61581   0.00000  Uiso   1.00
N803   N     0.16665   0.83332   0.61907   0.00000  Uiso   1.00
N804   N     0.16668   0.83334   0.38093   0.00000  Uiso   1.00
O805   O     0.16666   0.77225   0.53821   0.00000  Uiso   1.00
O806   O     0.16667   0.89442   0.46179   0.00000  Uiso   1.00
O807   O     0.16666   0.77226   0.46176   0.00000  Uiso   1.00
O808   O     0.16667   0.89441   0.53824   0.00000  Uiso   1.00
O809   O     0.09058   0.83333   0.52928   0.00000  Uiso   1.00
O810   O     0.24275   0.83334   0.47072   0.00000  Uiso   1.00
O811   O     0.09058   0.83334   0.45284   0.00000  Uiso   1.00
O812   O     0.24275   0.83333   0.54716   0.00000  Uiso   1.00
Zn813  Zn    0.16667   0.83333   0.55104   0.00000  Uiso   1.00
Zn814  Zn    0.16667   0.83334   0.44896   0.00000  Uiso   1.00
O815   O     0.23482   0.70941   0.45099   0.00000  Uiso   1.00
C816   C     0.22150   0.70372   0.40326   0.00000  Uiso   1.00
H817   H     0.17878   0.70921   0.39145   0.00000  Uiso   1.00
H818   H     0.23175   0.67162   0.39309   0.00000  Uiso   1.00
C819   C     0.25257   0.73499   0.37929   0.00000  Uiso   1.00
H820   H     0.29542   0.72935   0.38880   0.00000  Uiso   1.00
H821   H     0.24160   0.73159   0.34168   0.00000  Uiso   1.00
H822   H     0.24384   0.76741   0.38939   0.00000  Uiso   1.00
O823   O     0.10016   0.95832   0.55095   0.00000  Uiso   1.00
C824   C     0.04999   0.95331   0.52422   0.00000  Uiso   1.00
H825   H     0.05186   0.93054   0.49593   0.00000  Uiso   1.00
H826   H     0.03430   0.98363   0.50961   0.00000  Uiso   1.00
C827   C     0.01171   0.93649   0.55412   0.00000  Uiso   1.00
H828   H     0.00676   0.95978   0.58107   0.00000  Uiso   1.00
H829   H     0.30613   0.93023   0.53300   0.00000  Uiso   1.00
H830   H     0.02691   0.90699   0.57065   0.00000  Uiso   1.00
Cl831  Cl    0.24369   0.89312   0.62600   0.00000  Uiso   1.00
Cl832  Cl    0.08933   0.77380   0.37395   0.00000  Uiso   1.00
C833   C     0.50068   0.75342   0.49995   0.00000  Uiso   1.00
C834   C     0.49965   0.91324   0.50008   0.00000  Uiso   1.00
C835   C     0.40036   0.83305   0.48797   0.00000  Uiso   1.00
C836   C     0.59962   0.83293   0.51201   0.00000  Uiso   1.00
C837   C     0.34520   0.83279   0.48153   0.00000  Uiso   1.00
C838   C     0.65473   0.83178   0.51835   0.00000  Uiso   1.00
C839   C     0.53256   0.68785   0.47301   0.00000  Uiso   1.00
C840   C     0.46604   0.97896   0.52525   0.00000  Uiso   1.00
C841   C     0.53223   0.97798   0.47414   0.00000  Uiso   1.00
C842   C     0.46805   0.68866   0.52574   0.00000  Uiso   1.00
C843   C     0.49919   0.95736   0.50002   0.00000  Uiso   1.00
C844   C     0.50082   0.70928   0.49966   0.00000  Uiso   1.00
C845   C     0.53323   0.85902   0.36216   0.00000  Uiso   1.00
C846   C     0.46682   0.80761   0.63785   0.00000  Uiso   1.00
C847   C     0.53330   0.85912   0.64770   0.00000  Uiso   1.00
C848   C     0.46667   0.80757   0.35230   0.00000  Uiso   1.00
H849   H     0.65771   0.83392   0.44666   0.00000  Uiso   1.00
H850   H     0.34223   0.83041   0.55320   0.00000  Uiso   1.00
H851   H     0.55858   0.96054   0.45596   0.00000  Uiso   1.00
H852   H     0.44333   0.70592   0.54571   0.00000  Uiso   1.00
H853   H     0.55975   0.87953   0.38421   0.00000  Uiso   1.00
H854   H     0.44031   0.78708   0.61581   0.00000  Uiso   1.00
N855   N     0.49999   0.83332   0.61907   0.00000  Uiso   1.00
N856   N     0.50001   0.83334   0.38093   0.00000  Uiso   1.00
O857   O     0.50000   0.77225   0.53821   0.00000  Uiso   1.00
O858   O     0.50000   0.89442   0.46179   0.00000  Uiso   1.00
O859   O     0.50000   0.77226   0.46176   0.00000  Uiso   1.00
O860   O     0.50000   0.89441   0.53824   0.00000  Uiso   1.00
O861   O     0.42392   0.83333   0.52928   0.00000  Uiso   1.00
O862   O     0.57608   0.83334   0.47072   0.00000  Uiso   1.00
O863   O     0.42392   0.83334   0.45284   0.00000  Uiso   1.00
O864   O     0.57608   0.83333   0.54716   0.00000  Uiso   1.00
Zn865  Zn    0.50000   0.83333   0.55104   0.00000  Uiso   1.00
Zn866  Zn    0.50000   0.83334   0.44896   0.00000  Uiso   1.00
O867   O     0.56816   0.70941   0.45099   0.00000  Uiso   1.00
C868   C     0.55483   0.70372   0.40326   0.00000  Uiso   1.00
H869   H     0.51212   0.70921   0.39145   0.00000  Uiso   1.00
H870   H     0.56509   0.67162   0.39309   0.00000  Uiso   1.00
C871   C     0.58590   0.73499   0.37929   0.00000  Uiso   1.00
H872   H     0.62876   0.72935   0.38880   0.00000  Uiso   1.00
H873   H     0.57493   0.73159   0.34168   0.00000  Uiso   1.00
H874   H     0.57717   0.76741   0.38939   0.00000  Uiso   1.00
O875   O     0.43349   0.95832   0.55095   0.00000  Uiso   1.00
C876   C     0.38332   0.95331   0.52422   0.00000  Uiso   1.00
H877   H     0.38519   0.93054   0.49593   0.00000  Uiso   1.00
H878   H     0.36764   0.98363   0.50961   0.00000  Uiso   1.00
C879   C     0.34505   0.93649   0.55412   0.00000  Uiso   1.00
H880   H     0.34009   0.95978   0.58107   0.00000  Uiso   1.00
H881   H     0.63946   0.93023   0.53300   0.00000  Uiso   1.00
H882   H     0.36025   0.90699   0.57065   0.00000  Uiso   1.00
Cl883  Cl    0.57702   0.89312   0.62600   0.00000  Uiso   1.00
Cl884  Cl    0.42266   0.77380   0.37395   0.00000  Uiso   1.00
C885   C     0.83401   0.75342   0.49995   0.00000  Uiso   1.00
C886   C     0.83299   0.91324   0.50008   0.00000  Uiso   1.00
C887   C     0.73369   0.83305   0.48797   0.00000  Uiso   1.00
C888   C     0.93296   0.83293   0.51201   0.00000  Uiso   1.00
C889   C     0.67854   0.83279   0.48153   0.00000  Uiso   1.00
C890   C     0.98807   0.83178   0.51835   0.00000  Uiso   1.00
C891   C     0.86589   0.68785   0.47301   0.00000  Uiso   1.00
C892   C     0.79938   0.97896   0.52525   0.00000  Uiso   1.00
C893   C     0.86556   0.97798   0.47414   0.00000  Uiso   1.00
C894   C     0.80139   0.68866   0.52574   0.00000  Uiso   1.00
C895   C     0.83252   0.95736   0.50002   0.00000  Uiso   1.00
C896   C     0.83415   0.70928   0.49966   0.00000  Uiso   1.00
C897   C     0.86656   0.85902   0.36216   0.00000  Uiso   1.00
C898   C     0.80015   0.80761   0.63785   0.00000  Uiso   1.00
C899   C     0.86664   0.85912   0.64770   0.00000  Uiso   1.00
C900   C     0.80000   0.80757   0.35230   0.00000  Uiso   1.00
H901   H     0.99104   0.83392   0.44666   0.00000  Uiso   1.00
H902   H     0.67556   0.83041   0.55320   0.00000  Uiso   1.00
H903   H     0.89191   0.96054   0.45596   0.00000  Uiso   1.00
H904   H     0.77667   0.70592   0.54571   0.00000  Uiso   1.00
H905   H     0.89309   0.87953   0.38421   0.00000  Uiso   1.00
H906   H     0.77365   0.78708   0.61581   0.00000  Uiso   1.00
N907   N     0.83332   0.83332   0.61907   0.00000  Uiso   1.00
N908   N     0.83335   0.83334   0.38093   0.00000  Uiso   1.00
O909   O     0.83333   0.77225   0.53821   0.00000  Uiso   1.00
O910   O     0.83334   0.89442   0.46179   0.00000  Uiso   1.00
O911   O     0.83333   0.77226   0.46176   0.00000  Uiso   1.00
O912   O     0.83334   0.89441   0.53824   0.00000  Uiso   1.00
O913   O     0.75725   0.83333   0.52928   0.00000  Uiso   1.00
O914   O     0.90942   0.83334   0.47072   0.00000  Uiso   1.00
O915   O     0.75725   0.83334   0.45284   0.00000  Uiso   1.00
O916   O     0.90942   0.83333   0.54716   0.00000  Uiso   1.00
Zn917  Zn    0.83333   0.83333   0.55104   0.00000  Uiso   1.00
Zn918  Zn    0.83333   0.83334   0.44896   0.00000  Uiso   1.00
O919   O     0.90149   0.70941   0.45099   0.00000  Uiso   1.00
C920   C     0.88816   0.70372   0.40326   0.00000  Uiso   1.00
H921   H     0.84545   0.70921   0.39145   0.00000  Uiso   1.00
H922   H     0.89842   0.67162   0.39309   0.00000  Uiso   1.00
C923   C     0.91923   0.73499   0.37929   0.00000  Uiso   1.00
H924   H     0.96209   0.72935   0.38880   0.00000  Uiso   1.00
H925   H     0.90827   0.73159   0.34168   0.00000  Uiso   1.00
H926   H     0.91050   0.76741   0.38939   0.00000  Uiso   1.00
O927   O     0.76683   0.95832   0.55095   0.00000  Uiso   1.00
C928   C     0.71666   0.95331   0.52422   0.00000  Uiso   1.00
H929   H     0.71853   0.93054   0.49593   0.00000  Uiso   1.00
H930   H     0.70097   0.98363   0.50961   0.00000  Uiso   1.00
C931   C     0.67838   0.93649   0.55412   0.00000  Uiso   1.00
H932   H     0.67343   0.95978   0.58107   0.00000  Uiso   1.00
H933   H     0.97279   0.93023   0.53300   0.00000  Uiso   1.00
H934   H     0.69358   0.90699   0.57065   0.00000  Uiso   1.00
Cl935  Cl    0.91035   0.89312   0.62600   0.00000  Uiso   1.00
Cl936  Cl    0.75600   0.77380   0.37395   0.00000  Uiso   1.00
C937   C     0.16735   0.08675   0.83328   0.00000  Uiso   1.00
C938   C     0.16632   0.24658   0.83342   0.00000  Uiso   1.00
C939   C     0.06703   0.16639   0.82130   0.00000  Uiso   1.00
C940   C     0.26629   0.16626   0.84534   0.00000  Uiso   1.00
C941   C     0.01187   0.16613   0.81486   0.00000  Uiso   1.00
C942   C     0.32140   0.16511   0.85168   0.00000  Uiso   1.00
C943   C     0.19923   0.02118   0.80635   0.00000  Uiso   1.00
C944   C     0.13271   0.31230   0.85858   0.00000  Uiso   1.00
C945   C     0.19890   0.31131   0.80747   0.00000  Uiso   1.00
C946   C     0.13472   0.02199   0.85908   0.00000  Uiso   1.00
C947   C     0.16585   0.29070   0.83336   0.00000  Uiso   1.00
C948   C     0.16749   0.04261   0.83300   0.00000  Uiso   1.00
C949   C     0.19990   0.19235   0.69549   0.00000  Uiso   1.00
C950   C     0.13348   0.14094   0.97118   0.00000  Uiso   1.00
C951   C     0.19997   0.19245   0.98103   0.00000  Uiso   1.00
C952   C     0.13334   0.14090   0.68563   0.00000  Uiso   1.00
H953   H     0.32437   0.16725   0.77999   0.00000  Uiso   1.00
H954   H     0.00889   0.16375   0.88653   0.00000  Uiso   1.00
H955   H     0.22525   0.29387   0.78929   0.00000  Uiso   1.00
H956   H     0.11000   0.03925   0.87904   0.00000  Uiso   1.00
H957   H     0.22642   0.21286   0.71754   0.00000  Uiso   1.00
H958   H     0.10698   0.12042   0.94914   0.00000  Uiso   1.00
N959   N     0.16665   0.16666   0.95240   0.00000  Uiso   1.00
N960   N     0.16668   0.16668   0.71427   0.00000  Uiso   1.00
O961   O     0.16666   0.10558   0.87154   0.00000  Uiso   1.00
O962   O     0.16667   0.22775   0.79513   0.00000  Uiso   1.00
O963   O     0.16666   0.10559   0.79510   0.00000  Uiso   1.00
O964   O     0.16667   0.22774   0.87157   0.00000  Uiso   1.00
O965   O     0.09058   0.16666   0.86261   0.00000  Uiso   1.00
O966   O     0.24275   0.16667   0.80405   0.00000  Uiso   1.00
O967   O     0.09058   0.16667   0.78617   0.00000  Uiso   1.00
O968   O     0.24275   0.16666   0.88050   0.00000  Uiso   1.00
Zn969  Zn    0.16667   0.16666   0.88437   0.00000  Uiso   1.00
Zn970  Zn    0.16667   0.16667   0.78229   0.00000  Uiso   1.00
O971   O     0.23482   0.04275   0.78432   0.00000  Uiso   1.00
C972   C     0.22150   0.03706   0.73659   0.00000  Uiso   1.00
H973   H     0.17878   0.04254   0.72478   0.00000  Uiso   1.00
H974   H     0.23175   0.00495   0.72642   0.00000  Uiso   1.00
C975   C     0.25257   0.06832   0.71262   0.00000  Uiso   1.00
H976   H     0.29542   0.06269   0.72213   0.00000  Uiso   1.00
H977   H     0.24160   0.06492   0.67501   0.00000  Uiso   1.00
H978   H     0.24384   0.10074   0.72272   0.00000  Uiso   1.00
O979   O     0.10016   0.29165   0.88428   0.00000  Uiso   1.00
C980   C     0.04999   0.28664   0.85756   0.00000  Uiso   1.00
H981   H     0.05186   0.26387   0.82926   0.00000  Uiso   1.00
H982   H     0.03430   0.31696   0.84295   0.00000  Uiso   1.00
C983   C     0.01171   0.26982   0.88745   0.00000  Uiso   1.00
H984   H     0.00676   0.29311   0.91440   0.00000  Uiso   1.00
H985   H     0.30613   0.26357   0.86634   0.00000  Uiso   1.00
H986   H     0.02691   0.24032   0.90399   0.00000  Uiso   1.00
Cl987  Cl    0.24369   0.22646   0.95933   0.00000  Uiso   1.00
Cl988  Cl    0.08933   0.10713   0.70728   0.00000  Uiso   1.00
C989   C     0.50068   0.08675   0.83328   0.00000  Uiso   1.00
C990   C     0.49965   0.24658   0.83342   0.00000  Uiso   1.00
C991   C     0.40036   0.16639   0.82130   0.00000  Uiso   1.00
C992   C     0.59962   0.16626   0.84534   0.00000  Uiso   1.00
C993   C     0.34520   0.16613   0.81486   0.00000  Uiso   1.00
C994   C     0.65473   0.16511   0.85168   0.00000  Uiso   1.00
C995   C     0.53256   0.02118   0.80635   0.00000  Uiso   1.00
C996   C     0.46604   0.31230   0.85858   0.00000  Uiso   1.00
C997   C     0.53223   0.31131   0.80747   0.00000  Uiso   1.00
C998   C     0.46805   0.02199   0.85908   0.00000  Uiso   1.00
C999   C     0.49919   0.29070   0.83336   0.00000  Uiso   1.00
C1000  C     0.50082   0.04261   0.83300   0.00000  Uiso   1.00
C1001  C     0.53323   0.19235   0.69549   0.00000  Uiso   1.00
C1002  C     0.46682   0.14094   0.97118   0.00000  Uiso   1.00
C1003  C     0.53330   0.19245   0.98103   0.00000  Uiso   1.00
C1004  C     0.46667   0.14090   0.68563   0.00000  Uiso   1.00
H1005  H     0.65771   0.16725   0.77999   0.00000  Uiso   1.00
H1006  H     0.34223   0.16375   0.88653   0.00000  Uiso   1.00
H1007  H     0.55858   0.29387   0.78929   0.00000  Uiso   1.00
H1008  H     0.44333   0.03925   0.87904   0.00000  Uiso   1.00
H1009  H     0.55975   0.21286   0.71754   0.00000  Uiso   1.00
H1010  H     0.44031   0.12042   0.94914   0.00000  Uiso   1.00
N1011  N     0.49999   0.16666   0.95240   0.00000  Uiso   1.00
N1012  N     0.50001   0.16668   0.71427   0.00000  Uiso   1.00
O1013  O     0.50000   0.10558   0.87154   0.00000  Uiso   1.00
O1014  O     0.50000   0.22775   0.79513   0.00000  Uiso   1.00
O1015  O     0.50000   0.10559   0.79510   0.00000  Uiso   1.00
O1016  O     0.50000   0.22774   0.87157   0.00000  Uiso   1.00
O1017  O     0.42392   0.16666   0.86261   0.00000  Uiso   1.00
O1018  O     0.57608   0.16667   0.80405   0.00000  Uiso   1.00
O1019  O     0.42392   0.16667   0.78617   0.00000  Uiso   1.00
O1020  O     0.57608   0.16666   0.88050   0.00000  Uiso   1.00
Zn1021 Zn    0.50000   0.16666   0.88437   0.00000  Uiso   1.00
Zn1022 Zn    0.50000   0.16667   0.78229   0.00000  Uiso   1.00
O1023  O     0.56816   0.04275   0.78432   0.00000  Uiso   1.00
C1024  C     0.55483   0.03706   0.73659   0.00000  Uiso   1.00
H1025  H     0.51212   0.04254   0.72478   0.00000  Uiso   1.00
H1026  H     0.56509   0.00495   0.72642   0.00000  Uiso   1.00
C1027  C     0.58590   0.06832   0.71262   0.00000  Uiso   1.00
H1028  H     0.62876   0.06269   0.72213   0.00000  Uiso   1.00
H1029  H     0.57493   0.06492   0.67501   0.00000  Uiso   1.00
H1030  H     0.57717   0.10074   0.72272   0.00000  Uiso   1.00
O1031  O     0.43349   0.29165   0.88428   0.00000  Uiso   1.00
C1032  C     0.38332   0.28664   0.85756   0.00000  Uiso   1.00
H1033  H     0.38519   0.26387   0.82926   0.00000  Uiso   1.00
H1034  H     0.36764   0.31696   0.84295   0.00000  Uiso   1.00
C1035  C     0.34505   0.26982   0.88745   0.00000  Uiso   1.00
H1036  H     0.34009   0.29311   0.91440   0.00000  Uiso   1.00
H1037  H     0.63946   0.26357   0.86634   0.00000  Uiso   1.00
H1038  H     0.36025   0.24032   0.90399   0.00000  Uiso   1.00
Cl1039 Cl    0.57702   0.22646   0.95933   0.00000  Uiso   1.00
Cl1040 Cl    0.42266   0.10713   0.70728   0.00000  Uiso   1.00
C1041  C     0.83401   0.08675   0.83328   0.00000  Uiso   1.00
C1042  C     0.83299   0.24658   0.83342   0.00000  Uiso   1.00
C1043  C     0.73369   0.16639   0.82130   0.00000  Uiso   1.00
C1044  C     0.93296   0.16626   0.84534   0.00000  Uiso   1.00
C1045  C     0.67854   0.16613   0.81486   0.00000  Uiso   1.00
C1046  C     0.98807   0.16511   0.85168   0.00000  Uiso   1.00
C1047  C     0.86589   0.02118   0.80635   0.00000  Uiso   1.00
C1048  C     0.79938   0.31230   0.85858   0.00000  Uiso   1.00
C1049  C     0.86556   0.31131   0.80747   0.00000  Uiso   1.00
C1050  C     0.80139   0.02199   0.85908   0.00000  Uiso   1.00
C1051  C     0.83252   0.29070   0.83336   0.00000  Uiso   1.00
C1052  C     0.83415   0.04261   0.83300   0.00000  Uiso   1.00
C1053  C     0.86656   0.19235   0.69549   0.00000  Uiso   1.00
C1054  C     0.80015   0.14094   0.97118   0.00000  Uiso   1.00
C1055  C     0.86664   0.19245   0.98103   0.00000  Uiso   1.00
C1056  C     0.80000   0.14090   0.68563   0.00000  Uiso   1.00
H1057  H     0.99104   0.16725   0.77999   0.00000  Uiso   1.00
H1058  H     0.67556   0.16375   0.88653   0.00000  Uiso   1.00
H1059  H     0.89191   0.29387   0.78929   0.00000  Uiso   1.00
H1060  H     0.77667   0.03925   0.87904   0.00000  Uiso   1.00
H1061  H     0.89309   0.21286   0.71754   0.00000  Uiso   1.00
H1062  H     0.77365   0.12042   0.94914   0.00000  Uiso   1.00
N1063  N     0.83332   0.16666   0.95240   0.00000  Uiso   1.00
N1064  N     0.83335   0.16668   0.71427   0.00000  Uiso   1.00
O1065  O     0.83333   0.10558   0.87154   0.00000  Uiso   1.00
O1066  O     0.83334   0.22775   0.79513   0.00000  Uiso   1.00
O1067  O     0.83333   0.10559   0.79510   0.00000  Uiso   1.00
O1068  O     0.83334   0.22774   0.87157   0.00000  Uiso   1.00
O1069  O     0.75725   0.16666   0.86261   0.00000  Uiso   1.00
O1070  O     0.90942   0.16667   0.80405   0.00000  Uiso   1.00
O1071  O     0.75725   0.16667   0.78617   0.00000  Uiso   1.00
O1072  O     0.90942   0.16666   0.88050   0.00000  Uiso   1.00
Zn1073 Zn    0.83333   0.16666   0.88437   0.00000  Uiso   1.00
Zn1074 Zn    0.83333   0.16667   0.78229   0.00000  Uiso   1.00
O1075  O     0.90149   0.04275   0.78432   0.00000  Uiso   1.00
C1076  C     0.88816   0.03706   0.73659   0.00000  Uiso   1.00
H1077  H     0.84545   0.04254   0.72478   0.00000  Uiso   1.00
H1078  H     0.89842   0.00495   0.72642   0.00000  Uiso   1.00
C1079  C     0.91923   0.06832   0.71262   0.00000  Uiso   1.00
H1080  H     0.96209   0.06269   0.72213   0.00000  Uiso   1.00
H1081  H     0.90827   0.06492   0.67501   0.00000  Uiso   1.00
H1082  H     0.91050   0.10074   0.72272   0.00000  Uiso   1.00
O1083  O     0.76683   0.29165   0.88428   0.00000  Uiso   1.00
C1084  C     0.71666   0.28664   0.85756   0.00000  Uiso   1.00
H1085  H     0.71853   0.26387   0.82926   0.00000  Uiso   1.00
H1086  H     0.70097   0.31696   0.84295   0.00000  Uiso   1.00
C1087  C     0.67838   0.26982   0.88745   0.00000  Uiso   1.00
H1088  H     0.67343   0.29311   0.91440   0.00000  Uiso   1.00
H1089  H     0.97279   0.26357   0.86634   0.00000  Uiso   1.00
H1090  H     0.69358   0.24032   0.90399   0.00000  Uiso   1.00
Cl1091 Cl    0.91035   0.22646   0.95933   0.00000  Uiso   1.00
Cl1092 Cl    0.75600   0.10713   0.70728   0.00000  Uiso   1.00
C1093  C     0.16735   0.42009   0.83328   0.00000  Uiso   1.00
C1094  C     0.16632   0.57991   0.83342   0.00000  Uiso   1.00
C1095  C     0.06703   0.49972   0.82130   0.00000  Uiso   1.00
C1096  C     0.26629   0.49960   0.84534   0.00000  Uiso   1.00
C1097  C     0.01187   0.49946   0.81486   0.00000  Uiso   1.00
C1098  C     0.32140   0.49844   0.85168   0.00000  Uiso   1.00
C1099  C     0.19923   0.35451   0.80635   0.00000  Uiso   1.00
C1100  C     0.13271   0.64563   0.85858   0.00000  Uiso   1.00
C1101  C     0.19890   0.64465   0.80747   0.00000  Uiso   1.00
C1102  C     0.13472   0.35533   0.85908   0.00000  Uiso   1.00
C1103  C     0.16585   0.62403   0.83336   0.00000  Uiso   1.00
C1104  C     0.16749   0.37595   0.83300   0.00000  Uiso   1.00
C1105  C     0.19990   0.52568   0.69549   0.00000  Uiso   1.00
C1106  C     0.13348   0.47428   0.97118   0.00000  Uiso   1.00
C1107  C     0.19997   0.52578   0.98103   0.00000  Uiso   1.00
C1108  C     0.13334   0.47424   0.68563   0.00000  Uiso   1.00
H1109  H     0.32437   0.50059   0.77999   0.00000  Uiso   1.00
H1110  H     0.00889   0.49708   0.88653   0.00000  Uiso   1.00
H1111  H     0.22525   0.62720   0.78929   0.00000  Uiso   1.00
H1112  H     0.11000   0.37258   0.87904   0.00000  Uiso   1.00
H1113  H     0.22642   0.54619   0.71754   0.00000  Uiso   1.00
H1114  H     0.10698   0.45375   0.94914   0.00000  Uiso   1.00
N1115  N     0.16665   0.49999   0.95240   0.00000  Uiso   1.00
N1116  N     0.16668   0.50001   0.71427   0.00000  Uiso   1.00
O1117  O     0.16666   0.43892   0.87154   0.00000  Uiso   1.00
O1118  O     0.16667   0.56108   0.79513   0.00000  Uiso   1.00
O1119  O     0.16666   0.43893   0.79510   0.00000  Uiso   1.00
O1120  O     0.16667   0.56107   0.87157   0.00000  Uiso   1.00
O1121  O     0.09058   0.50000   0.86261   0.00000  Uiso   1.00
O1122  O     0.24275   0.50000   0.80405   0.00000  Uiso   1.00
O1123  O     0.09058   0.50000   0.78617   0.00000  Uiso   1.00
O1124  O     0.24275   0.50000   0.88050   0.00000  Uiso   1.00
Zn1125 Zn    0.16667   0.49999   0.88437   0.00000  Uiso   1.00
Zn1126 Zn    0.16667   0.50001   0.78229   0.00000  Uiso   1.00
O1127  O     0.23482   0.37608   0.78432   0.00000  Uiso   1.00
C1128  C     0.22150   0.37039   0.73659   0.00000  Uiso   1.00
H1129  H     0.17878   0.37588   0.72478   0.00000  Uiso   1.00
H1130  H     0.23175   0.33828   0.72642   0.00000  Uiso   1.00
C1131  C     0.25257   0.40166   0.71262   0.00000  Uiso   1.00
H1132  H     0.29542   0.39602   0.72213   0.00000  Uiso   1.00
H1133  H     0.24160   0.39826   0.67501   0.00000  Uiso   1.00
H1134  H     0.24384   0.43407   0.72272   0.00000  Uiso   1.00
O1135  O     0.10016   0.62498   0.88428   0.00000  Uiso   1.00
C1136  C     0.04999   0.61997   0.85756   0.00000  Uiso   1.00
H1137  H     0.05186   0.59720   0.82926   0.00000  Uiso   1.00
H1138  H     0.03430   0.65030   0.84295   0.00000  Uiso   1.00
C1139  C     0.01171   0.60315   0.88745   0.00000  Uiso   1.00
H1140  H     0.00676   0.62645   0.91440   0.00000  Uiso   1.00
H1141  H     0.30613   0.59690   0.86634   0.00000  Uiso   1.00
H1142  H     0.02691   0.57365   0.90399   0.00000  Uiso   1.00
Cl1143 Cl    0.24369   0.55979   0.95933   0.00000  Uiso   1.00
Cl1144 Cl    0.08933   0.44046   0.70728   0.00000  Uiso   1.00
C1145  C     0.50068   0.42009   0.83328   0.00000  Uiso   1.00
C1146  C     0.49965   0.57991   0.83342   0.00000  Uiso   1.00
C1147  C     0.40036   0.49972   0.82130   0.00000  Uiso   1.00
C1148  C     0.59962   0.49960   0.84534   0.00000  Uiso   1.00
C1149  C     0.34520   0.49946   0.81486   0.00000  Uiso   1.00
C1150  C     0.65473   0.49844   0.85168   0.00000  Uiso   1.00
C1151  C     0.53256   0.35451   0.80635   0.00000  Uiso   1.00
C1152  C     0.46604   0.64563   0.85858   0.00000  Uiso   1.00
C1153  C     0.53223   0.64465   0.80747   0.00000  Uiso   1.00
C1154  C     0.46805   0.35533   0.85908   0.00000  Uiso   1.00
C1155  C     0.49919   0.62403   0.83336   0.00000  Uiso   1.00
C1156  C     0.50082   0.37595   0.83300   0.00000  Uiso   1.00
C1157  C     0.53323   0.52568   0.69549   0.00000  Uiso   1.00
C1158  C     0.46682   0.47428   0.97118   0.00000  Uiso   1.00
C1159  C     0.53330   0.52578   0.98103   0.00000  Uiso   1.00
C1160  C     0.46667   0.47424   0.68563   0.00000  Uiso   1.00
H1161  H     0.65771   0.50059   0.77999   0.00000  Uiso   1.00
H1162  H     0.34223   0.49708   0.88653   0.00000  Uiso   1.00
H1163  H     0.55858   0.62720   0.78929   0.00000  Uiso   1.00
H1164  H     0.44333   0.37258   0.87904   0.00000  Uiso   1.00
H1165  H     0.55975   0.54619   0.71754   0.00000  Uiso   1.00
H1166  H     0.44031   0.45375   0.94914   0.00000  Uiso   1.00
N1167  N     0.49999   0.49999   0.95240   0.00000  Uiso   1.00
N1168  N     0.50001   0.50001   0.71427   0.00000  Uiso   1.00
O1169  O     0.50000   0.43892   0.87154   0.00000  Uiso   1.00
O1170  O     0.50000   0.56108   0.79513   0.00000  Uiso   1.00
O1171  O     0.50000   0.43893   0.79510   0.00000  Uiso   1.00
O1172  O     0.50000   0.56107   0.87157   0.00000  Uiso   1.00
O1173  O     0.42392   0.50000   0.86261   0.00000  Uiso   1.00
O1174  O     0.57608   0.50000   0.80405   0.00000  Uiso   1.00
O1175  O     0.42392   0.50000   0.78617   0.00000  Uiso   1.00
O1176  O     0.57608   0.50000   0.88050   0.00000  Uiso   1.00
Zn1177 Zn    0.50000   0.49999   0.88437   0.00000  Uiso   1.00
Zn1178 Zn    0.50000   0.50001   0.78229   0.00000  Uiso   1.00
O1179  O     0.56816   0.37608   0.78432   0.00000  Uiso   1.00
C1180  C     0.55483   0.37039   0.73659   0.00000  Uiso   1.00
H1181  H     0.51212   0.37588   0.72478   0.00000  Uiso   1.00
H1182  H     0.56509   0.33828   0.72642   0.00000  Uiso   1.00
C1183  C     0.58590   0.40166   0.71262   0.00000  Uiso   1.00
H1184  H     0.62876   0.39602   0.72213   0.00000  Uiso   1.00
H1185  H     0.57493   0.39826   0.67501   0.00000  Uiso   1.00
H1186  H     0.57717   0.43407   0.72272   0.00000  Uiso   1.00
O1187  O     0.43349   0.62498   0.88428   0.00000  Uiso   1.00
C1188  C     0.38332   0.61997   0.85756   0.00000  Uiso   1.00
H1189  H     0.38519   0.59720   0.82926   0.00000  Uiso   1.00
H1190  H     0.36764   0.65030   0.84295   0.00000  Uiso   1.00
C1191  C     0.34505   0.60315   0.88745   0.00000  Uiso   1.00
H1192  H     0.34009   0.62645   0.91440   0.00000  Uiso   1.00
H1193  H     0.63946   0.59690   0.86634   0.00000  Uiso   1.00
H1194  H     0.36025   0.57365   0.90399   0.00000  Uiso   1.00
Cl1195 Cl    0.57702   0.55979   0.95933   0.00000  Uiso   1.00
Cl1196 Cl    0.42266   0.44046   0.70728   0.00000  Uiso   1.00
C1197  C     0.83401   0.42009   0.83328   0.00000  Uiso   1.00
C1198  C     0.83299   0.57991   0.83342   0.00000  Uiso   1.00
C1199  C     0.73369   0.49972   0.82130   0.00000  Uiso   1.00
C1200  C     0.93296   0.49960   0.84534   0.00000  Uiso   1.00
C1201  C     0.67854   0.49946   0.81486   0.00000  Uiso   1.00
C1202  C     0.98807   0.49844   0.85168   0.00000  Uiso   1.00
C1203  C     0.86589   0.35451   0.80635   0.00000  Uiso   1.00
C1204  C     0.79938   0.64563   0.85858   0.00000  Uiso   1.00
C1205  C     0.86556   0.64465   0.80747   0.00000  Uiso   1.00
C1206  C     0.80139   0.35533   0.85908   0.00000  Uiso   1.00
C1207  C     0.83252   0.62403   0.83336   0.00000  Uiso   1.00
C1208  C     0.83415   0.37595   0.83300   0.00000  Uiso   1.00
C1209  C     0.86656   0.52568   0.69549   0.00000  Uiso   1.00
C1210  C     0.80015   0.47428   0.97118   0.00000  Uiso   1.00
C1211  C     0.86664   0.52578   0.98103   0.00000  Uiso   1.00
C1212  C     0.80000   0.47424   0.68563   0.00000  Uiso   1.00
H1213  H     0.99104   0.50059   0.77999   0.00000  Uiso   1.00
H1214  H     0.67556   0.49708   0.88653   0.00000  Uiso   1.00
H1215  H     0.89191   0.62720   0.78929   0.00000  Uiso   1.00
H1216  H     0.77667   0.37258   0.87904   0.00000  Uiso   1.00
H1217  H     0.89309   0.54619   0.71754   0.00000  Uiso   1.00
H1218  H     0.77365   0.45375   0.94914   0.00000  Uiso   1.00
N1219  N     0.83332   0.49999   0.95240   0.00000  Uiso   1.00
N1220  N     0.83335   0.50001   0.71427   0.00000  Uiso   1.00
O1221  O     0.83333   0.43892   0.87154   0.00000  Uiso   1.00
O1222  O     0.83334   0.56108   0.79513   0.00000  Uiso   1.00
O1223  O     0.83333   0.43893   0.79510   0.00000  Uiso   1.00
O1224  O     0.83334   0.56107   0.87157   0.00000  Uiso   1.00
O1225  O     0.75725   0.50000   0.86261   0.00000  Uiso   1.00
O1226  O     0.90942   0.50000   0.80405   0.00000  Uiso   1.00
O1227  O     0.75725   0.50000   0.78617   0.00000  Uiso   1.00
O1228  O     0.90942   0.50000   0.88050   0.00000  Uiso   1.00
Zn1229 Zn    0.83333   0.49999   0.88437   0.00000  Uiso   1.00
Zn1230 Zn    0.83333   0.50001   0.78229   0.00000  Uiso   1.00
O1231  O     0.90149   0.37608   0.78432   0.00000  Uiso   1.00
C1232  C     0.88816   0.37039   0.73659   0.00000  Uiso   1.00
H1233  H     0.84545   0.37588   0.72478   0.00000  Uiso   1.00
H1234  H     0.89842   0.33828   0.72642   0.00000  Uiso   1.00
C1235  C     0.91923   0.40166   0.71262   0.00000  Uiso   1.00
H1236  H     0.96209   0.39602   0.72213   0.00000  Uiso   1.00
H1237  H     0.90827   0.39826   0.67501   0.00000  Uiso   1.00
H1238  H     0.91050   0.43407   0.72272   0.00000  Uiso   1.00
O1239  O     0.76683   0.62498   0.88428   0.00000  Uiso   1.00
C1240  C     0.71666   0.61997   0.85756   0.00000  Uiso   1.00
H1241  H     0.71853   0.59720   0.82926   0.00000  Uiso   1.00
H1242  H     0.70097   0.65030   0.84295   0.00000  Uiso   1.00
C1243  C     0.67838   0.60315   0.88745   0.00000  Uiso   1.00
H1244  H     0.67343   0.62645   0.91440   0.00000  Uiso   1.00
H1245  H     0.97279   0.59690   0.86634   0.00000  Uiso   1.00
H1246  H     0.69358   0.57365   0.90399   0.00000  Uiso   1.00
Cl1247 Cl    0.91035   0.55979   0.95933   0.00000  Uiso   1.00
Cl1248 Cl    0.75600   0.44046   0.70728   0.00000  Uiso   1.00
C1249  C     0.16735   0.75342   0.83328   0.00000  Uiso   1.00
C1250  C     0.16632   0.91324   0.83342   0.00000  Uiso   1.00
C1251  C     0.06703   0.83305   0.82130   0.00000  Uiso   1.00
C1252  C     0.26629   0.83293   0.84534   0.00000  Uiso   1.00
C1253  C     0.01187   0.83279   0.81486   0.00000  Uiso   1.00
C1254  C     0.32140   0.83178   0.85168   0.00000  Uiso   1.00
C1255  C     0.19923   0.68785   0.80635   0.00000  Uiso   1.00
C1256  C     0.13271   0.97896   0.85858   0.00000  Uiso   1.00
C1257  C     0.19890   0.97798   0.80747   0.00000  Uiso   1.00
C1258  C     0.13472   0.68866   0.85908   0.00000  Uiso   1.00
C1259  C     0.16585   0.95736   0.83336   0.00000  Uiso   1.00
C1260  C     0.16749   0.70928   0.83300   0.00000  Uiso   1.00
C1261  C     0.19990   0.85902   0.69549   0.00000  Uiso   1.00
C1262  C     0.13348   0.80761   0.97118   0.00000  Uiso   1.00
C1263  C     0.19997   0.85912   0.98103   0.00000  Uiso   1.00
C1264  C     0.13334   0.80757   0.68563   0.00000  Uiso   1.00
H1265  H     0.32437   0.83392   0.77999   0.00000  Uiso   1.00
H1266  H     0.00889   0.83041   0.88653   0.00000  Uiso   1.00
H1267  H     0.22525   0.96054   0.78929   0.00000  Uiso   1.00
H1268  H     0.11000   0.70592   0.87904   0.00000  Uiso   1.00
H1269  H     0.22642   0.87953   0.71754   0.00000  Uiso   1.00
H1270  H     0.10698   0.78708   0.94914   0.00000  Uiso   1.00
N1271  N     0.16665   0.83332   0.95240   0.00000  Uiso   1.00
N1272  N     0.16668   0.83334   0.71427   0.00000  Uiso   1.00
O1273  O     0.16666   0.77225   0.87154   0.00000  Uiso   1.00
O1274  O     0.16667   0.89442   0.79513   0.00000  Uiso   1.00
O1275  O     0.16666   0.77226   0.79510   0.00000  Uiso   1.00
O1276  O     0.16667   0.89441   0.87157   0.00000  Uiso   1.00
O1277  O     0.09058   0.83333   0.86261   0.00000  Uiso   1.00
O1278  O     0.24275   0.83334   0.80405   0.00000  Uiso   1.00
O1279  O     0.09058   0.83334   0.78617   0.00000  Uiso   1.00
O1280  O     0.24275   0.83333   0.88050   0.00000  Uiso   1.00
Zn1281 Zn    0.16667   0.83333   0.88437   0.00000  Uiso   1.00
Zn1282 Zn    0.16667   0.83334   0.78229   0.00000  Uiso   1.00
O1283  O     0.23482   0.70941   0.78432   0.00000  Uiso   1.00
C1284  C     0.22150   0.70372   0.73659   0.00000  Uiso   1.00
H1285  H     0.17878   0.70921   0.72478   0.00000  Uiso   1.00
H1286  H     0.23175   0.67162   0.72642   0.00000  Uiso   1.00
C1287  C     0.25257   0.73499   0.71262   0.00000  Uiso   1.00
H1288  H     0.29542   0.72935   0.72213   0.00000  Uiso   1.00
H1289  H     0.24160   0.73159   0.67501   0.00000  Uiso   1.00
H1290  H     0.24384   0.76741   0.72272   0.00000  Uiso   1.00
O1291  O     0.10016   0.95832   0.88428   0.00000  Uiso   1.00
C1292  C     0.04999   0.95331   0.85756   0.00000  Uiso   1.00
H1293  H     0.05186   0.93054   0.82926   0.00000  Uiso   1.00
H1294  H     0.03430   0.98363   0.84295   0.00000  Uiso   1.00
C1295  C     0.01171   0.93649   0.88745   0.00000  Uiso   1.00
H1296  H     0.00676   0.95978   0.91440   0.00000  Uiso   1.00
H1297  H     0.30613   0.93023   0.86634   0.00000  Uiso   1.00
H1298  H     0.02691   0.90699   0.90399   0.00000  Uiso   1.00
Cl1299 Cl    0.24369   0.89312   0.95933   0.00000  Uiso   1.00
Cl1300 Cl    0.08933   0.77380   0.70728   0.00000  Uiso   1.00
C1301  C     0.50068   0.75342   0.83328   0.00000  Uiso   1.00
C1302  C     0.49965   0.91324   0.83342   0.00000  Uiso   1.00
C1303  C     0.40036   0.83305   0.82130   0.00000  Uiso   1.00
C1304  C     0.59962   0.83293   0.84534   0.00000  Uiso   1.00
C1305  C     0.34520   0.83279   0.81486   0.00000  Uiso   1.00
C1306  C     0.65473   0.83178   0.85168   0.00000  Uiso   1.00
C1307  C     0.53256   0.68785   0.80635   0.00000  Uiso   1.00
C1308  C     0.46604   0.97896   0.85858   0.00000  Uiso   1.00
C1309  C     0.53223   0.97798   0.80747   0.00000  Uiso   1.00
C1310  C     0.46805   0.68866   0.85908   0.00000  Uiso   1.00
C1311  C     0.49919   0.95736   0.83336   0.00000  Uiso   1.00
C1312  C     0.50082   0.70928   0.83300   0.00000  Uiso   1.00
C1313  C     0.53323   0.85902   0.69549   0.00000  Uiso   1.00
C1314  C     0.46682   0.80761   0.97118   0.00000  Uiso   1.00
C1315  C     0.53330   0.85912   0.98103   0.00000  Uiso   1.00
C1316  C     0.46667   0.80757   0.68563   0.00000  Uiso   1.00
H1317  H     0.65771   0.83392   0.77999   0.00000  Uiso   1.00
H1318  H     0.34223   0.83041   0.88653   0.00000  Uiso   1.00
H1319  H     0.55858   0.96054   0.78929   0.00000  Uiso   1.00
H1320  H     0.44333   0.70592   0.87904   0.00000  Uiso   1.00
H1321  H     0.55975   0.87953   0.71754   0.00000  Uiso   1.00
H1322  H     0.44031   0.78708   0.94914   0.00000  Uiso   1.00
N1323  N     0.49999   0.83332   0.95240   0.00000  Uiso   1.00
N1324  N     0.50001   0.83334   0.71427   0.00000  Uiso   1.00
O1325  O     0.50000   0.77225   0.87154   0.00000  Uiso   1.00
O1326  O     0.50000   0.89442   0.79513   0.00000  Uiso   1.00
O1327  O     0.50000   0.77226   0.79510   0.00000  Uiso   1.00
O1328  O     0.50000   0.89441   0.87157   0.00000  Uiso   1.00
O1329  O     0.42392   0.83333   0.86261   0.00000  Uiso   1.00
O1330  O     0.57608   0.83334   0.80405   0.00000  Uiso   1.00
O1331  O     0.42392   0.83334   0.78617   0.00000  Uiso   1.00
O1332  O     0.57608   0.83333   0.88050   0.00000  Uiso   1.00
Zn1333 Zn    0.50000   0.83333   0.88437   0.00000  Uiso   1.00
Zn1334 Zn    0.50000   0.83334   0.78229   0.00000  Uiso   1.00
O1335  O     0.56816   0.70941   0.78432   0.00000  Uiso   1.00
C1336  C     0.55483   0.70372   0.73659   0.00000  Uiso   1.00
H1337  H     0.51212   0.70921   0.72478   0.00000  Uiso   1.00
H1338  H     0.56509   0.67162   0.72642   0.00000  Uiso   1.00
C1339  C     0.58590   0.73499   0.71262   0.00000  Uiso   1.00
H1340  H     0.62876   0.72935   0.72213   0.00000  Uiso   1.00
H1341  H     0.57493   0.73159   0.67501   0.00000  Uiso   1.00
H1342  H     0.57717   0.76741   0.72272   0.00000  Uiso   1.00
O1343  O     0.43349   0.95832   0.88428   0.00000  Uiso   1.00
C1344  C     0.38332   0.95331   0.85756   0.00000  Uiso   1.00
H1345  H     0.38519   0.93054   0.82926   0.00000  Uiso   1.00
H1346  H     0.36764   0.98363   0.84295   0.00000  Uiso   1.00
C1347  C     0.34505   0.93649   0.88745   0.00000  Uiso   1.00
H1348  H     0.34009   0.95978   0.91440   0.00000  Uiso   1.00
H1349  H     0.63946   0.93023   0.86634   0.00000  Uiso   1.00
H1350  H     0.36025   0.90699   0.90399   0.00000  Uiso   1.00
Cl1351 Cl    0.57702   0.89312   0.95933   0.00000  Uiso   1.00
Cl1352 Cl    0.42266   0.77380   0.70728   0.00000  Uiso   1.00
C1353  C     0.83401   0.75342   0.83328   0.00000  Uiso   1.00
C1354  C     0.83299   0.91324   0.83342   0.00000  Uiso   1.00
C1355  C     0.73369   0.83305   0.82130   0.00000  Uiso   1.00
C1356  C     0.93296   0.83293   0.84534   0.00000  Uiso   1.00
C1357  C     0.67854   0.83279   0.81486   0.00000  Uiso   1.00
C1358  C     0.98807   0.83178   0.85168   0.00000  Uiso   1.00
C1359  C     0.86589   0.68785   0.80635   0.00000  Uiso   1.00
C1360  C     0.79938   0.97896   0.85858   0.00000  Uiso   1.00
C1361  C     0.86556   0.97798   0.80747   0.00000  Uiso   1.00
C1362  C     0.80139   0.68866   0.85908   0.00000  Uiso   1.00
C1363  C     0.83252   0.95736   0.83336   0.00000  Uiso   1.00
C1364  C     0.83415   0.70928   0.83300   0.00000  Uiso   1.00
C1365  C     0.86656   0.85902   0.69549   0.00000  Uiso   1.00
C1366  C     0.80015   0.80761   0.97118   0.00000  Uiso   1.00
C1367  C     0.86664   0.85912   0.98103   0.00000  Uiso   1.00
C1368  C     0.80000   0.80757   0.68563   0.00000  Uiso   1.00
H1369  H     0.99104   0.83392   0.77999   0.00000  Uiso   1.00
H1370  H     0.67556   0.83041   0.88653   0.00000  Uiso   1.00
H1371  H     0.89191   0.96054   0.78929   0.00000  Uiso   1.00
H1372  H     0.77667   0.70592   0.87904   0.00000  Uiso   1.00
H1373  H     0.89309   0.87953   0.71754   0.00000  Uiso   1.00
H1374  H     0.77365   0.78708   0.94914   0.00000  Uiso   1.00
N1375  N     0.83332   0.83332   0.95240   0.00000  Uiso   1.00
N1376  N     0.83335   0.83334   0.71427   0.00000  Uiso   1.00
O1377  O     0.83333   0.77225   0.87154   0.00000  Uiso   1.00
O1378  O     0.83334   0.89442   0.79513   0.00000  Uiso   1.00
O1379  O     0.83333   0.77226   0.79510   0.00000  Uiso   1.00
O1380  O     0.83334   0.89441   0.87157   0.00000  Uiso   1.00
O1381  O     0.75725   0.83333   0.86261   0.00000  Uiso   1.00
O1382  O     0.90942   0.83334   0.80405   0.00000  Uiso   1.00
O1383  O     0.75725   0.83334   0.78617   0.00000  Uiso   1.00
O1384  O     0.90942   0.83333   0.88050   0.00000  Uiso   1.00
Zn1385 Zn    0.83333   0.83333   0.88437   0.00000  Uiso   1.00
Zn1386 Zn    0.83333   0.83334   0.78229   0.00000  Uiso   1.00
O1387  O     0.90149   0.70941   0.78432   0.00000  Uiso   1.00
C1388  C     0.88816   0.70372   0.73659   0.00000  Uiso   1.00
H1389  H     0.84545   0.70921   0.72478   0.00000  Uiso   1.00
H1390  H     0.89842   0.67162   0.72642   0.00000  Uiso   1.00
C1391  C     0.91923   0.73499   0.71262   0.00000  Uiso   1.00
H1392  H     0.96209   0.72935   0.72213   0.00000  Uiso   1.00
H1393  H     0.90827   0.73159   0.67501   0.00000  Uiso   1.00
H1394  H     0.91050   0.76741   0.72272   0.00000  Uiso   1.00
O1395  O     0.76683   0.95832   0.88428   0.00000  Uiso   1.00
C1396  C     0.71666   0.95331   0.85756   0.00000  Uiso   1.00
H1397  H     0.71853   0.93054   0.82926   0.00000  Uiso   1.00
H1398  H     0.70097   0.98363   0.84295   0.00000  Uiso   1.00
C1399  C     0.67838   0.93649   0.88745   0.00000  Uiso   1.00
H1400  H     0.67343   0.95978   0.91440   0.00000  Uiso   1.00
H1401  H     0.97279   0.93023   0.86634   0.00000  Uiso   1.00
H1402  H     0.69358   0.90699   0.90399   0.00000  Uiso   1.00
Cl1403 Cl    0.91035   0.89312   0.95933   0.00000  Uiso   1.00
Cl1404 Cl    0.75600   0.77380   0.70728   0.00000  Uiso   1.00
loop_
_geom_bond_atom_site_label_1
_geom_bond_atom_site_label_2
_geom_bond_distance
_geom_bond_site_symmetry_2
_ccdc_geom_bond_type
C1     O25     1.283   .     A
C1     C12     1.410   .     S
C1     O27     1.282   .     A
C2     O26     1.282   .     A
C2     C11     1.410   .     S
C2     O28     1.283   .     A
C3     O31     1.284   .     A
C3     O29     1.278   .     A
C3     C5      1.402   .     S
C4     O32     1.284   .     A
C4     C6      1.401   .     S
C4     O30     1.278   .     A
C5     C110    1.332   1_455 S
C5     H121    1.088   1_455 S
C6     C57     1.332   .     S
C6     H70     1.088   .     S
C7     C12     1.401   .     A
C7     O35     1.386   .     S
C7     C321    1.381   1_545 S
C8     O43     1.383   .     S
C8     C11     1.401   .     A
C8     C166    1.375   .     S
C9     C11     1.395   .     A
C9     H19     1.084   .     S
C9     C163    1.381   .     S
C10    C12     1.394   .     A
C10    H20     1.085   .     S
C10    C320    1.375   1_545 S
C13    H21     1.082   .     S
C13    N24     1.362   .     A
C13    C951    1.416   1_554 S
C14    N23     1.362   .     A
C14    H22     1.082   .     S
C14    C484    1.416   .     S
C15    Cl51    1.754   .     S
C15    N23     1.374   .     A
C15    C481    1.416   .     S
C16    N24     1.374   .     A
C16    Cl52    1.753   .     S
C16    C950    1.416   1_554 S
H17    C57     1.088   .     S
H18    C110    1.088   1_455 S
N23    Zn33    2.016   .     S
N24    Zn34    2.016   .     S
O25    Zn33    1.986   .     S
O26    Zn34    1.986   .     S
O27    Zn34    1.990   .     S
O28    Zn33    1.990   .     S
O29    Zn33    1.963   .     S
O30    Zn34    1.963   .     S
O31    Zn34    1.978   .     S
O32    Zn33    1.978   .     S
O35    C36     1.413   .     S
C36    H37     1.115   .     S
C36    H38     1.112   .     S
C36    C39     1.522   .     S
C39    H42     1.110   .     S
C39    H41     1.111   .     S
C39    H40     1.111   .     S
O43    C44     1.412   .     S
C44    C47     1.521   .     S
C44    H46     1.116   .     S
C44    H45     1.114   .     S
C47    H50     1.110   .     S
C47    H48     1.111   .     S
C47    H153    1.111   1_455 S
H49    C99     1.111   .     S
C53    O77     1.283   .     A
C53    C64     1.410   .     S
C53    O79     1.282   .     A
C54    O78     1.282   .     A
C54    C63     1.410   .     S
C54    O80     1.283   .     A
C55    O83     1.284   .     A
C55    O81     1.278   .     A
C55    C57     1.402   .     S
C56    O84     1.284   .     A
C56    C58     1.401   .     S
C56    O82     1.278   .     A
C58    C109    1.332   .     S
C58    H122    1.088   .     S
C59    C64     1.401   .     A
C59    O87     1.386   .     S
C59    C373    1.381   1_545 S
C60    O95     1.383   .     S
C60    C63     1.401   .     A
C60    C218    1.375   .     S
C61    C63     1.395   .     A
C61    H71     1.084   .     S
C61    C215    1.381   .     S
C62    C64     1.394   .     A
C62    H72     1.085   .     S
C62    C372    1.375   1_545 S
C65    H73     1.082   .     S
C65    N76     1.362   .     A
C65    C1003   1.416   1_554 S
C66    N75     1.362   .     A
C66    H74     1.082   .     S
C66    C536    1.416   .     S
C67    Cl103   1.754   .     S
C67    N75     1.374   .     A
C67    C533    1.416   .     S
C68    N76     1.374   .     A
C68    Cl104   1.753   .     S
C68    C1002   1.416   1_554 S
H69    C109    1.088   .     S
N75    Zn85    2.016   .     S
N76    Zn86    2.016   .     S
O77    Zn85    1.986   .     S
O78    Zn86    1.986   .     S
O79    Zn86    1.990   .     S
O80    Zn85    1.990   .     S
O81    Zn85    1.963   .     S
O82    Zn86    1.963   .     S
O83    Zn86    1.978   .     S
O84    Zn85    1.978   .     S
O87    C88     1.413   .     S
C88    H89     1.115   .     S
C88    H90     1.112   .     S
C88    C91     1.522   .     S
C91    H94     1.110   .     S
C91    H93     1.111   .     S
C91    H92     1.111   .     S
O95    C96     1.412   .     S
C96    C99     1.521   .     S
C96    H98     1.116   .     S
C96    H97     1.114   .     S
C99    H102    1.110   .     S
C99    H100    1.111   .     S
H101   C151    1.111   .     S
C105   O129    1.283   .     A
C105   C116    1.410   .     S
C105   O131    1.282   .     A
C106   O130    1.282   .     A
C106   C115    1.410   .     S
C106   O132    1.283   .     A
C107   O135    1.284   .     A
C107   O133    1.278   .     A
C107   C109    1.402   .     S
C108   O136    1.284   .     A
C108   C110    1.401   .     S
C108   O134    1.278   .     A
C110   C5      1.332   1_655 S
C110   H18     1.088   1_655 S
C111   C116    1.401   .     A
C111   O139    1.386   .     S
C111   C425    1.381   1_545 S
C112   O147    1.383   .     S
C112   C115    1.401   .     A
C112   C270    1.375   .     S
C113   C115    1.395   .     A
C113   H123    1.084   .     S
C113   C267    1.381   .     S
C114   C116    1.394   .     A
C114   H124    1.085   .     S
C114   C424    1.375   1_545 S
C117   H125    1.082   .     S
C117   N128    1.362   .     A
C117   C1055   1.416   1_554 S
C118   N127    1.362   .     A
C118   H126    1.082   .     S
C118   C588    1.416   .     S
C119   Cl155   1.754   .     S
C119   N127    1.374   .     A
C119   C585    1.416   .     S
C120   N128    1.374   .     A
C120   Cl156   1.753   .     S
C120   C1054   1.416   1_554 S
H121   C5      1.088   1_655 S
N127   Zn137   2.016   .     S
N128   Zn138   2.016   .     S
O129   Zn137   1.986   .     S
O130   Zn138   1.986   .     S
O131   Zn138   1.990   .     S
O132   Zn137   1.990   .     S
O133   Zn137   1.963   .     S
O134   Zn138   1.963   .     S
O135   Zn138   1.978   .     S
O136   Zn137   1.978   .     S
O139   C140    1.413   .     S
C140   H141    1.115   .     S
C140   H142    1.112   .     S
C140   C143    1.522   .     S
C143   H146    1.110   .     S
C143   H145    1.111   .     S
C143   H144    1.111   .     S
O147   C148    1.412   .     S
C148   C151    1.521   .     S
C148   H150    1.116   .     S
C148   H149    1.114   .     S
C151   H154    1.110   .     S
C151   H152    1.111   .     S
H153   C47     1.111   1_655 S
C157   O181    1.283   .     A
C157   C168    1.410   .     S
C157   O183    1.282   .     A
C158   O182    1.282   .     A
C158   C167    1.410   .     S
C158   O184    1.283   .     A
C159   O187    1.284   .     A
C159   O185    1.278   .     A
C159   C161    1.402   .     S
C160   O188    1.284   .     A
C160   C162    1.401   .     S
C160   O186    1.278   .     A
C161   C266    1.332   1_455 S
C161   H277    1.088   1_455 S
C162   C213    1.332   .     S
C162   H226    1.088   .     S
C163   C168    1.401   .     A
C163   O191    1.386   .     S
C164   O199    1.383   .     S
C164   C167    1.401   .     A
C164   C322    1.375   .     S
C165   C167    1.395   .     A
C165   H175    1.084   .     S
C165   C319    1.381   .     S
C166   C168    1.394   .     A
C166   H176    1.085   .     S
C169   H177    1.082   .     S
C169   N180    1.362   .     A
C169   C1107   1.416   1_554 S
C170   N179    1.362   .     A
C170   H178    1.082   .     S
C170   C640    1.416   .     S
C171   Cl207   1.754   .     S
C171   N179    1.374   .     A
C171   C637    1.416   .     S
C172   N180    1.374   .     A
C172   Cl208   1.753   .     S
C172   C1106   1.416   1_554 S
H173   C213    1.088   .     S
H174   C266    1.088   1_455 S
N179   Zn189   2.016   .     S
N180   Zn190   2.016   .     S
O181   Zn189   1.986   .     S
O182   Zn190   1.986   .     S
O183   Zn190   1.990   .     S
O184   Zn189   1.990   .     S
O185   Zn189   1.963   .     S
O186   Zn190   1.963   .     S
O187   Zn190   1.978   .     S
O188   Zn189   1.978   .     S
O191   C192    1.413   .     S
C192   H193    1.115   .     S
C192   H194    1.112   .     S
C192   C195    1.522   .     S
C195   H198    1.110   .     S
C195   H197    1.111   .     S
C195   H196    1.111   .     S
O199   C200    1.412   .     S
C200   C203    1.521   .     S
C200   H202    1.116   .     S
C200   H201    1.114   .     S
C203   H206    1.110   .     S
C203   H204    1.111   .     S
C203   H309    1.111   1_455 S
H205   C255    1.111   .     S
C209   O233    1.283   .     A
C209   C220    1.410   .     S
C209   O235    1.282   .     A
C210   O234    1.282   .     A
C210   C219    1.410   .     S
C210   O236    1.283   .     A
C211   O239    1.284   .     A
C211   O237    1.278   .     A
C211   C213    1.402   .     S
C212   O240    1.284   .     A
C212   C214    1.401   .     S
C212   O238    1.278   .     A
C214   C265    1.332   .     S
C214   H278    1.088   .     S
C215   C220    1.401   .     A
C215   O243    1.386   .     S
C216   O251    1.383   .     S
C216   C219    1.401   .     A
C216   C374    1.375   .     S
C217   C219    1.395   .     A
C217   H227    1.084   .     S
C217   C371    1.381   .     S
C218   C220    1.394   .     A
C218   H228    1.085   .     S
C221   H229    1.082   .     S
C221   N232    1.362   .     A
C221   C1159   1.416   1_554 S
C222   N231    1.362   .     A
C222   H230    1.082   .     S
C222   C692    1.416   .     S
C223   Cl259   1.754   .     S
C223   N231    1.374   .     A
C223   C689    1.416   .     S
C224   N232    1.374   .     A
C224   Cl260   1.753   .     S
C224   C1158   1.416   1_554 S
H225   C265    1.088   .     S
N231   Zn241   2.016   .     S
N232   Zn242   2.016   .     S
O233   Zn241   1.986   .     S
O234   Zn242   1.986   .     S
O235   Zn242   1.990   .     S
O236   Zn241   1.990   .     S
O237   Zn241   1.963   .     S
O238   Zn242   1.963   .     S
O239   Zn242   1.978   .     S
O240   Zn241   1.978   .     S
O243   C244    1.413   .     S
C244   H245    1.115   .     S
C244   H246    1.112   .     S
C244   C247    1.522   .     S
C247   H250    1.110   .     S
C247   H249    1.111   .     S
C247   H248    1.111   .     S
O251   C252    1.412   .     S
C252   C255    1.521   .     S
C252   H254    1.116   .     S
C252   H253    1.114   .     S
C255   H258    1.110   .     S
C255   H256    1.111   .     S
H257   C307    1.111   .     S
C261   O285    1.283   .     A
C261   C272    1.410   .     S
C261   O287    1.282   .     A
C262   O286    1.282   .     A
C262   C271    1.410   .     S
C262   O288    1.283   .     A
C263   O291    1.284   .     A
C263   O289    1.278   .     A
C263   C265    1.402   .     S
C264   O292    1.284   .     A
C264   C266    1.401   .     S
C264   O290    1.278   .     A
C266   C161    1.332   1_655 S
C266   H174    1.088   1_655 S
C267   C272    1.401   .     A
C267   O295    1.386   .     S
C268   O303    1.383   .     S
C268   C271    1.401   .     A
C268   C426    1.375   .     S
C269   C271    1.395   .     A
C269   H279    1.084   .     S
C269   C423    1.381   .     S
C270   C272    1.394   .     A
C270   H280    1.085   .     S
C273   H281    1.082   .     S
C273   N284    1.362   .     A
C273   C1211   1.416   1_554 S
C274   N283    1.362   .     A
C274   H282    1.082   .     S
C274   C744    1.416   .     S
C275   Cl311   1.754   .     S
C275   N283    1.374   .     A
C275   C741    1.416   .     S
C276   N284    1.374   .     A
C276   Cl312   1.753   .     S
C276   C1210   1.416   1_554 S
H277   C161    1.088   1_655 S
N283   Zn293   2.016   .     S
N284   Zn294   2.016   .     S
O285   Zn293   1.986   .     S
O286   Zn294   1.986   .     S
O287   Zn294   1.990   .     S
O288   Zn293   1.990   .     S
O289   Zn293   1.963   .     S
O290   Zn294   1.963   .     S
O291   Zn294   1.978   .     S
O292   Zn293   1.978   .     S
O295   C296    1.413   .     S
C296   H297    1.115   .     S
C296   H298    1.112   .     S
C296   C299    1.522   .     S
C299   H302    1.110   .     S
C299   H301    1.111   .     S
C299   H300    1.111   .     S
O303   C304    1.412   .     S
C304   C307    1.521   .     S
C304   H306    1.116   .     S
C304   H305    1.114   .     S
C307   H310    1.110   .     S
C307   H308    1.111   .     S
H309   C203    1.111   1_655 S
C313   O337    1.283   .     A
C313   C324    1.410   .     S
C313   O339    1.282   .     A
C314   O338    1.282   .     A
C314   C323    1.410   .     S
C314   O340    1.283   .     A
C315   O343    1.284   .     A
C315   O341    1.278   .     A
C315   C317    1.402   .     S
C316   O344    1.284   .     A
C316   C318    1.401   .     S
C316   O342    1.278   .     A
C317   C422    1.332   1_455 S
C317   H433    1.088   1_455 S
C318   C369    1.332   .     S
C318   H382    1.088   .     S
C319   C324    1.401   .     A
C319   O347    1.386   .     S
C320   O355    1.383   .     S
C320   C323    1.401   .     A
C320   C10     1.375   1_565 S
C321   C323    1.395   .     A
C321   H331    1.084   .     S
C321   C7      1.381   1_565 S
C322   C324    1.394   .     A
C322   H332    1.085   .     S
C325   H333    1.082   .     S
C325   N336    1.362   .     A
C325   C1263   1.416   1_554 S
C326   N335    1.362   .     A
C326   H334    1.082   .     S
C326   C796    1.416   .     S
C327   Cl363   1.754   .     S
C327   N335    1.374   .     A
C327   C793    1.416   .     S
C328   N336    1.374   .     A
C328   Cl364   1.753   .     S
C328   C1262   1.416   1_554 S
H329   C369    1.088   .     S
H330   C422    1.088   1_455 S
N335   Zn345   2.016   .     S
N336   Zn346   2.016   .     S
O337   Zn345   1.986   .     S
O338   Zn346   1.986   .     S
O339   Zn346   1.990   .     S
O340   Zn345   1.990   .     S
O341   Zn345   1.963   .     S
O342   Zn346   1.963   .     S
O343   Zn346   1.978   .     S
O344   Zn345   1.978   .     S
O347   C348    1.413   .     S
C348   H349    1.115   .     S
C348   H350    1.112   .     S
C348   C351    1.522   .     S
C351   H354    1.110   .     S
C351   H353    1.111   .     S
C351   H352    1.111   .     S
O355   C356    1.412   .     S
C356   C359    1.521   .     S
C356   H358    1.116   .     S
C356   H357    1.114   .     S
C359   H362    1.110   .     S
C359   H360    1.111   .     S
C359   H465    1.111   1_455 S
H361   C411    1.111   .     S
C365   O389    1.283   .     A
C365   C376    1.410   .     S
C365   O391    1.282   .     A
C366   O390    1.282   .     A
C366   C375    1.410   .     S
C366   O392    1.283   .     A
C367   O395    1.284   .     A
C367   O393    1.278   .     A
C367   C369    1.402   .     S
C368   O396    1.284   .     A
C368   C370    1.401   .     S
C368   O394    1.278   .     A
C370   C421    1.332   .     S
C370   H434    1.088   .     S
C371   C376    1.401   .     A
C371   O399    1.386   .     S
C372   O407    1.383   .     S
C372   C375    1.401   .     A
C372   C62     1.375   1_565 S
C373   C375    1.395   .     A
C373   H383    1.084   .     S
C373   C59     1.381   1_565 S
C374   C376    1.394   .     A
C374   H384    1.085   .     S
C377   H385    1.082   .     S
C377   N388    1.362   .     A
C377   C1315   1.416   1_554 S
C378   N387    1.362   .     A
C378   H386    1.082   .     S
C378   C848    1.416   .     S
C379   Cl415   1.754   .     S
C379   N387    1.374   .     A
C379   C845    1.416   .     S
C380   N388    1.374   .     A
C380   Cl416   1.753   .     S
C380   C1314   1.416   1_554 S
H381   C421    1.088   .     S
N387   Zn397   2.016   .     S
N388   Zn398   2.016   .     S
O389   Zn397   1.986   .     S
O390   Zn398   1.986   .     S
O391   Zn398   1.990   .     S
O392   Zn397   1.990   .     S
O393   Zn397   1.963   .     S
O394   Zn398   1.963   .     S
O395   Zn398   1.978   .     S
O396   Zn397   1.978   .     S
O399   C400    1.413   .     S
C400   H401    1.115   .     S
C400   H402    1.112   .     S
C400   C403    1.522   .     S
C403   H406    1.110   .     S
C403   H405    1.111   .     S
C403   H404    1.111   .     S
O407   C408    1.412   .     S
C408   C411    1.521   .     S
C408   H410    1.116   .     S
C408   H409    1.114   .     S
C411   H414    1.110   .     S
C411   H412    1.111   .     S
H413   C463    1.111   .     S
C417   O441    1.283   .     A
C417   C428    1.410   .     S
C417   O443    1.282   .     A
C418   O442    1.282   .     A
C418   C427    1.410   .     S
C418   O444    1.283   .     A
C419   O447    1.284   .     A
C419   O445    1.278   .     A
C419   C421    1.402   .     S
C420   O448    1.284   .     A
C420   C422    1.401   .     S
C420   O446    1.278   .     A
C422   C317    1.332   1_655 S
C422   H330    1.088   1_655 S
C423   C428    1.401   .     A
C423   O451    1.386   .     S
C424   O459    1.383   .     S
C424   C427    1.401   .     A
C424   C114    1.375   1_565 S
C425   C427    1.395   .     A
C425   H435    1.084   .     S
C425   C111    1.381   1_565 S
C426   C428    1.394   .     A
C426   H436    1.085   .     S
C429   H437    1.082   .     S
C429   N440    1.362   .     A
C429   C1367   1.416   1_554 S
C430   N439    1.362   .     A
C430   H438    1.082   .     S
C430   C900    1.416   .     S
C431   Cl467   1.754   .     S
C431   N439    1.374   .     A
C431   C897    1.416   .     S
C432   N440    1.374   .     A
C432   Cl468   1.753   .     S
C432   C1366   1.416   1_554 S
H433   C317    1.088   1_655 S
N439   Zn449   2.016   .     S
N440   Zn450   2.016   .     S
O441   Zn449   1.986   .     S
O442   Zn450   1.986   .     S
O443   Zn450   1.990   .     S
O444   Zn449   1.990   .     S
O445   Zn449   1.963   .     S
O446   Zn450   1.963   .     S
O447   Zn450   1.978   .     S
O448   Zn449   1.978   .     S
O451   C452    1.413   .     S
C452   H453    1.115   .     S
C452   H454    1.112   .     S
C452   C455    1.522   .     S
C455   H458    1.110   .     S
C455   H457    1.111   .     S
C455   H456    1.111   .     S
O459   C460    1.412   .     S
C460   C463    1.521   .     S
C460   H462    1.116   .     S
C460   H461    1.114   .     S
C463   H466    1.110   .     S
C463   H464    1.111   .     S
H465   C359    1.111   1_655 S
C469   O493    1.283   .     A
C469   C480    1.410   .     S
C469   O495    1.282   .     A
C470   O494    1.282   .     A
C470   C479    1.410   .     S
C470   O496    1.283   .     A
C471   O499    1.284   .     A
C471   O497    1.278   .     A
C471   C473    1.402   .     S
C472   O500    1.284   .     A
C472   C474    1.401   .     S
C472   O498    1.278   .     A
C473   C578    1.332   1_455 S
C473   H589    1.088   1_455 S
C474   C525    1.332   .     S
C474   H538    1.088   .     S
C475   C480    1.401   .     A
C475   O503    1.386   .     S
C475   C789    1.381   1_545 S
C476   O511    1.383   .     S
C476   C479    1.401   .     A
C476   C634    1.375   .     S
C477   C479    1.395   .     A
C477   H487    1.084   .     S
C477   C631    1.381   .     S
C478   C480    1.394   .     A
C478   H488    1.085   .     S
C478   C788    1.375   1_545 S
C481   H489    1.082   .     S
C481   N492    1.362   .     A
C482   N491    1.362   .     A
C482   H490    1.082   .     S
C482   C952    1.416   .     S
C483   Cl519   1.754   .     S
C483   N491    1.374   .     A
C483   C949    1.416   .     S
C484   N492    1.374   .     A
C484   Cl520   1.753   .     S
H485   C525    1.088   .     S
H486   C578    1.088   1_455 S
N491   Zn501   2.016   .     S
N492   Zn502   2.016   .     S
O493   Zn501   1.986   .     S
O494   Zn502   1.986   .     S
O495   Zn502   1.990   .     S
O496   Zn501   1.990   .     S
O497   Zn501   1.963   .     S
O498   Zn502   1.963   .     S
O499   Zn502   1.978   .     S
O500   Zn501   1.978   .     S
O503   C504    1.413   .     S
C504   H505    1.115   .     S
C504   H506    1.112   .     S
C504   C507    1.522   .     S
C507   H510    1.110   .     S
C507   H509    1.111   .     S
C507   H508    1.111   .     S
O511   C512    1.412   .     S
C512   C515    1.521   .     S
C512   H514    1.116   .     S
C512   H513    1.114   .     S
C515   H518    1.110   .     S
C515   H516    1.111   .     S
C515   H621    1.111   1_455 S
H517   C567    1.111   .     S
C521   O545    1.283   .     A
C521   C532    1.410   .     S
C521   O547    1.282   .     A
C522   O546    1.282   .     A
C522   C531    1.410   .     S
C522   O548    1.283   .     A
C523   O551    1.284   .     A
C523   O549    1.278   .     A
C523   C525    1.402   .     S
C524   O552    1.284   .     A
C524   C526    1.401   .     S
C524   O550    1.278   .     A
C526   C577    1.332   .     S
C526   H590    1.088   .     S
C527   C532    1.401   .     A
C527   O555    1.386   .     S
C527   C841    1.381   1_545 S
C528   O563    1.383   .     S
C528   C531    1.401   .     A
C528   C686    1.375   .     S
C529   C531    1.395   .     A
C529   H539    1.084   .     S
C529   C683    1.381   .     S
C530   C532    1.394   .     A
C530   H540    1.085   .     S
C530   C840    1.375   1_545 S
C533   H541    1.082   .     S
C533   N544    1.362   .     A
C534   N543    1.362   .     A
C534   H542    1.082   .     S
C534   C1004   1.416   .     S
C535   Cl571   1.754   .     S
C535   N543    1.374   .     A
C535   C1001   1.416   .     S
C536   N544    1.374   .     A
C536   Cl572   1.753   .     S
H537   C577    1.088   .     S
N543   Zn553   2.016   .     S
N544   Zn554   2.016   .     S
O545   Zn553   1.986   .     S
O546   Zn554   1.986   .     S
O547   Zn554   1.990   .     S
O548   Zn553   1.990   .     S
O549   Zn553   1.963   .     S
O550   Zn554   1.963   .     S
O551   Zn554   1.978   .     S
O552   Zn553   1.978   .     S
O555   C556    1.413   .     S
C556   H557    1.115   .     S
C556   H558    1.112   .     S
C556   C559    1.522   .     S
C559   H562    1.110   .     S
C559   H561    1.111   .     S
C559   H560    1.111   .     S
O563   C564    1.412   .     S
C564   C567    1.521   .     S
C564   H566    1.116   .     S
C564   H565    1.114   .     S
C567   H570    1.110   .     S
C567   H568    1.111   .     S
H569   C619    1.111   .     S
C573   O597    1.283   .     A
C573   C584    1.410   .     S
C573   O599    1.282   .     A
C574   O598    1.282   .     A
C574   C583    1.410   .     S
C574   O600    1.283   .     A
C575   O603    1.284   .     A
C575   O601    1.278   .     A
C575   C577    1.402   .     S
C576   O604    1.284   .     A
C576   C578    1.401   .     S
C576   O602    1.278   .     A
C578   C473    1.332   1_655 S
C578   H486    1.088   1_655 S
C579   C584    1.401   .     A
C579   O607    1.386   .     S
C579   C893    1.381   1_545 S
C580   O615    1.383   .     S
C580   C583    1.401   .     A
C580   C738    1.375   .     S
C581   C583    1.395   .     A
C581   H591    1.084   .     S
C581   C735    1.381   .     S
C582   C584    1.394   .     A
C582   H592    1.085   .     S
C582   C892    1.375   1_545 S
C585   H593    1.082   .     S
C585   N596    1.362   .     A
C586   N595    1.362   .     A
C586   H594    1.082   .     S
C586   C1056   1.416   .     S
C587   Cl623   1.754   .     S
C587   N595    1.374   .     A
C587   C1053   1.416   .     S
C588   N596    1.374   .     A
C588   Cl624   1.753   .     S
H589   C473    1.088   1_655 S
N595   Zn605   2.016   .     S
N596   Zn606   2.016   .     S
O597   Zn605   1.986   .     S
O598   Zn606   1.986   .     S
O599   Zn606   1.990   .     S
O600   Zn605   1.990   .     S
O601   Zn605   1.963   .     S
O602   Zn606   1.963   .     S
O603   Zn606   1.978   .     S
O604   Zn605   1.978   .     S
O607   C608    1.413   .     S
C608   H609    1.115   .     S
C608   H610    1.112   .     S
C608   C611    1.522   .     S
C611   H614    1.110   .     S
C611   H613    1.111   .     S
C611   H612    1.111   .     S
O615   C616    1.412   .     S
C616   C619    1.521   .     S
C616   H618    1.116   .     S
C616   H617    1.114   .     S
C619   H622    1.110   .     S
C619   H620    1.111   .     S
H621   C515    1.111   1_655 S
C625   O649    1.283   .     A
C625   C636    1.410   .     S
C625   O651    1.282   .     A
C626   O650    1.282   .     A
C626   C635    1.410   .     S
C626   O652    1.283   .     A
C627   O655    1.284   .     A
C627   O653    1.278   .     A
C627   C629    1.402   .     S
C628   O656    1.284   .     A
C628   C630    1.401   .     S
C628   O654    1.278   .     A
C629   C734    1.332   1_455 S
C629   H745    1.088   1_455 S
C630   C681    1.332   .     S
C630   H694    1.088   .     S
C631   C636    1.401   .     A
C631   O659    1.386   .     S
C632   O667    1.383   .     S
C632   C635    1.401   .     A
C632   C790    1.375   .     S
C633   C635    1.395   .     A
C633   H643    1.084   .     S
C633   C787    1.381   .     S
C634   C636    1.394   .     A
C634   H644    1.085   .     S
C637   H645    1.082   .     S
C637   N648    1.362   .     A
C638   N647    1.362   .     A
C638   H646    1.082   .     S
C638   C1108   1.416   .     S
C639   Cl675   1.754   .     S
C639   N647    1.374   .     A
C639   C1105   1.416   .     S
C640   N648    1.374   .     A
C640   Cl676   1.753   .     S
H641   C681    1.088   .     S
H642   C734    1.088   1_455 S
N647   Zn657   2.016   .     S
N648   Zn658   2.016   .     S
O649   Zn657   1.986   .     S
O650   Zn658   1.986   .     S
O651   Zn658   1.990   .     S
O652   Zn657   1.990   .     S
O653   Zn657   1.963   .     S
O654   Zn658   1.963   .     S
O655   Zn658   1.978   .     S
O656   Zn657   1.978   .     S
O659   C660    1.413   .     S
C660   H661    1.115   .     S
C660   H662    1.112   .     S
C660   C663    1.522   .     S
C663   H666    1.110   .     S
C663   H665    1.111   .     S
C663   H664    1.111   .     S
O667   C668    1.412   .     S
C668   C671    1.521   .     S
C668   H670    1.116   .     S
C668   H669    1.114   .     S
C671   H674    1.110   .     S
C671   H672    1.111   .     S
C671   H777    1.111   1_455 S
H673   C723    1.111   .     S
C677   O701    1.283   .     A
C677   C688    1.410   .     S
C677   O703    1.282   .     A
C678   O702    1.282   .     A
C678   C687    1.410   .     S
C678   O704    1.283   .     A
C679   O707    1.284   .     A
C679   O705    1.278   .     A
C679   C681    1.402   .     S
C680   O708    1.284   .     A
C680   C682    1.401   .     S
C680   O706    1.278   .     A
C682   C733    1.332   .     S
C682   H746    1.088   .     S
C683   C688    1.401   .     A
C683   O711    1.386   .     S
C684   O719    1.383   .     S
C684   C687    1.401   .     A
C684   C842    1.375   .     S
C685   C687    1.395   .     A
C685   H695    1.084   .     S
C685   C839    1.381   .     S
C686   C688    1.394   .     A
C686   H696    1.085   .     S
C689   H697    1.082   .     S
C689   N700    1.362   .     A
C690   N699    1.362   .     A
C690   H698    1.082   .     S
C690   C1160   1.416   .     S
C691   Cl727   1.754   .     S
C691   N699    1.374   .     A
C691   C1157   1.416   .     S
C692   N700    1.374   .     A
C692   Cl728   1.753   .     S
H693   C733    1.088   .     S
N699   Zn709   2.016   .     S
N700   Zn710   2.016   .     S
O701   Zn709   1.986   .     S
O702   Zn710   1.986   .     S
O703   Zn710   1.990   .     S
O704   Zn709   1.990   .     S
O705   Zn709   1.963   .     S
O706   Zn710   1.963   .     S
O707   Zn710   1.978   .     S
O708   Zn709   1.978   .     S
O711   C712    1.413   .     S
C712   H713    1.115   .     S
C712   H714    1.112   .     S
C712   C715    1.522   .     S
C715   H718    1.110   .     S
C715   H717    1.111   .     S
C715   H716    1.111   .     S
O719   C720    1.412   .     S
C720   C723    1.521   .     S
C720   H722    1.116   .     S
C720   H721    1.114   .     S
C723   H726    1.110   .     S
C723   H724    1.111   .     S
H725   C775    1.111   .     S
C729   O753    1.283   .     A
C729   C740    1.410   .     S
C729   O755    1.282   .     A
C730   O754    1.282   .     A
C730   C739    1.410   .     S
C730   O756    1.283   .     A
C731   O759    1.284   .     A
C731   O757    1.278   .     A
C731   C733    1.402   .     S
C732   O760    1.284   .     A
C732   C734    1.401   .     S
C732   O758    1.278   .     A
C734   C629    1.332   1_655 S
C734   H642    1.088   1_655 S
C735   C740    1.401   .     A
C735   O763    1.386   .     S
C736   O771    1.383   .     S
C736   C739    1.401   .     A
C736   C894    1.375   .     S
C737   C739    1.395   .     A
C737   H747    1.084   .     S
C737   C891    1.381   .     S
C738   C740    1.394   .     A
C738   H748    1.085   .     S
C741   H749    1.082   .     S
C741   N752    1.362   .     A
C742   N751    1.362   .     A
C742   H750    1.082   .     S
C742   C1212   1.416   .     S
C743   Cl779   1.754   .     S
C743   N751    1.374   .     A
C743   C1209   1.416   .     S
C744   N752    1.374   .     A
C744   Cl780   1.753   .     S
H745   C629    1.088   1_655 S
N751   Zn761   2.016   .     S
N752   Zn762   2.016   .     S
O753   Zn761   1.986   .     S
O754   Zn762   1.986   .     S
O755   Zn762   1.990   .     S
O756   Zn761   1.990   .     S
O757   Zn761   1.963   .     S
O758   Zn762   1.963   .     S
O759   Zn762   1.978   .     S
O760   Zn761   1.978   .     S
O763   C764    1.413   .     S
C764   H765    1.115   .     S
C764   H766    1.112   .     S
C764   C767    1.522   .     S
C767   H770    1.110   .     S
C767   H769    1.111   .     S
C767   H768    1.111   .     S
O771   C772    1.412   .     S
C772   C775    1.521   .     S
C772   H774    1.116   .     S
C772   H773    1.114   .     S
C775   H778    1.110   .     S
C775   H776    1.111   .     S
H777   C671    1.111   1_655 S
C781   O805    1.283   .     A
C781   C792    1.410   .     S
C781   O807    1.282   .     A
C782   O806    1.282   .     A
C782   C791    1.410   .     S
C782   O808    1.283   .     A
C783   O811    1.284   .     A
C783   O809    1.278   .     A
C783   C785    1.402   .     S
C784   O812    1.284   .     A
C784   C786    1.401   .     S
C784   O810    1.278   .     A
C785   C890    1.332   1_455 S
C785   H901    1.088   1_455 S
C786   C837    1.332   .     S
C786   H850    1.088   .     S
C787   C792    1.401   .     A
C787   O815    1.386   .     S
C788   O823    1.383   .     S
C788   C791    1.401   .     A
C788   C478    1.375   1_565 S
C789   C791    1.395   .     A
C789   H799    1.084   .     S
C789   C475    1.381   1_565 S
C790   C792    1.394   .     A
C790   H800    1.085   .     S
C793   H801    1.082   .     S
C793   N804    1.362   .     A
C794   N803    1.362   .     A
C794   H802    1.082   .     S
C794   C1264   1.416   .     S
C795   Cl831   1.754   .     S
C795   N803    1.374   .     A
C795   C1261   1.416   .     S
C796   N804    1.374   .     A
C796   Cl832   1.753   .     S
H797   C837    1.088   .     S
H798   C890    1.088   1_455 S
N803   Zn813   2.016   .     S
N804   Zn814   2.016   .     S
O805   Zn813   1.986   .     S
O806   Zn814   1.986   .     S
O807   Zn814   1.990   .     S
O808   Zn813   1.990   .     S
O809   Zn813   1.963   .     S
O810   Zn814   1.963   .     S
O811   Zn814   1.978   .     S
O812   Zn813   1.978   .     S
O815   C816    1.413   .     S
C816   H817    1.115   .     S
C816   H818    1.112   .     S
C816   C819    1.522   .     S
C819   H822    1.110   .     S
C819   H821    1.111   .     S
C819   H820    1.111   .     S
O823   C824    1.412   .     S
C824   C827    1.521   .     S
C824   H826    1.116   .     S
C824   H825    1.114   .     S
C827   H830    1.110   .     S
C827   H828    1.111   .     S
C827   H933    1.111   1_455 S
H829   C879    1.111   .     S
C833   O857    1.283   .     A
C833   C844    1.410   .     S
C833   O859    1.282   .     A
C834   O858    1.282   .     A
C834   C843    1.410   .     S
C834   O860    1.283   .     A
C835   O863    1.284   .     A
C835   O861    1.278   .     A
C835   C837    1.402   .     S
C836   O864    1.284   .     A
C836   C838    1.401   .     S
C836   O862    1.278   .     A
C838   C889    1.332   .     S
C838   H902    1.088   .     S
C839   C844    1.401   .     A
C839   O867    1.386   .     S
C840   O875    1.383   .     S
C840   C843    1.401   .     A
C840   C530    1.375   1_565 S
C841   C843    1.395   .     A
C841   H851    1.084   .     S
C841   C527    1.381   1_565 S
C842   C844    1.394   .     A
C842   H852    1.085   .     S
C845   H853    1.082   .     S
C845   N856    1.362   .     A
C846   N855    1.362   .     A
C846   H854    1.082   .     S
C846   C1316   1.416   .     S
C847   Cl883   1.754   .     S
C847   N855    1.374   .     A
C847   C1313   1.416   .     S
C848   N856    1.374   .     A
C848   Cl884   1.753   .     S
H849   C889    1.088   .     S
N855   Zn865   2.016   .     S
N856   Zn866   2.016   .     S
O857   Zn865   1.986   .     S
O858   Zn866   1.986   .     S
O859   Zn866   1.990   .     S
O860   Zn865   1.990   .     S
O861   Zn865   1.963   .     S
O862   Zn866   1.963   .     S
O863   Zn866   1.978   .     S
O864   Zn865   1.978   .     S
O867   C868    1.413   .     S
C868   H869    1.115   .     S
C868   H870    1.112   .     S
C868   C871    1.522   .     S
C871   H874    1.110   .     S
C871   H873    1.111   .     S
C871   H872    1.111   .     S
O875   C876    1.412   .     S
C876   C879    1.521   .     S
C876   H878    1.116   .     S
C876   H877    1.114   .     S
C879   H882    1.110   .     S
C879   H880    1.111   .     S
H881   C931    1.111   .     S
C885   O909    1.283   .     A
C885   C896    1.410   .     S
C885   O911    1.282   .     A
C886   O910    1.282   .     A
C886   C895    1.410   .     S
C886   O912    1.283   .     A
C887   O915    1.284   .     A
C887   O913    1.278   .     A
C887   C889    1.402   .     S
C888   O916    1.284   .     A
C888   C890    1.401   .     S
C888   O914    1.278   .     A
C890   C785    1.332   1_655 S
C890   H798    1.088   1_655 S
C891   C896    1.401   .     A
C891   O919    1.386   .     S
C892   O927    1.383   .     S
C892   C895    1.401   .     A
C892   C582    1.375   1_565 S
C893   C895    1.395   .     A
C893   H903    1.084   .     S
C893   C579    1.381   1_565 S
C894   C896    1.394   .     A
C894   H904    1.085   .     S
C897   H905    1.082   .     S
C897   N908    1.362   .     A
C898   N907    1.362   .     A
C898   H906    1.082   .     S
C898   C1368   1.416   .     S
C899   Cl935   1.754   .     S
C899   N907    1.374   .     A
C899   C1365   1.416   .     S
C900   N908    1.374   .     A
C900   Cl936   1.753   .     S
H901   C785    1.088   1_655 S
N907   Zn917   2.016   .     S
N908   Zn918   2.016   .     S
O909   Zn917   1.986   .     S
O910   Zn918   1.986   .     S
O911   Zn918   1.990   .     S
O912   Zn917   1.990   .     S
O913   Zn917   1.963   .     S
O914   Zn918   1.963   .     S
O915   Zn918   1.978   .     S
O916   Zn917   1.978   .     S
O919   C920    1.413   .     S
C920   H921    1.115   .     S
C920   H922    1.112   .     S
C920   C923    1.522   .     S
C923   H926    1.110   .     S
C923   H925    1.111   .     S
C923   H924    1.111   .     S
O927   C928    1.412   .     S
C928   C931    1.521   .     S
C928   H930    1.116   .     S
C928   H929    1.114   .     S
C931   H934    1.110   .     S
C931   H932    1.111   .     S
H933   C827    1.111   1_655 S
C937   O961    1.283   .     A
C937   C948    1.410   .     S
C937   O963    1.282   .     A
C938   O962    1.282   .     A
C938   C947    1.410   .     S
C938   O964    1.283   .     A
C939   O967    1.284   .     A
C939   O965    1.278   .     A
C939   C941    1.402   .     S
C940   O968    1.284   .     A
C940   C942    1.401   .     S
C940   O966    1.278   .     A
C941   C1046   1.332   1_455 S
C941   H1057   1.088   1_455 S
C942   C993    1.332   .     S
C942   H1006   1.088   .     S
C943   C948    1.401   .     A
C943   O971    1.386   .     S
C943   C1257   1.381   1_545 S
C944   O979    1.383   .     S
C944   C947    1.401   .     A
C944   C1102   1.375   .     S
C945   C947    1.395   .     A
C945   H955    1.084   .     S
C945   C1099   1.381   .     S
C946   C948    1.394   .     A
C946   H956    1.085   .     S
C946   C1256   1.375   1_545 S
C949   H957    1.082   .     S
C949   N960    1.362   .     A
C950   N959    1.362   .     A
C950   H958    1.082   .     S
C950   C16     1.416   1_556 S
C951   Cl987   1.754   .     S
C951   N959    1.374   .     A
C951   C13     1.416   1_556 S
C952   N960    1.374   .     A
C952   Cl988   1.753   .     S
H953   C993    1.088   .     S
H954   C1046   1.088   1_455 S
N959   Zn969   2.016   .     S
N960   Zn970   2.016   .     S
O961   Zn969   1.986   .     S
O962   Zn970   1.986   .     S
O963   Zn970   1.990   .     S
O964   Zn969   1.990   .     S
O965   Zn969   1.963   .     S
O966   Zn970   1.963   .     S
O967   Zn970   1.978   .     S
O968   Zn969   1.978   .     S
O971   C972    1.413   .     S
C972   H973    1.115   .     S
C972   H974    1.112   .     S
C972   C975    1.522   .     S
C975   H978    1.110   .     S
C975   H977    1.111   .     S
C975   H976    1.111   .     S
O979   C980    1.412   .     S
C980   C983    1.521   .     S
C980   H982    1.116   .     S
C980   H981    1.114   .     S
C983   H986    1.110   .     S
C983   H984    1.111   .     S
C983   H1089   1.111   1_455 S
H985   C1035   1.111   .     S
C989   O1013   1.283   .     A
C989   C1000   1.410   .     S
C989   O1015   1.282   .     A
C990   O1014   1.282   .     A
C990   C999    1.410   .     S
C990   O1016   1.283   .     A
C991   O1019   1.284   .     A
C991   O1017   1.278   .     A
C991   C993    1.402   .     S
C992   O1020   1.284   .     A
C992   C994    1.401   .     S
C992   O1018   1.278   .     A
C994   C1045   1.332   .     S
C994   H1058   1.088   .     S
C995   C1000   1.401   .     A
C995   O1023   1.386   .     S
C995   C1309   1.381   1_545 S
C996   O1031   1.383   .     S
C996   C999    1.401   .     A
C996   C1154   1.375   .     S
C997   C999    1.395   .     A
C997   H1007   1.084   .     S
C997   C1151   1.381   .     S
C998   C1000   1.394   .     A
C998   H1008   1.085   .     S
C998   C1308   1.375   1_545 S
C1001  H1009   1.082   .     S
C1001  N1012   1.362   .     A
C1002  N1011   1.362   .     A
C1002  H1010   1.082   .     S
C1002  C68     1.416   1_556 S
C1003  Cl1039  1.754   .     S
C1003  N1011   1.374   .     A
C1003  C65     1.416   1_556 S
C1004  N1012   1.374   .     A
C1004  Cl1040  1.753   .     S
H1005  C1045   1.088   .     S
N1011  Zn1021  2.016   .     S
N1012  Zn1022  2.016   .     S
O1013  Zn1021  1.986   .     S
O1014  Zn1022  1.986   .     S
O1015  Zn1022  1.990   .     S
O1016  Zn1021  1.990   .     S
O1017  Zn1021  1.963   .     S
O1018  Zn1022  1.963   .     S
O1019  Zn1022  1.978   .     S
O1020  Zn1021  1.978   .     S
O1023  C1024   1.413   .     S
C1024  H1025   1.115   .     S
C1024  H1026   1.112   .     S
C1024  C1027   1.522   .     S
C1027  H1030   1.110   .     S
C1027  H1029   1.111   .     S
C1027  H1028   1.111   .     S
O1031  C1032   1.412   .     S
C1032  C1035   1.521   .     S
C1032  H1034   1.116   .     S
C1032  H1033   1.114   .     S
C1035  H1038   1.110   .     S
C1035  H1036   1.111   .     S
H1037  C1087   1.111   .     S
C1041  O1065   1.283   .     A
C1041  C1052   1.410   .     S
C1041  O1067   1.282   .     A
C1042  O1066   1.282   .     A
C1042  C1051   1.410   .     S
C1042  O1068   1.283   .     A
C1043  O1071   1.284   .     A
C1043  O1069   1.278   .     A
C1043  C1045   1.402   .     S
C1044  O1072   1.284   .     A
C1044  C1046   1.401   .     S
C1044  O1070   1.278   .     A
C1046  C941    1.332   1_655 S
C1046  H954    1.088   1_655 S
C1047  C1052   1.401   .     A
C1047  O1075   1.386   .     S
C1047  C1361   1.381   1_545 S
C1048  O1083   1.383   .     S
C1048  C1051   1.401   .     A
C1048  C1206   1.375   .     S
C1049  C1051   1.395   .     A
C1049  H1059   1.084   .     S
C1049  C1203   1.381   .     S
C1050  C1052   1.394   .     A
C1050  H1060   1.085   .     S
C1050  C1360   1.375   1_545 S
C1053  H1061   1.082   .     S
C1053  N1064   1.362   .     A
C1054  N1063   1.362   .     A
C1054  H1062   1.082   .     S
C1054  C120    1.416   1_556 S
C1055  Cl1091  1.754   .     S
C1055  N1063   1.374   .     A
C1055  C117    1.416   1_556 S
C1056  N1064   1.374   .     A
C1056  Cl1092  1.753   .     S
H1057  C941    1.088   1_655 S
N1063  Zn1073  2.016   .     S
N1064  Zn1074  2.016   .     S
O1065  Zn1073  1.986   .     S
O1066  Zn1074  1.986   .     S
O1067  Zn1074  1.990   .     S
O1068  Zn1073  1.990   .     S
O1069  Zn1073  1.963   .     S
O1070  Zn1074  1.963   .     S
O1071  Zn1074  1.978   .     S
O1072  Zn1073  1.978   .     S
O1075  C1076   1.413   .     S
C1076  H1077   1.115   .     S
C1076  H1078   1.112   .     S
C1076  C1079   1.522   .     S
C1079  H1082   1.110   .     S
C1079  H1081   1.111   .     S
C1079  H1080   1.111   .     S
O1083  C1084   1.412   .     S
C1084  C1087   1.521   .     S
C1084  H1086   1.116   .     S
C1084  H1085   1.114   .     S
C1087  H1090   1.110   .     S
C1087  H1088   1.111   .     S
H1089  C983    1.111   1_655 S
C1093  O1117   1.283   .     A
C1093  C1104   1.410   .     S
C1093  O1119   1.282   .     A
C1094  O1118   1.282   .     A
C1094  C1103   1.410   .     S
C1094  O1120   1.283   .     A
C1095  O1123   1.284   .     A
C1095  O1121   1.278   .     A
C1095  C1097   1.402   .     S
C1096  O1124   1.284   .     A
C1096  C1098   1.401   .     S
C1096  O1122   1.278   .     A
C1097  C1202   1.332   1_455 S
C1097  H1213   1.088   1_455 S
C1098  C1149   1.332   .     S
C1098  H1162   1.088   .     S
C1099  C1104   1.401   .     A
C1099  O1127   1.386   .     S
C1100  O1135   1.383   .     S
C1100  C1103   1.401   .     A
C1100  C1258   1.375   .     S
C1101  C1103   1.395   .     A
C1101  H1111   1.084   .     S
C1101  C1255   1.381   .     S
C1102  C1104   1.394   .     A
C1102  H1112   1.085   .     S
C1105  H1113   1.082   .     S
C1105  N1116   1.362   .     A
C1106  N1115   1.362   .     A
C1106  H1114   1.082   .     S
C1106  C172    1.416   1_556 S
C1107  Cl1143  1.754   .     S
C1107  N1115   1.374   .     A
C1107  C169    1.416   1_556 S
C1108  N1116   1.374   .     A
C1108  Cl1144  1.753   .     S
H1109  C1149   1.088   .     S
H1110  C1202   1.088   1_455 S
N1115  Zn1125  2.016   .     S
N1116  Zn1126  2.016   .     S
O1117  Zn1125  1.986   .     S
O1118  Zn1126  1.986   .     S
O1119  Zn1126  1.990   .     S
O1120  Zn1125  1.990   .     S
O1121  Zn1125  1.963   .     S
O1122  Zn1126  1.963   .     S
O1123  Zn1126  1.978   .     S
O1124  Zn1125  1.978   .     S
O1127  C1128   1.413   .     S
C1128  H1129   1.115   .     S
C1128  H1130   1.112   .     S
C1128  C1131   1.522   .     S
C1131  H1134   1.110   .     S
C1131  H1133   1.111   .     S
C1131  H1132   1.111   .     S
O1135  C1136   1.412   .     S
C1136  C1139   1.521   .     S
C1136  H1138   1.116   .     S
C1136  H1137   1.114   .     S
C1139  H1142   1.110   .     S
C1139  H1140   1.111   .     S
C1139  H1245   1.111   1_455 S
H1141  C1191   1.111   .     S
C1145  O1169   1.283   .     A
C1145  C1156   1.410   .     S
C1145  O1171   1.282   .     A
C1146  O1170   1.282   .     A
C1146  C1155   1.410   .     S
C1146  O1172   1.283   .     A
C1147  O1175   1.284   .     A
C1147  O1173   1.278   .     A
C1147  C1149   1.402   .     S
C1148  O1176   1.284   .     A
C1148  C1150   1.401   .     S
C1148  O1174   1.278   .     A
C1150  C1201   1.332   .     S
C1150  H1214   1.088   .     S
C1151  C1156   1.401   .     A
C1151  O1179   1.386   .     S
C1152  O1187   1.383   .     S
C1152  C1155   1.401   .     A
C1152  C1310   1.375   .     S
C1153  C1155   1.395   .     A
C1153  H1163   1.084   .     S
C1153  C1307   1.381   .     S
C1154  C1156   1.394   .     A
C1154  H1164   1.085   .     S
C1157  H1165   1.082   .     S
C1157  N1168   1.362   .     A
C1158  N1167   1.362   .     A
C1158  H1166   1.082   .     S
C1158  C224    1.416   1_556 S
C1159  Cl1195  1.754   .     S
C1159  N1167   1.374   .     A
C1159  C221    1.416   1_556 S
C1160  N1168   1.374   .     A
C1160  Cl1196  1.753   .     S
H1161  C1201   1.088   .     S
N1167  Zn1177  2.016   .     S
N1168  Zn1178  2.016   .     S
O1169  Zn1177  1.986   .     S
O1170  Zn1178  1.986   .     S
O1171  Zn1178  1.990   .     S
O1172  Zn1177  1.990   .     S
O1173  Zn1177  1.963   .     S
O1174  Zn1178  1.963   .     S
O1175  Zn1178  1.978   .     S
O1176  Zn1177  1.978   .     S
O1179  C1180   1.413   .     S
C1180  H1181   1.115   .     S
C1180  H1182   1.112   .     S
C1180  C1183   1.522   .     S
C1183  H1186   1.110   .     S
C1183  H1185   1.111   .     S
C1183  H1184   1.111   .     S
O1187  C1188   1.412   .     S
C1188  C1191   1.521   .     S
C1188  H1190   1.116   .     S
C1188  H1189   1.114   .     S
C1191  H1194   1.110   .     S
C1191  H1192   1.111   .     S
H1193  C1243   1.111   .     S
C1197  O1221   1.283   .     A
C1197  C1208   1.410   .     S
C1197  O1223   1.282   .     A
C1198  O1222   1.282   .     A
C1198  C1207   1.410   .     S
C1198  O1224   1.283   .     A
C1199  O1227   1.284   .     A
C1199  O1225   1.278   .     A
C1199  C1201   1.402   .     S
C1200  O1228   1.284   .     A
C1200  C1202   1.401   .     S
C1200  O1226   1.278   .     A
C1202  C1097   1.332   1_655 S
C1202  H1110   1.088   1_655 S
C1203  C1208   1.401   .     A
C1203  O1231   1.386   .     S
C1204  O1239   1.383   .     S
C1204  C1207   1.401   .     A
C1204  C1362   1.375   .     S
C1205  C1207   1.395   .     A
C1205  H1215   1.084   .     S
C1205  C1359   1.381   .     S
C1206  C1208   1.394   .     A
C1206  H1216   1.085   .     S
C1209  H1217   1.082   .     S
C1209  N1220   1.362   .     A
C1210  N1219   1.362   .     A
C1210  H1218   1.082   .     S
C1210  C276    1.416   1_556 S
C1211  Cl1247  1.754   .     S
C1211  N1219   1.374   .     A
C1211  C273    1.416   1_556 S
C1212  N1220   1.374   .     A
C1212  Cl1248  1.753   .     S
H1213  C1097   1.088   1_655 S
N1219  Zn1229  2.016   .     S
N1220  Zn1230  2.016   .     S
O1221  Zn1229  1.986   .     S
O1222  Zn1230  1.986   .     S
O1223  Zn1230  1.990   .     S
O1224  Zn1229  1.990   .     S
O1225  Zn1229  1.963   .     S
O1226  Zn1230  1.963   .     S
O1227  Zn1230  1.978   .     S
O1228  Zn1229  1.978   .     S
O1231  C1232   1.413   .     S
C1232  H1233   1.115   .     S
C1232  H1234   1.112   .     S
C1232  C1235   1.522   .     S
C1235  H1238   1.110   .     S
C1235  H1237   1.111   .     S
C1235  H1236   1.111   .     S
O1239  C1240   1.412   .     S
C1240  C1243   1.521   .     S
C1240  H1242   1.116   .     S
C1240  H1241   1.114   .     S
C1243  H1246   1.110   .     S
C1243  H1244   1.111   .     S
H1245  C1139   1.111   1_655 S
C1249  O1273   1.283   .     A
C1249  C1260   1.410   .     S
C1249  O1275   1.282   .     A
C1250  O1274   1.282   .     A
C1250  C1259   1.410   .     S
C1250  O1276   1.283   .     A
C1251  O1279   1.284   .     A
C1251  O1277   1.278   .     A
C1251  C1253   1.402   .     S
C1252  O1280   1.284   .     A
C1252  C1254   1.401   .     S
C1252  O1278   1.278   .     A
C1253  C1358   1.332   1_455 S
C1253  H1369   1.088   1_455 S
C1254  C1305   1.332   .     S
C1254  H1318   1.088   .     S
C1255  C1260   1.401   .     A
C1255  O1283   1.386   .     S
C1256  O1291   1.383   .     S
C1256  C1259   1.401   .     A
C1256  C946    1.375   1_565 S
C1257  C1259   1.395   .     A
C1257  H1267   1.084   .     S
C1257  C943    1.381   1_565 S
C1258  C1260   1.394   .     A
C1258  H1268   1.085   .     S
C1261  H1269   1.082   .     S
C1261  N1272   1.362   .     A
C1262  N1271   1.362   .     A
C1262  H1270   1.082   .     S
C1262  C328    1.416   1_556 S
C1263  Cl1299  1.754   .     S
C1263  N1271   1.374   .     A
C1263  C325    1.416   1_556 S
C1264  N1272   1.374   .     A
C1264  Cl1300  1.753   .     S
H1265  C1305   1.088   .     S
H1266  C1358   1.088   1_455 S
N1271  Zn1281  2.016   .     S
N1272  Zn1282  2.016   .     S
O1273  Zn1281  1.986   .     S
O1274  Zn1282  1.986   .     S
O1275  Zn1282  1.990   .     S
O1276  Zn1281  1.990   .     S
O1277  Zn1281  1.963   .     S
O1278  Zn1282  1.963   .     S
O1279  Zn1282  1.978   .     S
O1280  Zn1281  1.978   .     S
O1283  C1284   1.413   .     S
C1284  H1285   1.115   .     S
C1284  H1286   1.112   .     S
C1284  C1287   1.522   .     S
C1287  H1290   1.110   .     S
C1287  H1289   1.111   .     S
C1287  H1288   1.111   .     S
O1291  C1292   1.412   .     S
C1292  C1295   1.521   .     S
C1292  H1294   1.116   .     S
C1292  H1293   1.114   .     S
C1295  H1298   1.110   .     S
C1295  H1296   1.111   .     S
C1295  H1401   1.111   1_455 S
H1297  C1347   1.111   .     S
C1301  O1325   1.283   .     A
C1301  C1312   1.410   .     S
C1301  O1327   1.282   .     A
C1302  O1326   1.282   .     A
C1302  C1311   1.410   .     S
C1302  O1328   1.283   .     A
C1303  O1331   1.284   .     A
C1303  O1329   1.278   .     A
C1303  C1305   1.402   .     S
C1304  O1332   1.284   .     A
C1304  C1306   1.401   .     S
C1304  O1330   1.278   .     A
C1306  C1357   1.332   .     S
C1306  H1370   1.088   .     S
C1307  C1312   1.401   .     A
C1307  O1335   1.386   .     S
C1308  O1343   1.383   .     S
C1308  C1311   1.401   .     A
C1308  C998    1.375   1_565 S
C1309  C1311   1.395   .     A
C1309  H1319   1.084   .     S
C1309  C995    1.381   1_565 S
C1310  C1312   1.394   .     A
C1310  H1320   1.085   .     S
C1313  H1321   1.082   .     S
C1313  N1324   1.362   .     A
C1314  N1323   1.362   .     A
C1314  H1322   1.082   .     S
C1314  C380    1.416   1_556 S
C1315  Cl1351  1.754   .     S
C1315  N1323   1.374   .     A
C1315  C377    1.416   1_556 S
C1316  N1324   1.374   .     A
C1316  Cl1352  1.753   .     S
H1317  C1357   1.088   .     S
N1323  Zn1333  2.016   .     S
N1324  Zn1334  2.016   .     S
O1325  Zn1333  1.986   .     S
O1326  Zn1334  1.986   .     S
O1327  Zn1334  1.990   .     S
O1328  Zn1333  1.990   .     S
O1329  Zn1333  1.963   .     S
O1330  Zn1334  1.963   .     S
O1331  Zn1334  1.978   .     S
O1332  Zn1333  1.978   .     S
O1335  C1336   1.413   .     S
C1336  H1337   1.115   .     S
C1336  H1338   1.112   .     S
C1336  C1339   1.522   .     S
C1339  H1342   1.110   .     S
C1339  H1341   1.111   .     S
C1339  H1340   1.111   .     S
O1343  C1344   1.412   .     S
C1344  C1347   1.521   .     S
C1344  H1346   1.116   .     S
C1344  H1345   1.114   .     S
C1347  H1350   1.110   .     S
C1347  H1348   1.111   .     S
H1349  C1399   1.111   .     S
C1353  O1377   1.283   .     A
C1353  C1364   1.410   .     S
C1353  O1379   1.282   .     A
C1354  O1378   1.282   .     A
C1354  C1363   1.410   .     S
C1354  O1380   1.283   .     A
C1355  O1383   1.284   .     A
C1355  O1381   1.278   .     A
C1355  C1357   1.402   .     S
C1356  O1384   1.284   .     A
C1356  C1358   1.401   .     S
C1356  O1382   1.278   .     A
C1358  C1253   1.332   1_655 S
C1358  H1266   1.088   1_655 S
C1359  C1364   1.401   .     A
C1359  O1387   1.386   .     S
C1360  O1395   1.383   .     S
C1360  C1363   1.401   .     A
C1360  C1050   1.375   1_565 S
C1361  C1363   1.395   .     A
C1361  H1371   1.084   .     S
C1361  C1047   1.381   1_565 S
C1362  C1364   1.394   .     A
C1362  H1372   1.085   .     S
C1365  H1373   1.082   .     S
C1365  N1376   1.362   .     A
C1366  N1375   1.362   .     A
C1366  H1374   1.082   .     S
C1366  C432    1.416   1_556 S
C1367  Cl1403  1.754   .     S
C1367  N1375   1.374   .     A
C1367  C429    1.416   1_556 S
C1368  N1376   1.374   .     A
C1368  Cl1404  1.753   .     S
H1369  C1253   1.088   1_655 S
N1375  Zn1385  2.016   .     S
N1376  Zn1386  2.016   .     S
O1377  Zn1385  1.986   .     S
O1378  Zn1386  1.986   .     S
O1379  Zn1386  1.990   .     S
O1380  Zn1385  1.990   .     S
O1381  Zn1385  1.963   .     S
O1382  Zn1386  1.963   .     S
O1383  Zn1386  1.978   .     S
O1384  Zn1385  1.978   .     S
O1387  C1388   1.413   .     S
C1388  H1389   1.115   .     S
C1388  H1390   1.112   .     S
C1388  C1391   1.522   .     S
C1391  H1394   1.110   .     S
C1391  H1393   1.111   .     S
C1391  H1392   1.111   .     S
O1395  C1396   1.412   .     S
C1396  C1399   1.521   .     S
C1396  H1398   1.116   .     S
C1396  H1397   1.114   .     S
C1399  H1402   1.110   .     S
C1399  H1400   1.111   .     S
H1401  C1295   1.111   1_655 S
