data_str_m3_o1_o18_pcu_sym.10
_audit_creation_date              2020-01-03
_audit_creation_method            'Materials Studio'
_symmetry_space_group_name_H-M    'P1'
_symmetry_Int_Tables_number       1
_symmetry_cell_setting            triclinic
loop_
_symmetry_equiv_pos_as_xyz
  x,y,z
_cell_length_a                    30.1380
_cell_length_b                    31.8871
_cell_length_c                    29.3023
_cell_angle_alpha                 90.0959
_cell_angle_beta                  71.5267
_cell_angle_gamma                 89.8219
loop_
_atom_site_label
_atom_site_type_symbol
_atom_site_fract_x
_atom_site_fract_y
_atom_site_fract_z
_atom_site_U_iso_or_equiv
_atom_site_adp_type
_atom_site_occupancy
O1     O     0.12846   0.22775   0.25001   0.00000  Uiso   1.00
O2     O     0.20488   0.10558   0.25000   0.00000  Uiso   1.00
O3     O     0.20490   0.22774   0.25000   0.00000  Uiso   1.00
O4     O     0.12843   0.10559   0.25000   0.00000  Uiso   1.00
C5     C     0.16718   0.24635   0.24831   0.00000  Uiso   1.00
C6     C     0.16637   0.08698   0.25115   0.00000  Uiso   1.00
O7     O     0.10661   0.16667   0.31613   0.00000  Uiso   1.00
O8     O     0.22672   0.16666   0.18388   0.00000  Uiso   1.00
O9     O     0.18305   0.16666   0.31612   0.00000  Uiso   1.00
O10    O     0.15028   0.16667   0.18388   0.00000  Uiso   1.00
C11    C     0.13755   0.16769   0.33904   0.00000  Uiso   1.00
C12    C     0.19522   0.16742   0.16128   0.00000  Uiso   1.00
Zn13   Zn    0.11562   0.16667   0.25000   0.00000  Uiso   1.00
Zn14   Zn    0.21771   0.16666   0.25000   0.00000  Uiso   1.00
C15    C     0.12085   0.17776   0.39147   0.00000  Uiso   1.00
C16    C     0.20892   0.17766   0.10956   0.00000  Uiso   1.00
C17    C     0.06224   0.18048   0.47077   0.00000  Uiso   1.00
C18    C     0.26282   0.17910   0.02830   0.00000  Uiso   1.00
C19    C     0.07692   0.16508   0.42341   0.00000  Uiso   1.00
C20    C     0.24977   0.16243   0.07513   0.00000  Uiso   1.00
C21    C     0.14960   0.20282   0.40976   0.00000  Uiso   1.00
C22    C     0.17869   0.20394   0.09484   0.00000  Uiso   1.00
C23    C     0.13492   0.21770   0.45765   0.00000  Uiso   1.00
C24    C     0.18976   0.21828   0.04738   0.00000  Uiso   1.00
C25    C     0.08955   0.20793   0.48789   0.00000  Uiso   1.00
C26    C     0.23471   0.20891   0.01491   0.00000  Uiso   1.00
C27    C     0.16654   0.23636   0.47844   0.00000  Uiso   1.00
C28    C     0.15513   0.23492   0.02878   0.00000  Uiso   1.00
C29    C     0.10746   0.23914   0.05626   0.00000  Uiso   1.00
C30    C     0.21312   0.24484   0.45184   0.00000  Uiso   1.00
C31    C     0.07394   0.22353   0.03582   0.00000  Uiso   1.00
C32    C     0.24804   0.22686   0.46833   0.00000  Uiso   1.00
H33    H     0.14545   0.21155   0.12080   0.00000  Uiso   1.00
H34    H     0.18445   0.20927   0.38677   0.00000  Uiso   1.00
H35    H     0.03018   0.16920   0.49526   0.00000  Uiso   1.00
H36    H     0.29231   0.16593   0.00094   0.00000  Uiso   1.00
C37    C     0.20278   0.31294   0.21268   0.00000  Uiso   1.00
C38    C     0.13169   0.02041   0.28683   0.00000  Uiso   1.00
C39    C     0.20160   0.02274   0.21582   0.00000  Uiso   1.00
C40    C     0.13245   0.31069   0.28349   0.00000  Uiso   1.00
H41    H     0.22734   0.04113   0.18918   0.00000  Uiso   1.00
H42    H     0.10715   0.29252   0.31076   0.00000  Uiso   1.00
C43    C     0.16647   0.04273   0.25206   0.00000  Uiso   1.00
C44    C     0.16740   0.29061   0.24706   0.00000  Uiso   1.00
C45    C     0.31446   0.13226   0.23508   0.00000  Uiso   1.00
C46    C     0.01921   0.20114   0.26465   0.00000  Uiso   1.00
C47    C     0.02900   0.13269   0.23385   0.00000  Uiso   1.00
C48    C     0.30543   0.20146   0.26356   0.00000  Uiso   1.00
N49    N     0.04759   0.16668   0.25001   0.00000  Uiso   1.00
N50    N     0.28574   0.16666   0.24999   0.00000  Uiso   1.00
C51    C     0.02342   0.22441   0.06298   0.00000  Uiso   1.00
O52    O     0.00802   0.20355   0.09954   0.00000  Uiso   1.00
O53    O     0.32697   0.24940   0.04644   0.00000  Uiso   1.00
H54    H     0.29336   0.24835   0.06821   0.00000  Uiso   1.00
C55    C     0.29661   0.22486   0.43604   0.00000  Uiso   1.00
O56    O     0.30502   0.20736   0.39712   0.00000  Uiso   1.00
O57    O     0.33200   0.24508   0.44873   0.00000  Uiso   1.00
H58    H     0.02975   0.24436   0.42198   0.00000  Uiso   1.00
N59    N     0.27484   0.12730   0.08570   0.00000  Uiso   1.00
O60    O     0.31879   0.12142   0.06178   0.00000  Uiso   1.00
O61    O     0.25185   0.09714   0.11278   0.00000  Uiso   1.00
N62    N     0.04867   0.13368   0.41088   0.00000  Uiso   1.00
O63    O     0.03134   0.13986   0.37609   0.00000  Uiso   1.00
O64    O     0.03226   0.10295   0.44055   0.00000  Uiso   1.00
C65    C     0.09458   0.26447   0.10166   0.00000  Uiso   1.00
O66    O     0.05609   0.26145   0.13201   0.00000  Uiso   1.00
O67    O     0.12752   0.29193   0.10968   0.00000  Uiso   1.00
H68    H     0.11543   0.30701   0.14177   0.00000  Uiso   1.00
C69    C     0.22306   0.27642   0.41230   0.00000  Uiso   1.00
O70    O     0.26287   0.28893   0.39266   0.00000  Uiso   1.00
O71    O     0.18607   0.29368   0.39923   0.00000  Uiso   1.00
H72    H     0.19691   0.31500   0.37238   0.00000  Uiso   1.00
C73    C     0.24066   0.29314   0.17294   0.00000  Uiso   1.00
O74    O     0.23485   0.25908   0.15664   0.00000  Uiso   1.00
O75    O     0.28306   0.31427   0.15341   0.00000  Uiso   1.00
H76    H     0.30643   0.29787   0.12685   0.00000  Uiso   1.00
C77    C     0.09610   0.04046   0.32819   0.00000  Uiso   1.00
O78    O     0.10557   0.07234   0.34625   0.00000  Uiso   1.00
O79    O     0.05218   0.02186   0.34769   0.00000  Uiso   1.00
H80    H     0.03101   0.03818   0.37600   0.00000  Uiso   1.00
N81    N     0.29727   0.09562   0.21858   0.00000  Uiso   1.00
O82    O     0.28493   0.06370   0.24739   0.00000  Uiso   1.00
O83    O     0.30715   0.08967   0.17253   0.00000  Uiso   1.00
N84    N     0.03634   0.23714   0.28267   0.00000  Uiso   1.00
O85    O     0.04300   0.27218   0.25881   0.00000  Uiso   1.00
O86    O     0.04524   0.23506   0.32318   0.00000  Uiso   1.00
N87    N     0.05841   0.09781   0.21310   0.00000  Uiso   1.00
O88    O     0.04945   0.06078   0.23233   0.00000  Uiso   1.00
O89    O     0.09094   0.10202   0.17185   0.00000  Uiso   1.00
N90    N     0.27816   0.23848   0.27861   0.00000  Uiso   1.00
O91    O     0.28832   0.27263   0.25329   0.00000  Uiso   1.00
O92    O     0.24373   0.23849   0.31856   0.00000  Uiso   1.00
O93    O     0.46179   0.22775   0.25001   0.00000  Uiso   1.00
O94    O     0.53821   0.10558   0.25000   0.00000  Uiso   1.00
O95    O     0.53823   0.22774   0.25000   0.00000  Uiso   1.00
O96    O     0.46177   0.10559   0.25000   0.00000  Uiso   1.00
C97    C     0.50051   0.24635   0.24831   0.00000  Uiso   1.00
C98    C     0.49971   0.08698   0.25115   0.00000  Uiso   1.00
O99    O     0.43994   0.16667   0.31613   0.00000  Uiso   1.00
O100   O     0.56006   0.16666   0.18388   0.00000  Uiso   1.00
O101   O     0.51639   0.16666   0.31612   0.00000  Uiso   1.00
O102   O     0.48361   0.16667   0.18388   0.00000  Uiso   1.00
C103   C     0.47089   0.16769   0.33904   0.00000  Uiso   1.00
C104   C     0.52855   0.16742   0.16128   0.00000  Uiso   1.00
Zn105  Zn    0.44896   0.16667   0.25000   0.00000  Uiso   1.00
Zn106  Zn    0.55104   0.16666   0.25000   0.00000  Uiso   1.00
C107   C     0.45418   0.17776   0.39147   0.00000  Uiso   1.00
C108   C     0.54226   0.17766   0.10956   0.00000  Uiso   1.00
C109   C     0.39558   0.18048   0.47077   0.00000  Uiso   1.00
C110   C     0.59615   0.17910   0.02830   0.00000  Uiso   1.00
C111   C     0.41025   0.16508   0.42341   0.00000  Uiso   1.00
C112   C     0.58310   0.16243   0.07513   0.00000  Uiso   1.00
C113   C     0.48293   0.20282   0.40976   0.00000  Uiso   1.00
C114   C     0.51202   0.20394   0.09484   0.00000  Uiso   1.00
C115   C     0.46826   0.21770   0.45765   0.00000  Uiso   1.00
C116   C     0.52310   0.21828   0.04738   0.00000  Uiso   1.00
C117   C     0.42289   0.20793   0.48789   0.00000  Uiso   1.00
C118   C     0.56804   0.20891   0.01491   0.00000  Uiso   1.00
C119   C     0.49987   0.23636   0.47844   0.00000  Uiso   1.00
C120   C     0.48846   0.23492   0.02878   0.00000  Uiso   1.00
C121   C     0.44080   0.23914   0.05626   0.00000  Uiso   1.00
C122   C     0.54645   0.24484   0.45184   0.00000  Uiso   1.00
C123   C     0.40727   0.22353   0.03582   0.00000  Uiso   1.00
C124   C     0.58137   0.22686   0.46833   0.00000  Uiso   1.00
H125   H     0.47878   0.21155   0.12080   0.00000  Uiso   1.00
H126   H     0.51779   0.20927   0.38677   0.00000  Uiso   1.00
H127   H     0.36351   0.16920   0.49526   0.00000  Uiso   1.00
H128   H     0.62565   0.16593   0.00094   0.00000  Uiso   1.00
C129   C     0.53611   0.31294   0.21268   0.00000  Uiso   1.00
C130   C     0.46502   0.02041   0.28683   0.00000  Uiso   1.00
C131   C     0.53493   0.02274   0.21582   0.00000  Uiso   1.00
C132   C     0.46578   0.31069   0.28349   0.00000  Uiso   1.00
H133   H     0.56067   0.04113   0.18918   0.00000  Uiso   1.00
H134   H     0.44048   0.29252   0.31076   0.00000  Uiso   1.00
C135   C     0.49980   0.04273   0.25206   0.00000  Uiso   1.00
C136   C     0.50073   0.29061   0.24706   0.00000  Uiso   1.00
C137   C     0.64780   0.13226   0.23508   0.00000  Uiso   1.00
C138   C     0.35254   0.20114   0.26465   0.00000  Uiso   1.00
C139   C     0.36234   0.13269   0.23385   0.00000  Uiso   1.00
C140   C     0.63877   0.20146   0.26356   0.00000  Uiso   1.00
N141   N     0.38093   0.16668   0.25001   0.00000  Uiso   1.00
N142   N     0.61907   0.16666   0.24999   0.00000  Uiso   1.00
C143   C     0.35675   0.22441   0.06298   0.00000  Uiso   1.00
O144   O     0.34135   0.20355   0.09954   0.00000  Uiso   1.00
O145   O     0.66030   0.24940   0.04644   0.00000  Uiso   1.00
H146   H     0.62670   0.24835   0.06821   0.00000  Uiso   1.00
C147   C     0.62995   0.22486   0.43604   0.00000  Uiso   1.00
O148   O     0.63835   0.20736   0.39712   0.00000  Uiso   1.00
O149   O     0.66534   0.24508   0.44873   0.00000  Uiso   1.00
H150   H     0.36309   0.24436   0.42198   0.00000  Uiso   1.00
N151   N     0.60817   0.12730   0.08570   0.00000  Uiso   1.00
O152   O     0.65212   0.12142   0.06178   0.00000  Uiso   1.00
O153   O     0.58518   0.09714   0.11278   0.00000  Uiso   1.00
N154   N     0.38200   0.13368   0.41088   0.00000  Uiso   1.00
O155   O     0.36467   0.13986   0.37609   0.00000  Uiso   1.00
O156   O     0.36559   0.10295   0.44055   0.00000  Uiso   1.00
C157   C     0.42792   0.26447   0.10166   0.00000  Uiso   1.00
O158   O     0.38943   0.26145   0.13201   0.00000  Uiso   1.00
O159   O     0.46085   0.29193   0.10968   0.00000  Uiso   1.00
H160   H     0.44876   0.30701   0.14177   0.00000  Uiso   1.00
C161   C     0.55639   0.27642   0.41230   0.00000  Uiso   1.00
O162   O     0.59620   0.28893   0.39266   0.00000  Uiso   1.00
O163   O     0.51940   0.29368   0.39923   0.00000  Uiso   1.00
H164   H     0.53025   0.31500   0.37238   0.00000  Uiso   1.00
C165   C     0.57400   0.29314   0.17294   0.00000  Uiso   1.00
O166   O     0.56819   0.25908   0.15664   0.00000  Uiso   1.00
O167   O     0.61639   0.31427   0.15341   0.00000  Uiso   1.00
H168   H     0.63977   0.29787   0.12685   0.00000  Uiso   1.00
C169   C     0.42943   0.04046   0.32819   0.00000  Uiso   1.00
O170   O     0.43891   0.07234   0.34625   0.00000  Uiso   1.00
O171   O     0.38552   0.02186   0.34769   0.00000  Uiso   1.00
H172   H     0.36434   0.03818   0.37600   0.00000  Uiso   1.00
N173   N     0.63060   0.09562   0.21858   0.00000  Uiso   1.00
O174   O     0.61827   0.06370   0.24739   0.00000  Uiso   1.00
O175   O     0.64048   0.08967   0.17253   0.00000  Uiso   1.00
N176   N     0.36967   0.23714   0.28267   0.00000  Uiso   1.00
O177   O     0.37633   0.27218   0.25881   0.00000  Uiso   1.00
O178   O     0.37858   0.23506   0.32318   0.00000  Uiso   1.00
N179   N     0.39174   0.09781   0.21310   0.00000  Uiso   1.00
O180   O     0.38278   0.06078   0.23233   0.00000  Uiso   1.00
O181   O     0.42427   0.10202   0.17185   0.00000  Uiso   1.00
N182   N     0.61150   0.23848   0.27861   0.00000  Uiso   1.00
O183   O     0.62165   0.27263   0.25329   0.00000  Uiso   1.00
O184   O     0.57706   0.23849   0.31856   0.00000  Uiso   1.00
O185   O     0.79512   0.22775   0.25001   0.00000  Uiso   1.00
O186   O     0.87154   0.10558   0.25000   0.00000  Uiso   1.00
O187   O     0.87157   0.22774   0.25000   0.00000  Uiso   1.00
O188   O     0.79510   0.10559   0.25000   0.00000  Uiso   1.00
C189   C     0.83385   0.24635   0.24831   0.00000  Uiso   1.00
C190   C     0.83304   0.08698   0.25115   0.00000  Uiso   1.00
O191   O     0.77328   0.16667   0.31613   0.00000  Uiso   1.00
O192   O     0.89339   0.16666   0.18388   0.00000  Uiso   1.00
O193   O     0.84972   0.16666   0.31612   0.00000  Uiso   1.00
O194   O     0.81695   0.16667   0.18388   0.00000  Uiso   1.00
C195   C     0.80422   0.16769   0.33904   0.00000  Uiso   1.00
C196   C     0.86188   0.16742   0.16128   0.00000  Uiso   1.00
Zn197  Zn    0.78229   0.16667   0.25000   0.00000  Uiso   1.00
Zn198  Zn    0.88438   0.16666   0.25000   0.00000  Uiso   1.00
C199   C     0.78751   0.17776   0.39147   0.00000  Uiso   1.00
C200   C     0.87559   0.17766   0.10956   0.00000  Uiso   1.00
C201   C     0.72891   0.18048   0.47077   0.00000  Uiso   1.00
C202   C     0.92949   0.17910   0.02830   0.00000  Uiso   1.00
C203   C     0.74358   0.16508   0.42341   0.00000  Uiso   1.00
C204   C     0.91643   0.16243   0.07513   0.00000  Uiso   1.00
C205   C     0.81627   0.20282   0.40976   0.00000  Uiso   1.00
C206   C     0.84535   0.20394   0.09484   0.00000  Uiso   1.00
C207   C     0.80159   0.21770   0.45765   0.00000  Uiso   1.00
C208   C     0.85643   0.21828   0.04738   0.00000  Uiso   1.00
C209   C     0.75622   0.20793   0.48789   0.00000  Uiso   1.00
C210   C     0.90137   0.20891   0.01491   0.00000  Uiso   1.00
C211   C     0.83320   0.23636   0.47844   0.00000  Uiso   1.00
C212   C     0.82180   0.23492   0.02878   0.00000  Uiso   1.00
C213   C     0.77413   0.23914   0.05626   0.00000  Uiso   1.00
C214   C     0.87979   0.24484   0.45184   0.00000  Uiso   1.00
C215   C     0.74061   0.22353   0.03582   0.00000  Uiso   1.00
C216   C     0.91471   0.22686   0.46833   0.00000  Uiso   1.00
H217   H     0.81211   0.21155   0.12080   0.00000  Uiso   1.00
H218   H     0.85112   0.20927   0.38677   0.00000  Uiso   1.00
H219   H     0.69685   0.16920   0.49526   0.00000  Uiso   1.00
H220   H     0.95898   0.16593   0.00094   0.00000  Uiso   1.00
C221   C     0.86944   0.31294   0.21268   0.00000  Uiso   1.00
C222   C     0.79835   0.02041   0.28683   0.00000  Uiso   1.00
C223   C     0.86827   0.02274   0.21582   0.00000  Uiso   1.00
C224   C     0.79912   0.31069   0.28349   0.00000  Uiso   1.00
H225   H     0.89400   0.04113   0.18918   0.00000  Uiso   1.00
H226   H     0.77382   0.29252   0.31076   0.00000  Uiso   1.00
C227   C     0.83313   0.04273   0.25206   0.00000  Uiso   1.00
C228   C     0.83406   0.29061   0.24706   0.00000  Uiso   1.00
C229   C     0.98113   0.13226   0.23508   0.00000  Uiso   1.00
C230   C     0.68587   0.20114   0.26465   0.00000  Uiso   1.00
C231   C     0.69567   0.13269   0.23385   0.00000  Uiso   1.00
C232   C     0.97210   0.20146   0.26356   0.00000  Uiso   1.00
N233   N     0.71426   0.16668   0.25001   0.00000  Uiso   1.00
N234   N     0.95241   0.16666   0.24999   0.00000  Uiso   1.00
C235   C     0.69009   0.22441   0.06298   0.00000  Uiso   1.00
O236   O     0.67468   0.20355   0.09954   0.00000  Uiso   1.00
O237   O     0.99364   0.24940   0.04644   0.00000  Uiso   1.00
H238   H     0.96003   0.24835   0.06821   0.00000  Uiso   1.00
C239   C     0.96328   0.22486   0.43604   0.00000  Uiso   1.00
O240   O     0.97169   0.20736   0.39712   0.00000  Uiso   1.00
O241   O     0.99867   0.24508   0.44873   0.00000  Uiso   1.00
H242   H     0.69642   0.24436   0.42198   0.00000  Uiso   1.00
N243   N     0.94150   0.12730   0.08570   0.00000  Uiso   1.00
O244   O     0.98546   0.12142   0.06178   0.00000  Uiso   1.00
O245   O     0.91852   0.09714   0.11278   0.00000  Uiso   1.00
N246   N     0.71533   0.13368   0.41088   0.00000  Uiso   1.00
O247   O     0.69801   0.13986   0.37609   0.00000  Uiso   1.00
O248   O     0.69893   0.10295   0.44055   0.00000  Uiso   1.00
C249   C     0.76125   0.26447   0.10166   0.00000  Uiso   1.00
O250   O     0.72276   0.26145   0.13201   0.00000  Uiso   1.00
O251   O     0.79418   0.29193   0.10968   0.00000  Uiso   1.00
H252   H     0.78209   0.30701   0.14177   0.00000  Uiso   1.00
C253   C     0.88973   0.27642   0.41230   0.00000  Uiso   1.00
O254   O     0.92953   0.28893   0.39266   0.00000  Uiso   1.00
O255   O     0.85273   0.29368   0.39923   0.00000  Uiso   1.00
H256   H     0.86358   0.31500   0.37238   0.00000  Uiso   1.00
C257   C     0.90733   0.29314   0.17294   0.00000  Uiso   1.00
O258   O     0.90152   0.25908   0.15664   0.00000  Uiso   1.00
O259   O     0.94973   0.31427   0.15341   0.00000  Uiso   1.00
H260   H     0.97310   0.29787   0.12685   0.00000  Uiso   1.00
C261   C     0.76277   0.04046   0.32819   0.00000  Uiso   1.00
O262   O     0.77224   0.07234   0.34625   0.00000  Uiso   1.00
O263   O     0.71885   0.02186   0.34769   0.00000  Uiso   1.00
H264   H     0.69768   0.03818   0.37600   0.00000  Uiso   1.00
N265   N     0.96393   0.09562   0.21858   0.00000  Uiso   1.00
O266   O     0.95160   0.06370   0.24739   0.00000  Uiso   1.00
O267   O     0.97381   0.08967   0.17253   0.00000  Uiso   1.00
N268   N     0.70300   0.23714   0.28267   0.00000  Uiso   1.00
O269   O     0.70967   0.27218   0.25881   0.00000  Uiso   1.00
O270   O     0.71191   0.23506   0.32318   0.00000  Uiso   1.00
N271   N     0.72508   0.09781   0.21310   0.00000  Uiso   1.00
O272   O     0.71611   0.06078   0.23233   0.00000  Uiso   1.00
O273   O     0.75761   0.10202   0.17185   0.00000  Uiso   1.00
N274   N     0.94483   0.23848   0.27861   0.00000  Uiso   1.00
O275   O     0.95498   0.27263   0.25329   0.00000  Uiso   1.00
O276   O     0.91040   0.23849   0.31856   0.00000  Uiso   1.00
O277   O     0.12846   0.56108   0.25001   0.00000  Uiso   1.00
O278   O     0.20488   0.43892   0.25000   0.00000  Uiso   1.00
O279   O     0.20490   0.56107   0.25000   0.00000  Uiso   1.00
O280   O     0.12843   0.43893   0.25000   0.00000  Uiso   1.00
C281   C     0.16718   0.57968   0.24831   0.00000  Uiso   1.00
C282   C     0.16637   0.42031   0.25115   0.00000  Uiso   1.00
O283   O     0.10661   0.50001   0.31613   0.00000  Uiso   1.00
O284   O     0.22672   0.49999   0.18388   0.00000  Uiso   1.00
O285   O     0.18305   0.50000   0.31612   0.00000  Uiso   1.00
O286   O     0.15028   0.50000   0.18388   0.00000  Uiso   1.00
C287   C     0.13755   0.50102   0.33904   0.00000  Uiso   1.00
C288   C     0.19522   0.50076   0.16128   0.00000  Uiso   1.00
Zn289  Zn    0.11562   0.50001   0.25000   0.00000  Uiso   1.00
Zn290  Zn    0.21771   0.49999   0.25000   0.00000  Uiso   1.00
C291   C     0.12085   0.51110   0.39147   0.00000  Uiso   1.00
C292   C     0.20892   0.51100   0.10956   0.00000  Uiso   1.00
C293   C     0.06224   0.51381   0.47077   0.00000  Uiso   1.00
C294   C     0.26282   0.51243   0.02830   0.00000  Uiso   1.00
C295   C     0.07692   0.49842   0.42341   0.00000  Uiso   1.00
C296   C     0.24977   0.49577   0.07513   0.00000  Uiso   1.00
C297   C     0.14960   0.53615   0.40976   0.00000  Uiso   1.00
C298   C     0.17869   0.53727   0.09484   0.00000  Uiso   1.00
C299   C     0.13492   0.55103   0.45765   0.00000  Uiso   1.00
C300   C     0.18976   0.55161   0.04738   0.00000  Uiso   1.00
C301   C     0.08955   0.54127   0.48789   0.00000  Uiso   1.00
C302   C     0.23471   0.54225   0.01491   0.00000  Uiso   1.00
C303   C     0.16654   0.56969   0.47844   0.00000  Uiso   1.00
C304   C     0.15513   0.56825   0.02878   0.00000  Uiso   1.00
C305   C     0.10746   0.57247   0.05626   0.00000  Uiso   1.00
C306   C     0.21312   0.57818   0.45184   0.00000  Uiso   1.00
C307   C     0.07394   0.55686   0.03582   0.00000  Uiso   1.00
C308   C     0.24804   0.56020   0.46833   0.00000  Uiso   1.00
H309   H     0.14545   0.54488   0.12080   0.00000  Uiso   1.00
H310   H     0.18445   0.54260   0.38677   0.00000  Uiso   1.00
H311   H     0.03018   0.50253   0.49526   0.00000  Uiso   1.00
H312   H     0.29231   0.49927   0.00094   0.00000  Uiso   1.00
C313   C     0.20278   0.64627   0.21268   0.00000  Uiso   1.00
C314   C     0.13169   0.35374   0.28683   0.00000  Uiso   1.00
C315   C     0.20160   0.35607   0.21582   0.00000  Uiso   1.00
C316   C     0.13245   0.64402   0.28349   0.00000  Uiso   1.00
H317   H     0.22734   0.37446   0.18918   0.00000  Uiso   1.00
H318   H     0.10715   0.62585   0.31076   0.00000  Uiso   1.00
C319   C     0.16647   0.37606   0.25206   0.00000  Uiso   1.00
C320   C     0.16740   0.62394   0.24706   0.00000  Uiso   1.00
C321   C     0.31446   0.46559   0.23508   0.00000  Uiso   1.00
C322   C     0.01921   0.53448   0.26465   0.00000  Uiso   1.00
C323   C     0.02900   0.46602   0.23385   0.00000  Uiso   1.00
C324   C     0.30543   0.53480   0.26356   0.00000  Uiso   1.00
N325   N     0.04759   0.50001   0.25001   0.00000  Uiso   1.00
N326   N     0.28574   0.49999   0.24999   0.00000  Uiso   1.00
C327   C     0.02342   0.55774   0.06298   0.00000  Uiso   1.00
O328   O     0.00802   0.53688   0.09954   0.00000  Uiso   1.00
O329   O     0.32697   0.58273   0.04644   0.00000  Uiso   1.00
H330   H     0.29336   0.58169   0.06821   0.00000  Uiso   1.00
C331   C     0.29661   0.55819   0.43604   0.00000  Uiso   1.00
O332   O     0.30502   0.54070   0.39712   0.00000  Uiso   1.00
O333   O     0.33200   0.57842   0.44873   0.00000  Uiso   1.00
H334   H     0.02975   0.57769   0.42198   0.00000  Uiso   1.00
N335   N     0.27484   0.46064   0.08570   0.00000  Uiso   1.00
O336   O     0.31879   0.45475   0.06178   0.00000  Uiso   1.00
O337   O     0.25185   0.43047   0.11278   0.00000  Uiso   1.00
N338   N     0.04867   0.46701   0.41088   0.00000  Uiso   1.00
O339   O     0.03134   0.47319   0.37609   0.00000  Uiso   1.00
O340   O     0.03226   0.43629   0.44055   0.00000  Uiso   1.00
C341   C     0.09458   0.59780   0.10166   0.00000  Uiso   1.00
O342   O     0.05609   0.59479   0.13201   0.00000  Uiso   1.00
O343   O     0.12752   0.62526   0.10968   0.00000  Uiso   1.00
H344   H     0.11543   0.64034   0.14177   0.00000  Uiso   1.00
C345   C     0.22306   0.60976   0.41230   0.00000  Uiso   1.00
O346   O     0.26287   0.62226   0.39266   0.00000  Uiso   1.00
O347   O     0.18607   0.62701   0.39923   0.00000  Uiso   1.00
H348   H     0.19691   0.64834   0.37238   0.00000  Uiso   1.00
C349   C     0.24066   0.62647   0.17294   0.00000  Uiso   1.00
O350   O     0.23485   0.59242   0.15664   0.00000  Uiso   1.00
O351   O     0.28306   0.64760   0.15341   0.00000  Uiso   1.00
H352   H     0.30643   0.63121   0.12685   0.00000  Uiso   1.00
C353   C     0.09610   0.37379   0.32819   0.00000  Uiso   1.00
O354   O     0.10557   0.40567   0.34625   0.00000  Uiso   1.00
O355   O     0.05218   0.35520   0.34769   0.00000  Uiso   1.00
H356   H     0.03101   0.37152   0.37600   0.00000  Uiso   1.00
N357   N     0.29727   0.42895   0.21858   0.00000  Uiso   1.00
O358   O     0.28493   0.39704   0.24739   0.00000  Uiso   1.00
O359   O     0.30715   0.42300   0.17253   0.00000  Uiso   1.00
N360   N     0.03634   0.57048   0.28267   0.00000  Uiso   1.00
O361   O     0.04300   0.60551   0.25881   0.00000  Uiso   1.00
O362   O     0.04524   0.56840   0.32318   0.00000  Uiso   1.00
N363   N     0.05841   0.43114   0.21310   0.00000  Uiso   1.00
O364   O     0.04945   0.39411   0.23233   0.00000  Uiso   1.00
O365   O     0.09094   0.43536   0.17185   0.00000  Uiso   1.00
N366   N     0.27816   0.57181   0.27861   0.00000  Uiso   1.00
O367   O     0.28832   0.60597   0.25329   0.00000  Uiso   1.00
O368   O     0.24373   0.57182   0.31856   0.00000  Uiso   1.00
O369   O     0.46179   0.56108   0.25001   0.00000  Uiso   1.00
O370   O     0.53821   0.43892   0.25000   0.00000  Uiso   1.00
O371   O     0.53823   0.56107   0.25000   0.00000  Uiso   1.00
O372   O     0.46177   0.43893   0.25000   0.00000  Uiso   1.00
C373   C     0.50051   0.57968   0.24831   0.00000  Uiso   1.00
C374   C     0.49971   0.42031   0.25115   0.00000  Uiso   1.00
O375   O     0.43994   0.50001   0.31613   0.00000  Uiso   1.00
O376   O     0.56006   0.49999   0.18388   0.00000  Uiso   1.00
O377   O     0.51639   0.50000   0.31612   0.00000  Uiso   1.00
O378   O     0.48361   0.50000   0.18388   0.00000  Uiso   1.00
C379   C     0.47089   0.50102   0.33904   0.00000  Uiso   1.00
C380   C     0.52855   0.50076   0.16128   0.00000  Uiso   1.00
Zn381  Zn    0.44896   0.50001   0.25000   0.00000  Uiso   1.00
Zn382  Zn    0.55104   0.49999   0.25000   0.00000  Uiso   1.00
C383   C     0.45418   0.51110   0.39147   0.00000  Uiso   1.00
C384   C     0.54226   0.51100   0.10956   0.00000  Uiso   1.00
C385   C     0.39558   0.51381   0.47077   0.00000  Uiso   1.00
C386   C     0.59615   0.51243   0.02830   0.00000  Uiso   1.00
C387   C     0.41025   0.49842   0.42341   0.00000  Uiso   1.00
C388   C     0.58310   0.49577   0.07513   0.00000  Uiso   1.00
C389   C     0.48293   0.53615   0.40976   0.00000  Uiso   1.00
C390   C     0.51202   0.53727   0.09484   0.00000  Uiso   1.00
C391   C     0.46826   0.55103   0.45765   0.00000  Uiso   1.00
C392   C     0.52310   0.55161   0.04738   0.00000  Uiso   1.00
C393   C     0.42289   0.54127   0.48789   0.00000  Uiso   1.00
C394   C     0.56804   0.54225   0.01491   0.00000  Uiso   1.00
C395   C     0.49987   0.56969   0.47844   0.00000  Uiso   1.00
C396   C     0.48846   0.56825   0.02878   0.00000  Uiso   1.00
C397   C     0.44080   0.57247   0.05626   0.00000  Uiso   1.00
C398   C     0.54645   0.57818   0.45184   0.00000  Uiso   1.00
C399   C     0.40727   0.55686   0.03582   0.00000  Uiso   1.00
C400   C     0.58137   0.56020   0.46833   0.00000  Uiso   1.00
H401   H     0.47878   0.54488   0.12080   0.00000  Uiso   1.00
H402   H     0.51779   0.54260   0.38677   0.00000  Uiso   1.00
H403   H     0.36351   0.50253   0.49526   0.00000  Uiso   1.00
H404   H     0.62565   0.49927   0.00094   0.00000  Uiso   1.00
C405   C     0.53611   0.64627   0.21268   0.00000  Uiso   1.00
C406   C     0.46502   0.35374   0.28683   0.00000  Uiso   1.00
C407   C     0.53493   0.35607   0.21582   0.00000  Uiso   1.00
C408   C     0.46578   0.64402   0.28349   0.00000  Uiso   1.00
H409   H     0.56067   0.37446   0.18918   0.00000  Uiso   1.00
H410   H     0.44048   0.62585   0.31076   0.00000  Uiso   1.00
C411   C     0.49980   0.37606   0.25206   0.00000  Uiso   1.00
C412   C     0.50073   0.62394   0.24706   0.00000  Uiso   1.00
C413   C     0.64780   0.46559   0.23508   0.00000  Uiso   1.00
C414   C     0.35254   0.53448   0.26465   0.00000  Uiso   1.00
C415   C     0.36234   0.46602   0.23385   0.00000  Uiso   1.00
C416   C     0.63877   0.53480   0.26356   0.00000  Uiso   1.00
N417   N     0.38093   0.50001   0.25001   0.00000  Uiso   1.00
N418   N     0.61907   0.49999   0.24999   0.00000  Uiso   1.00
C419   C     0.35675   0.55774   0.06298   0.00000  Uiso   1.00
O420   O     0.34135   0.53688   0.09954   0.00000  Uiso   1.00
O421   O     0.66030   0.58273   0.04644   0.00000  Uiso   1.00
H422   H     0.62670   0.58169   0.06821   0.00000  Uiso   1.00
C423   C     0.62995   0.55819   0.43604   0.00000  Uiso   1.00
O424   O     0.63835   0.54070   0.39712   0.00000  Uiso   1.00
O425   O     0.66534   0.57842   0.44873   0.00000  Uiso   1.00
H426   H     0.36309   0.57769   0.42198   0.00000  Uiso   1.00
N427   N     0.60817   0.46064   0.08570   0.00000  Uiso   1.00
O428   O     0.65212   0.45475   0.06178   0.00000  Uiso   1.00
O429   O     0.58518   0.43047   0.11278   0.00000  Uiso   1.00
N430   N     0.38200   0.46701   0.41088   0.00000  Uiso   1.00
O431   O     0.36467   0.47319   0.37609   0.00000  Uiso   1.00
O432   O     0.36559   0.43629   0.44055   0.00000  Uiso   1.00
C433   C     0.42792   0.59780   0.10166   0.00000  Uiso   1.00
O434   O     0.38943   0.59479   0.13201   0.00000  Uiso   1.00
O435   O     0.46085   0.62526   0.10968   0.00000  Uiso   1.00
H436   H     0.44876   0.64034   0.14177   0.00000  Uiso   1.00
C437   C     0.55639   0.60976   0.41230   0.00000  Uiso   1.00
O438   O     0.59620   0.62226   0.39266   0.00000  Uiso   1.00
O439   O     0.51940   0.62701   0.39923   0.00000  Uiso   1.00
H440   H     0.53025   0.64834   0.37238   0.00000  Uiso   1.00
C441   C     0.57400   0.62647   0.17294   0.00000  Uiso   1.00
O442   O     0.56819   0.59242   0.15664   0.00000  Uiso   1.00
O443   O     0.61639   0.64760   0.15341   0.00000  Uiso   1.00
H444   H     0.63977   0.63121   0.12685   0.00000  Uiso   1.00
C445   C     0.42943   0.37379   0.32819   0.00000  Uiso   1.00
O446   O     0.43891   0.40567   0.34625   0.00000  Uiso   1.00
O447   O     0.38552   0.35520   0.34769   0.00000  Uiso   1.00
H448   H     0.36434   0.37152   0.37600   0.00000  Uiso   1.00
N449   N     0.63060   0.42895   0.21858   0.00000  Uiso   1.00
O450   O     0.61827   0.39704   0.24739   0.00000  Uiso   1.00
O451   O     0.64048   0.42300   0.17253   0.00000  Uiso   1.00
N452   N     0.36967   0.57048   0.28267   0.00000  Uiso   1.00
O453   O     0.37633   0.60551   0.25881   0.00000  Uiso   1.00
O454   O     0.37858   0.56840   0.32318   0.00000  Uiso   1.00
N455   N     0.39174   0.43114   0.21310   0.00000  Uiso   1.00
O456   O     0.38278   0.39411   0.23233   0.00000  Uiso   1.00
O457   O     0.42427   0.43536   0.17185   0.00000  Uiso   1.00
N458   N     0.61150   0.57181   0.27861   0.00000  Uiso   1.00
O459   O     0.62165   0.60597   0.25329   0.00000  Uiso   1.00
O460   O     0.57706   0.57182   0.31856   0.00000  Uiso   1.00
O461   O     0.79512   0.56108   0.25001   0.00000  Uiso   1.00
O462   O     0.87154   0.43892   0.25000   0.00000  Uiso   1.00
O463   O     0.87157   0.56107   0.25000   0.00000  Uiso   1.00
O464   O     0.79510   0.43893   0.25000   0.00000  Uiso   1.00
C465   C     0.83385   0.57968   0.24831   0.00000  Uiso   1.00
C466   C     0.83304   0.42031   0.25115   0.00000  Uiso   1.00
O467   O     0.77328   0.50001   0.31613   0.00000  Uiso   1.00
O468   O     0.89339   0.49999   0.18388   0.00000  Uiso   1.00
O469   O     0.84972   0.50000   0.31612   0.00000  Uiso   1.00
O470   O     0.81695   0.50000   0.18388   0.00000  Uiso   1.00
C471   C     0.80422   0.50102   0.33904   0.00000  Uiso   1.00
C472   C     0.86188   0.50076   0.16128   0.00000  Uiso   1.00
Zn473  Zn    0.78229   0.50001   0.25000   0.00000  Uiso   1.00
Zn474  Zn    0.88438   0.49999   0.25000   0.00000  Uiso   1.00
C475   C     0.78751   0.51110   0.39147   0.00000  Uiso   1.00
C476   C     0.87559   0.51100   0.10956   0.00000  Uiso   1.00
C477   C     0.72891   0.51381   0.47077   0.00000  Uiso   1.00
C478   C     0.92949   0.51243   0.02830   0.00000  Uiso   1.00
C479   C     0.74358   0.49842   0.42341   0.00000  Uiso   1.00
C480   C     0.91643   0.49577   0.07513   0.00000  Uiso   1.00
C481   C     0.81627   0.53615   0.40976   0.00000  Uiso   1.00
C482   C     0.84535   0.53727   0.09484   0.00000  Uiso   1.00
C483   C     0.80159   0.55103   0.45765   0.00000  Uiso   1.00
C484   C     0.85643   0.55161   0.04738   0.00000  Uiso   1.00
C485   C     0.75622   0.54127   0.48789   0.00000  Uiso   1.00
C486   C     0.90137   0.54225   0.01491   0.00000  Uiso   1.00
C487   C     0.83320   0.56969   0.47844   0.00000  Uiso   1.00
C488   C     0.82180   0.56825   0.02878   0.00000  Uiso   1.00
C489   C     0.77413   0.57247   0.05626   0.00000  Uiso   1.00
C490   C     0.87979   0.57818   0.45184   0.00000  Uiso   1.00
C491   C     0.74061   0.55686   0.03582   0.00000  Uiso   1.00
C492   C     0.91471   0.56020   0.46833   0.00000  Uiso   1.00
H493   H     0.81211   0.54488   0.12080   0.00000  Uiso   1.00
H494   H     0.85112   0.54260   0.38677   0.00000  Uiso   1.00
H495   H     0.69685   0.50253   0.49526   0.00000  Uiso   1.00
H496   H     0.95898   0.49927   0.00094   0.00000  Uiso   1.00
C497   C     0.86944   0.64627   0.21268   0.00000  Uiso   1.00
C498   C     0.79835   0.35374   0.28683   0.00000  Uiso   1.00
C499   C     0.86827   0.35607   0.21582   0.00000  Uiso   1.00
C500   C     0.79912   0.64402   0.28349   0.00000  Uiso   1.00
H501   H     0.89400   0.37446   0.18918   0.00000  Uiso   1.00
H502   H     0.77382   0.62585   0.31076   0.00000  Uiso   1.00
C503   C     0.83313   0.37606   0.25206   0.00000  Uiso   1.00
C504   C     0.83406   0.62394   0.24706   0.00000  Uiso   1.00
C505   C     0.98113   0.46559   0.23508   0.00000  Uiso   1.00
C506   C     0.68587   0.53448   0.26465   0.00000  Uiso   1.00
C507   C     0.69567   0.46602   0.23385   0.00000  Uiso   1.00
C508   C     0.97210   0.53480   0.26356   0.00000  Uiso   1.00
N509   N     0.71426   0.50001   0.25001   0.00000  Uiso   1.00
N510   N     0.95241   0.49999   0.24999   0.00000  Uiso   1.00
C511   C     0.69009   0.55774   0.06298   0.00000  Uiso   1.00
O512   O     0.67468   0.53688   0.09954   0.00000  Uiso   1.00
O513   O     0.99364   0.58273   0.04644   0.00000  Uiso   1.00
H514   H     0.96003   0.58169   0.06821   0.00000  Uiso   1.00
C515   C     0.96328   0.55819   0.43604   0.00000  Uiso   1.00
O516   O     0.97169   0.54070   0.39712   0.00000  Uiso   1.00
O517   O     0.99867   0.57842   0.44873   0.00000  Uiso   1.00
H518   H     0.69642   0.57769   0.42198   0.00000  Uiso   1.00
N519   N     0.94150   0.46064   0.08570   0.00000  Uiso   1.00
O520   O     0.98546   0.45475   0.06178   0.00000  Uiso   1.00
O521   O     0.91852   0.43047   0.11278   0.00000  Uiso   1.00
N522   N     0.71533   0.46701   0.41088   0.00000  Uiso   1.00
O523   O     0.69801   0.47319   0.37609   0.00000  Uiso   1.00
O524   O     0.69893   0.43629   0.44055   0.00000  Uiso   1.00
C525   C     0.76125   0.59780   0.10166   0.00000  Uiso   1.00
O526   O     0.72276   0.59479   0.13201   0.00000  Uiso   1.00
O527   O     0.79418   0.62526   0.10968   0.00000  Uiso   1.00
H528   H     0.78209   0.64034   0.14177   0.00000  Uiso   1.00
C529   C     0.88973   0.60976   0.41230   0.00000  Uiso   1.00
O530   O     0.92953   0.62226   0.39266   0.00000  Uiso   1.00
O531   O     0.85273   0.62701   0.39923   0.00000  Uiso   1.00
H532   H     0.86358   0.64834   0.37238   0.00000  Uiso   1.00
C533   C     0.90733   0.62647   0.17294   0.00000  Uiso   1.00
O534   O     0.90152   0.59242   0.15664   0.00000  Uiso   1.00
O535   O     0.94973   0.64760   0.15341   0.00000  Uiso   1.00
H536   H     0.97310   0.63121   0.12685   0.00000  Uiso   1.00
C537   C     0.76277   0.37379   0.32819   0.00000  Uiso   1.00
O538   O     0.77224   0.40567   0.34625   0.00000  Uiso   1.00
O539   O     0.71885   0.35520   0.34769   0.00000  Uiso   1.00
H540   H     0.69768   0.37152   0.37600   0.00000  Uiso   1.00
N541   N     0.96393   0.42895   0.21858   0.00000  Uiso   1.00
O542   O     0.95160   0.39704   0.24739   0.00000  Uiso   1.00
O543   O     0.97381   0.42300   0.17253   0.00000  Uiso   1.00
N544   N     0.70300   0.57048   0.28267   0.00000  Uiso   1.00
O545   O     0.70967   0.60551   0.25881   0.00000  Uiso   1.00
O546   O     0.71191   0.56840   0.32318   0.00000  Uiso   1.00
N547   N     0.72508   0.43114   0.21310   0.00000  Uiso   1.00
O548   O     0.71611   0.39411   0.23233   0.00000  Uiso   1.00
O549   O     0.75761   0.43536   0.17185   0.00000  Uiso   1.00
N550   N     0.94483   0.57181   0.27861   0.00000  Uiso   1.00
O551   O     0.95498   0.60597   0.25329   0.00000  Uiso   1.00
O552   O     0.91040   0.57182   0.31856   0.00000  Uiso   1.00
O553   O     0.12846   0.89442   0.25001   0.00000  Uiso   1.00
O554   O     0.20488   0.77225   0.25000   0.00000  Uiso   1.00
O555   O     0.20490   0.89441   0.25000   0.00000  Uiso   1.00
O556   O     0.12843   0.77226   0.25000   0.00000  Uiso   1.00
C557   C     0.16718   0.91301   0.24831   0.00000  Uiso   1.00
C558   C     0.16637   0.75365   0.25115   0.00000  Uiso   1.00
O559   O     0.10661   0.83334   0.31613   0.00000  Uiso   1.00
O560   O     0.22672   0.83333   0.18388   0.00000  Uiso   1.00
O561   O     0.18305   0.83333   0.31612   0.00000  Uiso   1.00
O562   O     0.15028   0.83334   0.18388   0.00000  Uiso   1.00
C563   C     0.13755   0.83435   0.33904   0.00000  Uiso   1.00
C564   C     0.19522   0.83409   0.16128   0.00000  Uiso   1.00
Zn565  Zn    0.11562   0.83334   0.25000   0.00000  Uiso   1.00
Zn566  Zn    0.21771   0.83333   0.25000   0.00000  Uiso   1.00
C567   C     0.12085   0.84443   0.39147   0.00000  Uiso   1.00
C568   C     0.20892   0.84433   0.10956   0.00000  Uiso   1.00
C569   C     0.06224   0.84714   0.47077   0.00000  Uiso   1.00
C570   C     0.26282   0.84576   0.02830   0.00000  Uiso   1.00
C571   C     0.07692   0.83175   0.42341   0.00000  Uiso   1.00
C572   C     0.24977   0.82910   0.07513   0.00000  Uiso   1.00
C573   C     0.14960   0.86949   0.40976   0.00000  Uiso   1.00
C574   C     0.17869   0.87061   0.09484   0.00000  Uiso   1.00
C575   C     0.13492   0.88436   0.45765   0.00000  Uiso   1.00
C576   C     0.18976   0.88494   0.04738   0.00000  Uiso   1.00
C577   C     0.08955   0.87460   0.48789   0.00000  Uiso   1.00
C578   C     0.23471   0.87558   0.01491   0.00000  Uiso   1.00
C579   C     0.16654   0.90303   0.47844   0.00000  Uiso   1.00
C580   C     0.15513   0.90159   0.02878   0.00000  Uiso   1.00
C581   C     0.10746   0.90580   0.05626   0.00000  Uiso   1.00
C582   C     0.21312   0.91151   0.45184   0.00000  Uiso   1.00
C583   C     0.07394   0.89020   0.03582   0.00000  Uiso   1.00
C584   C     0.24804   0.89353   0.46833   0.00000  Uiso   1.00
H585   H     0.14545   0.87821   0.12080   0.00000  Uiso   1.00
H586   H     0.18445   0.87594   0.38677   0.00000  Uiso   1.00
H587   H     0.03018   0.83586   0.49526   0.00000  Uiso   1.00
H588   H     0.29231   0.83260   0.00094   0.00000  Uiso   1.00
C589   C     0.20278   0.97961   0.21268   0.00000  Uiso   1.00
C590   C     0.13169   0.68708   0.28683   0.00000  Uiso   1.00
C591   C     0.20160   0.68941   0.21582   0.00000  Uiso   1.00
C592   C     0.13245   0.97736   0.28349   0.00000  Uiso   1.00
H593   H     0.22734   0.70779   0.18918   0.00000  Uiso   1.00
H594   H     0.10715   0.95919   0.31076   0.00000  Uiso   1.00
C595   C     0.16647   0.70939   0.25206   0.00000  Uiso   1.00
C596   C     0.16740   0.95728   0.24706   0.00000  Uiso   1.00
C597   C     0.31446   0.79892   0.23508   0.00000  Uiso   1.00
C598   C     0.01921   0.86781   0.26465   0.00000  Uiso   1.00
C599   C     0.02900   0.79936   0.23385   0.00000  Uiso   1.00
C600   C     0.30543   0.86813   0.26356   0.00000  Uiso   1.00
N601   N     0.04759   0.83334   0.25001   0.00000  Uiso   1.00
N602   N     0.28574   0.83332   0.24999   0.00000  Uiso   1.00
C603   C     0.02342   0.89107   0.06298   0.00000  Uiso   1.00
O604   O     0.00802   0.87022   0.09954   0.00000  Uiso   1.00
O605   O     0.32697   0.91607   0.04644   0.00000  Uiso   1.00
H606   H     0.29336   0.91502   0.06821   0.00000  Uiso   1.00
C607   C     0.29661   0.89152   0.43604   0.00000  Uiso   1.00
O608   O     0.30502   0.87403   0.39712   0.00000  Uiso   1.00
O609   O     0.33200   0.91175   0.44873   0.00000  Uiso   1.00
H610   H     0.02975   0.91103   0.42198   0.00000  Uiso   1.00
N611   N     0.27484   0.79397   0.08570   0.00000  Uiso   1.00
O612   O     0.31879   0.78808   0.06178   0.00000  Uiso   1.00
O613   O     0.25185   0.76381   0.11278   0.00000  Uiso   1.00
N614   N     0.04867   0.80034   0.41088   0.00000  Uiso   1.00
O615   O     0.03134   0.80653   0.37609   0.00000  Uiso   1.00
O616   O     0.03226   0.76962   0.44055   0.00000  Uiso   1.00
C617   C     0.09458   0.93113   0.10166   0.00000  Uiso   1.00
O618   O     0.05609   0.92812   0.13201   0.00000  Uiso   1.00
O619   O     0.12752   0.95860   0.10968   0.00000  Uiso   1.00
H620   H     0.11543   0.97367   0.14177   0.00000  Uiso   1.00
C621   C     0.22306   0.94309   0.41230   0.00000  Uiso   1.00
O622   O     0.26287   0.95560   0.39266   0.00000  Uiso   1.00
O623   O     0.18607   0.96035   0.39923   0.00000  Uiso   1.00
H624   H     0.19691   0.98167   0.37238   0.00000  Uiso   1.00
C625   C     0.24066   0.95980   0.17294   0.00000  Uiso   1.00
O626   O     0.23485   0.92575   0.15664   0.00000  Uiso   1.00
O627   O     0.28306   0.98094   0.15341   0.00000  Uiso   1.00
H628   H     0.30643   0.96454   0.12685   0.00000  Uiso   1.00
C629   C     0.09610   0.70712   0.32819   0.00000  Uiso   1.00
O630   O     0.10557   0.73900   0.34625   0.00000  Uiso   1.00
O631   O     0.05218   0.68853   0.34769   0.00000  Uiso   1.00
H632   H     0.03101   0.70485   0.37600   0.00000  Uiso   1.00
N633   N     0.29727   0.76229   0.21858   0.00000  Uiso   1.00
O634   O     0.28493   0.73037   0.24739   0.00000  Uiso   1.00
O635   O     0.30715   0.75633   0.17253   0.00000  Uiso   1.00
N636   N     0.03634   0.90381   0.28267   0.00000  Uiso   1.00
O637   O     0.04300   0.93885   0.25881   0.00000  Uiso   1.00
O638   O     0.04524   0.90173   0.32318   0.00000  Uiso   1.00
N639   N     0.05841   0.76448   0.21310   0.00000  Uiso   1.00
O640   O     0.04945   0.72745   0.23233   0.00000  Uiso   1.00
O641   O     0.09094   0.76869   0.17185   0.00000  Uiso   1.00
N642   N     0.27816   0.90514   0.27861   0.00000  Uiso   1.00
O643   O     0.28832   0.93930   0.25329   0.00000  Uiso   1.00
O644   O     0.24373   0.90515   0.31856   0.00000  Uiso   1.00
O645   O     0.46179   0.89442   0.25001   0.00000  Uiso   1.00
O646   O     0.53821   0.77225   0.25000   0.00000  Uiso   1.00
O647   O     0.53823   0.89441   0.25000   0.00000  Uiso   1.00
O648   O     0.46177   0.77226   0.25000   0.00000  Uiso   1.00
C649   C     0.50051   0.91301   0.24831   0.00000  Uiso   1.00
C650   C     0.49971   0.75365   0.25115   0.00000  Uiso   1.00
O651   O     0.43994   0.83334   0.31613   0.00000  Uiso   1.00
O652   O     0.56006   0.83333   0.18388   0.00000  Uiso   1.00
O653   O     0.51639   0.83333   0.31612   0.00000  Uiso   1.00
O654   O     0.48361   0.83334   0.18388   0.00000  Uiso   1.00
C655   C     0.47089   0.83435   0.33904   0.00000  Uiso   1.00
C656   C     0.52855   0.83409   0.16128   0.00000  Uiso   1.00
Zn657  Zn    0.44896   0.83334   0.25000   0.00000  Uiso   1.00
Zn658  Zn    0.55104   0.83333   0.25000   0.00000  Uiso   1.00
C659   C     0.45418   0.84443   0.39147   0.00000  Uiso   1.00
C660   C     0.54226   0.84433   0.10956   0.00000  Uiso   1.00
C661   C     0.39558   0.84714   0.47077   0.00000  Uiso   1.00
C662   C     0.59615   0.84576   0.02830   0.00000  Uiso   1.00
C663   C     0.41025   0.83175   0.42341   0.00000  Uiso   1.00
C664   C     0.58310   0.82910   0.07513   0.00000  Uiso   1.00
C665   C     0.48293   0.86949   0.40976   0.00000  Uiso   1.00
C666   C     0.51202   0.87061   0.09484   0.00000  Uiso   1.00
C667   C     0.46826   0.88436   0.45765   0.00000  Uiso   1.00
C668   C     0.52310   0.88494   0.04738   0.00000  Uiso   1.00
C669   C     0.42289   0.87460   0.48789   0.00000  Uiso   1.00
C670   C     0.56804   0.87558   0.01491   0.00000  Uiso   1.00
C671   C     0.49987   0.90303   0.47844   0.00000  Uiso   1.00
C672   C     0.48846   0.90159   0.02878   0.00000  Uiso   1.00
C673   C     0.44080   0.90580   0.05626   0.00000  Uiso   1.00
C674   C     0.54645   0.91151   0.45184   0.00000  Uiso   1.00
C675   C     0.40727   0.89020   0.03582   0.00000  Uiso   1.00
C676   C     0.58137   0.89353   0.46833   0.00000  Uiso   1.00
H677   H     0.47878   0.87821   0.12080   0.00000  Uiso   1.00
H678   H     0.51779   0.87594   0.38677   0.00000  Uiso   1.00
H679   H     0.36351   0.83586   0.49526   0.00000  Uiso   1.00
H680   H     0.62565   0.83260   0.00094   0.00000  Uiso   1.00
C681   C     0.53611   0.97961   0.21268   0.00000  Uiso   1.00
C682   C     0.46502   0.68708   0.28683   0.00000  Uiso   1.00
C683   C     0.53493   0.68941   0.21582   0.00000  Uiso   1.00
C684   C     0.46578   0.97736   0.28349   0.00000  Uiso   1.00
H685   H     0.56067   0.70779   0.18918   0.00000  Uiso   1.00
H686   H     0.44048   0.95919   0.31076   0.00000  Uiso   1.00
C687   C     0.49980   0.70939   0.25206   0.00000  Uiso   1.00
C688   C     0.50073   0.95728   0.24706   0.00000  Uiso   1.00
C689   C     0.64780   0.79892   0.23508   0.00000  Uiso   1.00
C690   C     0.35254   0.86781   0.26465   0.00000  Uiso   1.00
C691   C     0.36234   0.79936   0.23385   0.00000  Uiso   1.00
C692   C     0.63877   0.86813   0.26356   0.00000  Uiso   1.00
N693   N     0.38093   0.83334   0.25001   0.00000  Uiso   1.00
N694   N     0.61907   0.83332   0.24999   0.00000  Uiso   1.00
C695   C     0.35675   0.89107   0.06298   0.00000  Uiso   1.00
O696   O     0.34135   0.87022   0.09954   0.00000  Uiso   1.00
O697   O     0.66030   0.91607   0.04644   0.00000  Uiso   1.00
H698   H     0.62670   0.91502   0.06821   0.00000  Uiso   1.00
C699   C     0.62995   0.89152   0.43604   0.00000  Uiso   1.00
O700   O     0.63835   0.87403   0.39712   0.00000  Uiso   1.00
O701   O     0.66534   0.91175   0.44873   0.00000  Uiso   1.00
H702   H     0.36309   0.91103   0.42198   0.00000  Uiso   1.00
N703   N     0.60817   0.79397   0.08570   0.00000  Uiso   1.00
O704   O     0.65212   0.78808   0.06178   0.00000  Uiso   1.00
O705   O     0.58518   0.76381   0.11278   0.00000  Uiso   1.00
N706   N     0.38200   0.80034   0.41088   0.00000  Uiso   1.00
O707   O     0.36467   0.80653   0.37609   0.00000  Uiso   1.00
O708   O     0.36559   0.76962   0.44055   0.00000  Uiso   1.00
C709   C     0.42792   0.93113   0.10166   0.00000  Uiso   1.00
O710   O     0.38943   0.92812   0.13201   0.00000  Uiso   1.00
O711   O     0.46085   0.95860   0.10968   0.00000  Uiso   1.00
H712   H     0.44876   0.97367   0.14177   0.00000  Uiso   1.00
C713   C     0.55639   0.94309   0.41230   0.00000  Uiso   1.00
O714   O     0.59620   0.95560   0.39266   0.00000  Uiso   1.00
O715   O     0.51940   0.96035   0.39923   0.00000  Uiso   1.00
H716   H     0.53025   0.98167   0.37238   0.00000  Uiso   1.00
C717   C     0.57400   0.95980   0.17294   0.00000  Uiso   1.00
O718   O     0.56819   0.92575   0.15664   0.00000  Uiso   1.00
O719   O     0.61639   0.98094   0.15341   0.00000  Uiso   1.00
H720   H     0.63977   0.96454   0.12685   0.00000  Uiso   1.00
C721   C     0.42943   0.70712   0.32819   0.00000  Uiso   1.00
O722   O     0.43891   0.73900   0.34625   0.00000  Uiso   1.00
O723   O     0.38552   0.68853   0.34769   0.00000  Uiso   1.00
H724   H     0.36434   0.70485   0.37600   0.00000  Uiso   1.00
N725   N     0.63060   0.76229   0.21858   0.00000  Uiso   1.00
O726   O     0.61827   0.73037   0.24739   0.00000  Uiso   1.00
O727   O     0.64048   0.75633   0.17253   0.00000  Uiso   1.00
N728   N     0.36967   0.90381   0.28267   0.00000  Uiso   1.00
O729   O     0.37633   0.93885   0.25881   0.00000  Uiso   1.00
O730   O     0.37858   0.90173   0.32318   0.00000  Uiso   1.00
N731   N     0.39174   0.76448   0.21310   0.00000  Uiso   1.00
O732   O     0.38278   0.72745   0.23233   0.00000  Uiso   1.00
O733   O     0.42427   0.76869   0.17185   0.00000  Uiso   1.00
N734   N     0.61150   0.90514   0.27861   0.00000  Uiso   1.00
O735   O     0.62165   0.93930   0.25329   0.00000  Uiso   1.00
O736   O     0.57706   0.90515   0.31856   0.00000  Uiso   1.00
O737   O     0.79512   0.89442   0.25001   0.00000  Uiso   1.00
O738   O     0.87154   0.77225   0.25000   0.00000  Uiso   1.00
O739   O     0.87157   0.89441   0.25000   0.00000  Uiso   1.00
O740   O     0.79510   0.77226   0.25000   0.00000  Uiso   1.00
C741   C     0.83385   0.91301   0.24831   0.00000  Uiso   1.00
C742   C     0.83304   0.75365   0.25115   0.00000  Uiso   1.00
O743   O     0.77328   0.83334   0.31613   0.00000  Uiso   1.00
O744   O     0.89339   0.83333   0.18388   0.00000  Uiso   1.00
O745   O     0.84972   0.83333   0.31612   0.00000  Uiso   1.00
O746   O     0.81695   0.83334   0.18388   0.00000  Uiso   1.00
C747   C     0.80422   0.83435   0.33904   0.00000  Uiso   1.00
C748   C     0.86188   0.83409   0.16128   0.00000  Uiso   1.00
Zn749  Zn    0.78229   0.83334   0.25000   0.00000  Uiso   1.00
Zn750  Zn    0.88438   0.83333   0.25000   0.00000  Uiso   1.00
C751   C     0.78751   0.84443   0.39147   0.00000  Uiso   1.00
C752   C     0.87559   0.84433   0.10956   0.00000  Uiso   1.00
C753   C     0.72891   0.84714   0.47077   0.00000  Uiso   1.00
C754   C     0.92949   0.84576   0.02830   0.00000  Uiso   1.00
C755   C     0.74358   0.83175   0.42341   0.00000  Uiso   1.00
C756   C     0.91643   0.82910   0.07513   0.00000  Uiso   1.00
C757   C     0.81627   0.86949   0.40976   0.00000  Uiso   1.00
C758   C     0.84535   0.87061   0.09484   0.00000  Uiso   1.00
C759   C     0.80159   0.88436   0.45765   0.00000  Uiso   1.00
C760   C     0.85643   0.88494   0.04738   0.00000  Uiso   1.00
C761   C     0.75622   0.87460   0.48789   0.00000  Uiso   1.00
C762   C     0.90137   0.87558   0.01491   0.00000  Uiso   1.00
C763   C     0.83320   0.90303   0.47844   0.00000  Uiso   1.00
C764   C     0.82180   0.90159   0.02878   0.00000  Uiso   1.00
C765   C     0.77413   0.90580   0.05626   0.00000  Uiso   1.00
C766   C     0.87979   0.91151   0.45184   0.00000  Uiso   1.00
C767   C     0.74061   0.89020   0.03582   0.00000  Uiso   1.00
C768   C     0.91471   0.89353   0.46833   0.00000  Uiso   1.00
H769   H     0.81211   0.87821   0.12080   0.00000  Uiso   1.00
H770   H     0.85112   0.87594   0.38677   0.00000  Uiso   1.00
H771   H     0.69685   0.83586   0.49526   0.00000  Uiso   1.00
H772   H     0.95898   0.83260   0.00094   0.00000  Uiso   1.00
C773   C     0.86944   0.97961   0.21268   0.00000  Uiso   1.00
C774   C     0.79835   0.68708   0.28683   0.00000  Uiso   1.00
C775   C     0.86827   0.68941   0.21582   0.00000  Uiso   1.00
C776   C     0.79912   0.97736   0.28349   0.00000  Uiso   1.00
H777   H     0.89400   0.70779   0.18918   0.00000  Uiso   1.00
H778   H     0.77382   0.95919   0.31076   0.00000  Uiso   1.00
C779   C     0.83313   0.70939   0.25206   0.00000  Uiso   1.00
C780   C     0.83406   0.95728   0.24706   0.00000  Uiso   1.00
C781   C     0.98113   0.79892   0.23508   0.00000  Uiso   1.00
C782   C     0.68587   0.86781   0.26465   0.00000  Uiso   1.00
C783   C     0.69567   0.79936   0.23385   0.00000  Uiso   1.00
C784   C     0.97210   0.86813   0.26356   0.00000  Uiso   1.00
N785   N     0.71426   0.83334   0.25001   0.00000  Uiso   1.00
N786   N     0.95241   0.83332   0.24999   0.00000  Uiso   1.00
C787   C     0.69009   0.89107   0.06298   0.00000  Uiso   1.00
O788   O     0.67468   0.87022   0.09954   0.00000  Uiso   1.00
O789   O     0.99364   0.91607   0.04644   0.00000  Uiso   1.00
H790   H     0.96003   0.91502   0.06821   0.00000  Uiso   1.00
C791   C     0.96328   0.89152   0.43604   0.00000  Uiso   1.00
O792   O     0.97169   0.87403   0.39712   0.00000  Uiso   1.00
O793   O     0.99867   0.91175   0.44873   0.00000  Uiso   1.00
H794   H     0.69642   0.91103   0.42198   0.00000  Uiso   1.00
N795   N     0.94150   0.79397   0.08570   0.00000  Uiso   1.00
O796   O     0.98546   0.78808   0.06178   0.00000  Uiso   1.00
O797   O     0.91852   0.76381   0.11278   0.00000  Uiso   1.00
N798   N     0.71533   0.80034   0.41088   0.00000  Uiso   1.00
O799   O     0.69801   0.80653   0.37609   0.00000  Uiso   1.00
O800   O     0.69893   0.76962   0.44055   0.00000  Uiso   1.00
C801   C     0.76125   0.93113   0.10166   0.00000  Uiso   1.00
O802   O     0.72276   0.92812   0.13201   0.00000  Uiso   1.00
O803   O     0.79418   0.95860   0.10968   0.00000  Uiso   1.00
H804   H     0.78209   0.97367   0.14177   0.00000  Uiso   1.00
C805   C     0.88973   0.94309   0.41230   0.00000  Uiso   1.00
O806   O     0.92953   0.95560   0.39266   0.00000  Uiso   1.00
O807   O     0.85273   0.96035   0.39923   0.00000  Uiso   1.00
H808   H     0.86358   0.98167   0.37238   0.00000  Uiso   1.00
C809   C     0.90733   0.95980   0.17294   0.00000  Uiso   1.00
O810   O     0.90152   0.92575   0.15664   0.00000  Uiso   1.00
O811   O     0.94973   0.98094   0.15341   0.00000  Uiso   1.00
H812   H     0.97310   0.96454   0.12685   0.00000  Uiso   1.00
C813   C     0.76277   0.70712   0.32819   0.00000  Uiso   1.00
O814   O     0.77224   0.73900   0.34625   0.00000  Uiso   1.00
O815   O     0.71885   0.68853   0.34769   0.00000  Uiso   1.00
H816   H     0.69768   0.70485   0.37600   0.00000  Uiso   1.00
N817   N     0.96393   0.76229   0.21858   0.00000  Uiso   1.00
O818   O     0.95160   0.73037   0.24739   0.00000  Uiso   1.00
O819   O     0.97381   0.75633   0.17253   0.00000  Uiso   1.00
N820   N     0.70300   0.90381   0.28267   0.00000  Uiso   1.00
O821   O     0.70967   0.93885   0.25881   0.00000  Uiso   1.00
O822   O     0.71191   0.90173   0.32318   0.00000  Uiso   1.00
N823   N     0.72508   0.76448   0.21310   0.00000  Uiso   1.00
O824   O     0.71611   0.72745   0.23233   0.00000  Uiso   1.00
O825   O     0.75761   0.76869   0.17185   0.00000  Uiso   1.00
N826   N     0.94483   0.90514   0.27861   0.00000  Uiso   1.00
O827   O     0.95498   0.93930   0.25329   0.00000  Uiso   1.00
O828   O     0.91040   0.90515   0.31856   0.00000  Uiso   1.00
O829   O     0.12846   0.22775   0.75001   0.00000  Uiso   1.00
O830   O     0.20488   0.10558   0.75000   0.00000  Uiso   1.00
O831   O     0.20490   0.22774   0.75000   0.00000  Uiso   1.00
O832   O     0.12843   0.10559   0.75000   0.00000  Uiso   1.00
C833   C     0.16718   0.24635   0.74831   0.00000  Uiso   1.00
C834   C     0.16637   0.08698   0.75115   0.00000  Uiso   1.00
O835   O     0.10661   0.16667   0.81613   0.00000  Uiso   1.00
O836   O     0.22672   0.16666   0.68388   0.00000  Uiso   1.00
O837   O     0.18305   0.16666   0.81612   0.00000  Uiso   1.00
O838   O     0.15028   0.16667   0.68388   0.00000  Uiso   1.00
C839   C     0.13755   0.16769   0.83904   0.00000  Uiso   1.00
C840   C     0.19522   0.16742   0.66128   0.00000  Uiso   1.00
Zn841  Zn    0.11562   0.16667   0.75000   0.00000  Uiso   1.00
Zn842  Zn    0.21771   0.16666   0.75000   0.00000  Uiso   1.00
C843   C     0.12085   0.17776   0.89147   0.00000  Uiso   1.00
C844   C     0.20892   0.17766   0.60956   0.00000  Uiso   1.00
C845   C     0.06224   0.18048   0.97077   0.00000  Uiso   1.00
C846   C     0.26282   0.17910   0.52830   0.00000  Uiso   1.00
C847   C     0.07692   0.16508   0.92341   0.00000  Uiso   1.00
C848   C     0.24977   0.16243   0.57513   0.00000  Uiso   1.00
C849   C     0.14960   0.20282   0.90976   0.00000  Uiso   1.00
C850   C     0.17869   0.20394   0.59484   0.00000  Uiso   1.00
C851   C     0.13492   0.21770   0.95765   0.00000  Uiso   1.00
C852   C     0.18976   0.21828   0.54738   0.00000  Uiso   1.00
C853   C     0.08955   0.20793   0.98789   0.00000  Uiso   1.00
C854   C     0.23471   0.20891   0.51491   0.00000  Uiso   1.00
C855   C     0.16654   0.23636   0.97844   0.00000  Uiso   1.00
C856   C     0.15513   0.23492   0.52878   0.00000  Uiso   1.00
C857   C     0.10746   0.23914   0.55626   0.00000  Uiso   1.00
C858   C     0.21312   0.24484   0.95184   0.00000  Uiso   1.00
C859   C     0.07394   0.22353   0.53582   0.00000  Uiso   1.00
C860   C     0.24804   0.22686   0.96833   0.00000  Uiso   1.00
H861   H     0.14545   0.21155   0.62080   0.00000  Uiso   1.00
H862   H     0.18445   0.20927   0.88677   0.00000  Uiso   1.00
H863   H     0.03018   0.16920   0.99526   0.00000  Uiso   1.00
H864   H     0.29231   0.16593   0.50094   0.00000  Uiso   1.00
C865   C     0.20278   0.31294   0.71268   0.00000  Uiso   1.00
C866   C     0.13169   0.02041   0.78683   0.00000  Uiso   1.00
C867   C     0.20160   0.02274   0.71582   0.00000  Uiso   1.00
C868   C     0.13245   0.31069   0.78349   0.00000  Uiso   1.00
H869   H     0.22734   0.04113   0.68918   0.00000  Uiso   1.00
H870   H     0.10715   0.29252   0.81076   0.00000  Uiso   1.00
C871   C     0.16647   0.04273   0.75206   0.00000  Uiso   1.00
C872   C     0.16740   0.29061   0.74706   0.00000  Uiso   1.00
C873   C     0.31446   0.13226   0.73508   0.00000  Uiso   1.00
C874   C     0.01921   0.20114   0.76465   0.00000  Uiso   1.00
C875   C     0.02900   0.13269   0.73385   0.00000  Uiso   1.00
C876   C     0.30543   0.20146   0.76356   0.00000  Uiso   1.00
N877   N     0.04759   0.16668   0.75001   0.00000  Uiso   1.00
N878   N     0.28574   0.16666   0.74999   0.00000  Uiso   1.00
C879   C     0.02342   0.22441   0.56298   0.00000  Uiso   1.00
O880   O     0.00802   0.20355   0.59954   0.00000  Uiso   1.00
O881   O     0.32697   0.24940   0.54644   0.00000  Uiso   1.00
H882   H     0.29336   0.24835   0.56821   0.00000  Uiso   1.00
C883   C     0.29661   0.22486   0.93604   0.00000  Uiso   1.00
O884   O     0.30502   0.20736   0.89712   0.00000  Uiso   1.00
O885   O     0.33200   0.24508   0.94873   0.00000  Uiso   1.00
H886   H     0.02975   0.24436   0.92198   0.00000  Uiso   1.00
N887   N     0.27484   0.12730   0.58570   0.00000  Uiso   1.00
O888   O     0.31879   0.12142   0.56178   0.00000  Uiso   1.00
O889   O     0.25185   0.09714   0.61278   0.00000  Uiso   1.00
N890   N     0.04867   0.13368   0.91088   0.00000  Uiso   1.00
O891   O     0.03134   0.13986   0.87609   0.00000  Uiso   1.00
O892   O     0.03226   0.10295   0.94055   0.00000  Uiso   1.00
C893   C     0.09458   0.26447   0.60166   0.00000  Uiso   1.00
O894   O     0.05609   0.26145   0.63201   0.00000  Uiso   1.00
O895   O     0.12752   0.29193   0.60968   0.00000  Uiso   1.00
H896   H     0.11543   0.30701   0.64177   0.00000  Uiso   1.00
C897   C     0.22306   0.27642   0.91230   0.00000  Uiso   1.00
O898   O     0.26287   0.28893   0.89266   0.00000  Uiso   1.00
O899   O     0.18607   0.29368   0.89923   0.00000  Uiso   1.00
H900   H     0.19691   0.31500   0.87238   0.00000  Uiso   1.00
C901   C     0.24066   0.29314   0.67294   0.00000  Uiso   1.00
O902   O     0.23485   0.25908   0.65664   0.00000  Uiso   1.00
O903   O     0.28306   0.31427   0.65341   0.00000  Uiso   1.00
H904   H     0.30643   0.29787   0.62685   0.00000  Uiso   1.00
C905   C     0.09610   0.04046   0.82819   0.00000  Uiso   1.00
O906   O     0.10557   0.07234   0.84625   0.00000  Uiso   1.00
O907   O     0.05218   0.02186   0.84769   0.00000  Uiso   1.00
H908   H     0.03101   0.03818   0.87600   0.00000  Uiso   1.00
N909   N     0.29727   0.09562   0.71858   0.00000  Uiso   1.00
O910   O     0.28493   0.06370   0.74739   0.00000  Uiso   1.00
O911   O     0.30715   0.08967   0.67253   0.00000  Uiso   1.00
N912   N     0.03634   0.23714   0.78267   0.00000  Uiso   1.00
O913   O     0.04300   0.27218   0.75881   0.00000  Uiso   1.00
O914   O     0.04524   0.23506   0.82318   0.00000  Uiso   1.00
N915   N     0.05841   0.09781   0.71310   0.00000  Uiso   1.00
O916   O     0.04945   0.06078   0.73233   0.00000  Uiso   1.00
O917   O     0.09094   0.10202   0.67185   0.00000  Uiso   1.00
N918   N     0.27816   0.23848   0.77861   0.00000  Uiso   1.00
O919   O     0.28832   0.27263   0.75329   0.00000  Uiso   1.00
O920   O     0.24373   0.23849   0.81856   0.00000  Uiso   1.00
O921   O     0.46179   0.22775   0.75001   0.00000  Uiso   1.00
O922   O     0.53821   0.10558   0.75000   0.00000  Uiso   1.00
O923   O     0.53823   0.22774   0.75000   0.00000  Uiso   1.00
O924   O     0.46177   0.10559   0.75000   0.00000  Uiso   1.00
C925   C     0.50051   0.24635   0.74831   0.00000  Uiso   1.00
C926   C     0.49971   0.08698   0.75115   0.00000  Uiso   1.00
O927   O     0.43994   0.16667   0.81613   0.00000  Uiso   1.00
O928   O     0.56006   0.16666   0.68388   0.00000  Uiso   1.00
O929   O     0.51639   0.16666   0.81612   0.00000  Uiso   1.00
O930   O     0.48361   0.16667   0.68388   0.00000  Uiso   1.00
C931   C     0.47089   0.16769   0.83904   0.00000  Uiso   1.00
C932   C     0.52855   0.16742   0.66128   0.00000  Uiso   1.00
Zn933  Zn    0.44896   0.16667   0.75000   0.00000  Uiso   1.00
Zn934  Zn    0.55104   0.16666   0.75000   0.00000  Uiso   1.00
C935   C     0.45418   0.17776   0.89147   0.00000  Uiso   1.00
C936   C     0.54226   0.17766   0.60956   0.00000  Uiso   1.00
C937   C     0.39558   0.18048   0.97077   0.00000  Uiso   1.00
C938   C     0.59615   0.17910   0.52830   0.00000  Uiso   1.00
C939   C     0.41025   0.16508   0.92341   0.00000  Uiso   1.00
C940   C     0.58310   0.16243   0.57513   0.00000  Uiso   1.00
C941   C     0.48293   0.20282   0.90976   0.00000  Uiso   1.00
C942   C     0.51202   0.20394   0.59484   0.00000  Uiso   1.00
C943   C     0.46826   0.21770   0.95765   0.00000  Uiso   1.00
C944   C     0.52310   0.21828   0.54738   0.00000  Uiso   1.00
C945   C     0.42289   0.20793   0.98789   0.00000  Uiso   1.00
C946   C     0.56804   0.20891   0.51491   0.00000  Uiso   1.00
C947   C     0.49987   0.23636   0.97844   0.00000  Uiso   1.00
C948   C     0.48846   0.23492   0.52878   0.00000  Uiso   1.00
C949   C     0.44080   0.23914   0.55626   0.00000  Uiso   1.00
C950   C     0.54645   0.24484   0.95184   0.00000  Uiso   1.00
C951   C     0.40727   0.22353   0.53582   0.00000  Uiso   1.00
C952   C     0.58137   0.22686   0.96833   0.00000  Uiso   1.00
H953   H     0.47878   0.21155   0.62080   0.00000  Uiso   1.00
H954   H     0.51779   0.20927   0.88677   0.00000  Uiso   1.00
H955   H     0.36351   0.16920   0.99526   0.00000  Uiso   1.00
H956   H     0.62565   0.16593   0.50094   0.00000  Uiso   1.00
C957   C     0.53611   0.31294   0.71268   0.00000  Uiso   1.00
C958   C     0.46502   0.02041   0.78683   0.00000  Uiso   1.00
C959   C     0.53493   0.02274   0.71582   0.00000  Uiso   1.00
C960   C     0.46578   0.31069   0.78349   0.00000  Uiso   1.00
H961   H     0.56067   0.04113   0.68918   0.00000  Uiso   1.00
H962   H     0.44048   0.29252   0.81076   0.00000  Uiso   1.00
C963   C     0.49980   0.04273   0.75206   0.00000  Uiso   1.00
C964   C     0.50073   0.29061   0.74706   0.00000  Uiso   1.00
C965   C     0.64780   0.13226   0.73508   0.00000  Uiso   1.00
C966   C     0.35254   0.20114   0.76465   0.00000  Uiso   1.00
C967   C     0.36234   0.13269   0.73385   0.00000  Uiso   1.00
C968   C     0.63877   0.20146   0.76356   0.00000  Uiso   1.00
N969   N     0.38093   0.16668   0.75001   0.00000  Uiso   1.00
N970   N     0.61907   0.16666   0.74999   0.00000  Uiso   1.00
C971   C     0.35675   0.22441   0.56298   0.00000  Uiso   1.00
O972   O     0.34135   0.20355   0.59954   0.00000  Uiso   1.00
O973   O     0.66030   0.24940   0.54644   0.00000  Uiso   1.00
H974   H     0.62670   0.24835   0.56821   0.00000  Uiso   1.00
C975   C     0.62995   0.22486   0.93604   0.00000  Uiso   1.00
O976   O     0.63835   0.20736   0.89712   0.00000  Uiso   1.00
O977   O     0.66534   0.24508   0.94873   0.00000  Uiso   1.00
H978   H     0.36309   0.24436   0.92198   0.00000  Uiso   1.00
N979   N     0.60817   0.12730   0.58570   0.00000  Uiso   1.00
O980   O     0.65212   0.12142   0.56178   0.00000  Uiso   1.00
O981   O     0.58518   0.09714   0.61278   0.00000  Uiso   1.00
N982   N     0.38200   0.13368   0.91088   0.00000  Uiso   1.00
O983   O     0.36467   0.13986   0.87609   0.00000  Uiso   1.00
O984   O     0.36559   0.10295   0.94055   0.00000  Uiso   1.00
C985   C     0.42792   0.26447   0.60166   0.00000  Uiso   1.00
O986   O     0.38943   0.26145   0.63201   0.00000  Uiso   1.00
O987   O     0.46085   0.29193   0.60968   0.00000  Uiso   1.00
H988   H     0.44876   0.30701   0.64177   0.00000  Uiso   1.00
C989   C     0.55639   0.27642   0.91230   0.00000  Uiso   1.00
O990   O     0.59620   0.28893   0.89266   0.00000  Uiso   1.00
O991   O     0.51940   0.29368   0.89923   0.00000  Uiso   1.00
H992   H     0.53025   0.31500   0.87238   0.00000  Uiso   1.00
C993   C     0.57400   0.29314   0.67294   0.00000  Uiso   1.00
O994   O     0.56819   0.25908   0.65664   0.00000  Uiso   1.00
O995   O     0.61639   0.31427   0.65341   0.00000  Uiso   1.00
H996   H     0.63977   0.29787   0.62685   0.00000  Uiso   1.00
C997   C     0.42943   0.04046   0.82819   0.00000  Uiso   1.00
O998   O     0.43891   0.07234   0.84625   0.00000  Uiso   1.00
O999   O     0.38552   0.02186   0.84769   0.00000  Uiso   1.00
H1000  H     0.36434   0.03818   0.87600   0.00000  Uiso   1.00
N1001  N     0.63060   0.09562   0.71858   0.00000  Uiso   1.00
O1002  O     0.61827   0.06370   0.74739   0.00000  Uiso   1.00
O1003  O     0.64048   0.08967   0.67253   0.00000  Uiso   1.00
N1004  N     0.36967   0.23714   0.78267   0.00000  Uiso   1.00
O1005  O     0.37633   0.27218   0.75881   0.00000  Uiso   1.00
O1006  O     0.37858   0.23506   0.82318   0.00000  Uiso   1.00
N1007  N     0.39174   0.09781   0.71310   0.00000  Uiso   1.00
O1008  O     0.38278   0.06078   0.73233   0.00000  Uiso   1.00
O1009  O     0.42427   0.10202   0.67185   0.00000  Uiso   1.00
N1010  N     0.61150   0.23848   0.77861   0.00000  Uiso   1.00
O1011  O     0.62165   0.27263   0.75329   0.00000  Uiso   1.00
O1012  O     0.57706   0.23849   0.81856   0.00000  Uiso   1.00
O1013  O     0.79512   0.22775   0.75001   0.00000  Uiso   1.00
O1014  O     0.87154   0.10558   0.75000   0.00000  Uiso   1.00
O1015  O     0.87157   0.22774   0.75000   0.00000  Uiso   1.00
O1016  O     0.79510   0.10559   0.75000   0.00000  Uiso   1.00
C1017  C     0.83385   0.24635   0.74831   0.00000  Uiso   1.00
C1018  C     0.83304   0.08698   0.75115   0.00000  Uiso   1.00
O1019  O     0.77328   0.16667   0.81613   0.00000  Uiso   1.00
O1020  O     0.89339   0.16666   0.68388   0.00000  Uiso   1.00
O1021  O     0.84972   0.16666   0.81612   0.00000  Uiso   1.00
O1022  O     0.81695   0.16667   0.68388   0.00000  Uiso   1.00
C1023  C     0.80422   0.16769   0.83904   0.00000  Uiso   1.00
C1024  C     0.86188   0.16742   0.66128   0.00000  Uiso   1.00
Zn1025 Zn    0.78229   0.16667   0.75000   0.00000  Uiso   1.00
Zn1026 Zn    0.88438   0.16666   0.75000   0.00000  Uiso   1.00
C1027  C     0.78751   0.17776   0.89147   0.00000  Uiso   1.00
C1028  C     0.87559   0.17766   0.60956   0.00000  Uiso   1.00
C1029  C     0.72891   0.18048   0.97077   0.00000  Uiso   1.00
C1030  C     0.92949   0.17910   0.52830   0.00000  Uiso   1.00
C1031  C     0.74358   0.16508   0.92341   0.00000  Uiso   1.00
C1032  C     0.91643   0.16243   0.57513   0.00000  Uiso   1.00
C1033  C     0.81627   0.20282   0.90976   0.00000  Uiso   1.00
C1034  C     0.84535   0.20394   0.59484   0.00000  Uiso   1.00
C1035  C     0.80159   0.21770   0.95765   0.00000  Uiso   1.00
C1036  C     0.85643   0.21828   0.54738   0.00000  Uiso   1.00
C1037  C     0.75622   0.20793   0.98789   0.00000  Uiso   1.00
C1038  C     0.90137   0.20891   0.51491   0.00000  Uiso   1.00
C1039  C     0.83320   0.23636   0.97844   0.00000  Uiso   1.00
C1040  C     0.82180   0.23492   0.52878   0.00000  Uiso   1.00
C1041  C     0.77413   0.23914   0.55626   0.00000  Uiso   1.00
C1042  C     0.87979   0.24484   0.95184   0.00000  Uiso   1.00
C1043  C     0.74061   0.22353   0.53582   0.00000  Uiso   1.00
C1044  C     0.91471   0.22686   0.96833   0.00000  Uiso   1.00
H1045  H     0.81211   0.21155   0.62080   0.00000  Uiso   1.00
H1046  H     0.85112   0.20927   0.88677   0.00000  Uiso   1.00
H1047  H     0.69685   0.16920   0.99526   0.00000  Uiso   1.00
H1048  H     0.95898   0.16593   0.50094   0.00000  Uiso   1.00
C1049  C     0.86944   0.31294   0.71268   0.00000  Uiso   1.00
C1050  C     0.79835   0.02041   0.78683   0.00000  Uiso   1.00
C1051  C     0.86827   0.02274   0.71582   0.00000  Uiso   1.00
C1052  C     0.79912   0.31069   0.78349   0.00000  Uiso   1.00
H1053  H     0.89400   0.04113   0.68918   0.00000  Uiso   1.00
H1054  H     0.77382   0.29252   0.81076   0.00000  Uiso   1.00
C1055  C     0.83313   0.04273   0.75206   0.00000  Uiso   1.00
C1056  C     0.83406   0.29061   0.74706   0.00000  Uiso   1.00
C1057  C     0.98113   0.13226   0.73508   0.00000  Uiso   1.00
C1058  C     0.68587   0.20114   0.76465   0.00000  Uiso   1.00
C1059  C     0.69567   0.13269   0.73385   0.00000  Uiso   1.00
C1060  C     0.97210   0.20146   0.76356   0.00000  Uiso   1.00
N1061  N     0.71426   0.16668   0.75001   0.00000  Uiso   1.00
N1062  N     0.95241   0.16666   0.74999   0.00000  Uiso   1.00
C1063  C     0.69009   0.22441   0.56298   0.00000  Uiso   1.00
O1064  O     0.67468   0.20355   0.59954   0.00000  Uiso   1.00
O1065  O     0.99364   0.24940   0.54644   0.00000  Uiso   1.00
H1066  H     0.96003   0.24835   0.56821   0.00000  Uiso   1.00
C1067  C     0.96328   0.22486   0.93604   0.00000  Uiso   1.00
O1068  O     0.97169   0.20736   0.89712   0.00000  Uiso   1.00
O1069  O     0.99867   0.24508   0.94873   0.00000  Uiso   1.00
H1070  H     0.69642   0.24436   0.92198   0.00000  Uiso   1.00
N1071  N     0.94150   0.12730   0.58570   0.00000  Uiso   1.00
O1072  O     0.98546   0.12142   0.56178   0.00000  Uiso   1.00
O1073  O     0.91852   0.09714   0.61278   0.00000  Uiso   1.00
N1074  N     0.71533   0.13368   0.91088   0.00000  Uiso   1.00
O1075  O     0.69801   0.13986   0.87609   0.00000  Uiso   1.00
O1076  O     0.69893   0.10295   0.94055   0.00000  Uiso   1.00
C1077  C     0.76125   0.26447   0.60166   0.00000  Uiso   1.00
O1078  O     0.72276   0.26145   0.63201   0.00000  Uiso   1.00
O1079  O     0.79418   0.29193   0.60968   0.00000  Uiso   1.00
H1080  H     0.78209   0.30701   0.64177   0.00000  Uiso   1.00
C1081  C     0.88973   0.27642   0.91230   0.00000  Uiso   1.00
O1082  O     0.92953   0.28893   0.89266   0.00000  Uiso   1.00
O1083  O     0.85273   0.29368   0.89923   0.00000  Uiso   1.00
H1084  H     0.86358   0.31500   0.87238   0.00000  Uiso   1.00
C1085  C     0.90733   0.29314   0.67294   0.00000  Uiso   1.00
O1086  O     0.90152   0.25908   0.65664   0.00000  Uiso   1.00
O1087  O     0.94973   0.31427   0.65341   0.00000  Uiso   1.00
H1088  H     0.97310   0.29787   0.62685   0.00000  Uiso   1.00
C1089  C     0.76277   0.04046   0.82819   0.00000  Uiso   1.00
O1090  O     0.77224   0.07234   0.84625   0.00000  Uiso   1.00
O1091  O     0.71885   0.02186   0.84769   0.00000  Uiso   1.00
H1092  H     0.69768   0.03818   0.87600   0.00000  Uiso   1.00
N1093  N     0.96393   0.09562   0.71858   0.00000  Uiso   1.00
O1094  O     0.95160   0.06370   0.74739   0.00000  Uiso   1.00
O1095  O     0.97381   0.08967   0.67253   0.00000  Uiso   1.00
N1096  N     0.70300   0.23714   0.78267   0.00000  Uiso   1.00
O1097  O     0.70967   0.27218   0.75881   0.00000  Uiso   1.00
O1098  O     0.71191   0.23506   0.82318   0.00000  Uiso   1.00
N1099  N     0.72508   0.09781   0.71310   0.00000  Uiso   1.00
O1100  O     0.71611   0.06078   0.73233   0.00000  Uiso   1.00
O1101  O     0.75761   0.10202   0.67185   0.00000  Uiso   1.00
N1102  N     0.94483   0.23848   0.77861   0.00000  Uiso   1.00
O1103  O     0.95498   0.27263   0.75329   0.00000  Uiso   1.00
O1104  O     0.91040   0.23849   0.81856   0.00000  Uiso   1.00
O1105  O     0.12846   0.56108   0.75001   0.00000  Uiso   1.00
O1106  O     0.20488   0.43892   0.75000   0.00000  Uiso   1.00
O1107  O     0.20490   0.56107   0.75000   0.00000  Uiso   1.00
O1108  O     0.12843   0.43893   0.75000   0.00000  Uiso   1.00
C1109  C     0.16718   0.57968   0.74831   0.00000  Uiso   1.00
C1110  C     0.16637   0.42031   0.75115   0.00000  Uiso   1.00
O1111  O     0.10661   0.50001   0.81613   0.00000  Uiso   1.00
O1112  O     0.22672   0.49999   0.68388   0.00000  Uiso   1.00
O1113  O     0.18305   0.50000   0.81612   0.00000  Uiso   1.00
O1114  O     0.15028   0.50000   0.68388   0.00000  Uiso   1.00
C1115  C     0.13755   0.50102   0.83904   0.00000  Uiso   1.00
C1116  C     0.19522   0.50076   0.66128   0.00000  Uiso   1.00
Zn1117 Zn    0.11562   0.50001   0.75000   0.00000  Uiso   1.00
Zn1118 Zn    0.21771   0.49999   0.75000   0.00000  Uiso   1.00
C1119  C     0.12085   0.51110   0.89147   0.00000  Uiso   1.00
C1120  C     0.20892   0.51100   0.60956   0.00000  Uiso   1.00
C1121  C     0.06224   0.51381   0.97077   0.00000  Uiso   1.00
C1122  C     0.26282   0.51243   0.52830   0.00000  Uiso   1.00
C1123  C     0.07692   0.49842   0.92341   0.00000  Uiso   1.00
C1124  C     0.24977   0.49577   0.57513   0.00000  Uiso   1.00
C1125  C     0.14960   0.53615   0.90976   0.00000  Uiso   1.00
C1126  C     0.17869   0.53727   0.59484   0.00000  Uiso   1.00
C1127  C     0.13492   0.55103   0.95765   0.00000  Uiso   1.00
C1128  C     0.18976   0.55161   0.54738   0.00000  Uiso   1.00
C1129  C     0.08955   0.54127   0.98789   0.00000  Uiso   1.00
C1130  C     0.23471   0.54225   0.51491   0.00000  Uiso   1.00
C1131  C     0.16654   0.56969   0.97844   0.00000  Uiso   1.00
C1132  C     0.15513   0.56825   0.52878   0.00000  Uiso   1.00
C1133  C     0.10746   0.57247   0.55626   0.00000  Uiso   1.00
C1134  C     0.21312   0.57818   0.95184   0.00000  Uiso   1.00
C1135  C     0.07394   0.55686   0.53582   0.00000  Uiso   1.00
C1136  C     0.24804   0.56020   0.96833   0.00000  Uiso   1.00
H1137  H     0.14545   0.54488   0.62080   0.00000  Uiso   1.00
H1138  H     0.18445   0.54260   0.88677   0.00000  Uiso   1.00
H1139  H     0.03018   0.50253   0.99526   0.00000  Uiso   1.00
H1140  H     0.29231   0.49927   0.50094   0.00000  Uiso   1.00
C1141  C     0.20278   0.64627   0.71268   0.00000  Uiso   1.00
C1142  C     0.13169   0.35374   0.78683   0.00000  Uiso   1.00
C1143  C     0.20160   0.35607   0.71582   0.00000  Uiso   1.00
C1144  C     0.13245   0.64402   0.78349   0.00000  Uiso   1.00
H1145  H     0.22734   0.37446   0.68918   0.00000  Uiso   1.00
H1146  H     0.10715   0.62585   0.81076   0.00000  Uiso   1.00
C1147  C     0.16647   0.37606   0.75206   0.00000  Uiso   1.00
C1148  C     0.16740   0.62394   0.74706   0.00000  Uiso   1.00
C1149  C     0.31446   0.46559   0.73508   0.00000  Uiso   1.00
C1150  C     0.01921   0.53448   0.76465   0.00000  Uiso   1.00
C1151  C     0.02900   0.46602   0.73385   0.00000  Uiso   1.00
C1152  C     0.30543   0.53480   0.76356   0.00000  Uiso   1.00
N1153  N     0.04759   0.50001   0.75001   0.00000  Uiso   1.00
N1154  N     0.28574   0.49999   0.74999   0.00000  Uiso   1.00
C1155  C     0.02342   0.55774   0.56298   0.00000  Uiso   1.00
O1156  O     0.00802   0.53688   0.59954   0.00000  Uiso   1.00
O1157  O     0.32697   0.58273   0.54644   0.00000  Uiso   1.00
H1158  H     0.29336   0.58169   0.56821   0.00000  Uiso   1.00
C1159  C     0.29661   0.55819   0.93604   0.00000  Uiso   1.00
O1160  O     0.30502   0.54070   0.89712   0.00000  Uiso   1.00
O1161  O     0.33200   0.57842   0.94873   0.00000  Uiso   1.00
H1162  H     0.02975   0.57769   0.92198   0.00000  Uiso   1.00
N1163  N     0.27484   0.46064   0.58570   0.00000  Uiso   1.00
O1164  O     0.31879   0.45475   0.56178   0.00000  Uiso   1.00
O1165  O     0.25185   0.43047   0.61278   0.00000  Uiso   1.00
N1166  N     0.04867   0.46701   0.91088   0.00000  Uiso   1.00
O1167  O     0.03134   0.47319   0.87609   0.00000  Uiso   1.00
O1168  O     0.03226   0.43629   0.94055   0.00000  Uiso   1.00
C1169  C     0.09458   0.59780   0.60166   0.00000  Uiso   1.00
O1170  O     0.05609   0.59479   0.63201   0.00000  Uiso   1.00
O1171  O     0.12752   0.62526   0.60968   0.00000  Uiso   1.00
H1172  H     0.11543   0.64034   0.64177   0.00000  Uiso   1.00
C1173  C     0.22306   0.60976   0.91230   0.00000  Uiso   1.00
O1174  O     0.26287   0.62226   0.89266   0.00000  Uiso   1.00
O1175  O     0.18607   0.62701   0.89923   0.00000  Uiso   1.00
H1176  H     0.19691   0.64834   0.87238   0.00000  Uiso   1.00
C1177  C     0.24066   0.62647   0.67294   0.00000  Uiso   1.00
O1178  O     0.23485   0.59242   0.65664   0.00000  Uiso   1.00
O1179  O     0.28306   0.64760   0.65341   0.00000  Uiso   1.00
H1180  H     0.30643   0.63121   0.62685   0.00000  Uiso   1.00
C1181  C     0.09610   0.37379   0.82819   0.00000  Uiso   1.00
O1182  O     0.10557   0.40567   0.84625   0.00000  Uiso   1.00
O1183  O     0.05218   0.35520   0.84769   0.00000  Uiso   1.00
H1184  H     0.03101   0.37152   0.87600   0.00000  Uiso   1.00
N1185  N     0.29727   0.42895   0.71858   0.00000  Uiso   1.00
O1186  O     0.28493   0.39704   0.74739   0.00000  Uiso   1.00
O1187  O     0.30715   0.42300   0.67253   0.00000  Uiso   1.00
N1188  N     0.03634   0.57048   0.78267   0.00000  Uiso   1.00
O1189  O     0.04300   0.60551   0.75881   0.00000  Uiso   1.00
O1190  O     0.04524   0.56840   0.82318   0.00000  Uiso   1.00
N1191  N     0.05841   0.43114   0.71310   0.00000  Uiso   1.00
O1192  O     0.04945   0.39411   0.73233   0.00000  Uiso   1.00
O1193  O     0.09094   0.43536   0.67185   0.00000  Uiso   1.00
N1194  N     0.27816   0.57181   0.77861   0.00000  Uiso   1.00
O1195  O     0.28832   0.60597   0.75329   0.00000  Uiso   1.00
O1196  O     0.24373   0.57182   0.81856   0.00000  Uiso   1.00
O1197  O     0.46179   0.56108   0.75001   0.00000  Uiso   1.00
O1198  O     0.53821   0.43892   0.75000   0.00000  Uiso   1.00
O1199  O     0.53823   0.56107   0.75000   0.00000  Uiso   1.00
O1200  O     0.46177   0.43893   0.75000   0.00000  Uiso   1.00
C1201  C     0.50051   0.57968   0.74831   0.00000  Uiso   1.00
C1202  C     0.49971   0.42031   0.75115   0.00000  Uiso   1.00
O1203  O     0.43994   0.50001   0.81613   0.00000  Uiso   1.00
O1204  O     0.56006   0.49999   0.68388   0.00000  Uiso   1.00
O1205  O     0.51639   0.50000   0.81612   0.00000  Uiso   1.00
O1206  O     0.48361   0.50000   0.68388   0.00000  Uiso   1.00
C1207  C     0.47089   0.50102   0.83904   0.00000  Uiso   1.00
C1208  C     0.52855   0.50076   0.66128   0.00000  Uiso   1.00
Zn1209 Zn    0.44896   0.50001   0.75000   0.00000  Uiso   1.00
Zn1210 Zn    0.55104   0.49999   0.75000   0.00000  Uiso   1.00
C1211  C     0.45418   0.51110   0.89147   0.00000  Uiso   1.00
C1212  C     0.54226   0.51100   0.60956   0.00000  Uiso   1.00
C1213  C     0.39558   0.51381   0.97077   0.00000  Uiso   1.00
C1214  C     0.59615   0.51243   0.52830   0.00000  Uiso   1.00
C1215  C     0.41025   0.49842   0.92341   0.00000  Uiso   1.00
C1216  C     0.58310   0.49577   0.57513   0.00000  Uiso   1.00
C1217  C     0.48293   0.53615   0.90976   0.00000  Uiso   1.00
C1218  C     0.51202   0.53727   0.59484   0.00000  Uiso   1.00
C1219  C     0.46826   0.55103   0.95765   0.00000  Uiso   1.00
C1220  C     0.52310   0.55161   0.54738   0.00000  Uiso   1.00
C1221  C     0.42289   0.54127   0.98789   0.00000  Uiso   1.00
C1222  C     0.56804   0.54225   0.51491   0.00000  Uiso   1.00
C1223  C     0.49987   0.56969   0.97844   0.00000  Uiso   1.00
C1224  C     0.48846   0.56825   0.52878   0.00000  Uiso   1.00
C1225  C     0.44080   0.57247   0.55626   0.00000  Uiso   1.00
C1226  C     0.54645   0.57818   0.95184   0.00000  Uiso   1.00
C1227  C     0.40727   0.55686   0.53582   0.00000  Uiso   1.00
C1228  C     0.58137   0.56020   0.96833   0.00000  Uiso   1.00
H1229  H     0.47878   0.54488   0.62080   0.00000  Uiso   1.00
H1230  H     0.51779   0.54260   0.88677   0.00000  Uiso   1.00
H1231  H     0.36351   0.50253   0.99526   0.00000  Uiso   1.00
H1232  H     0.62565   0.49927   0.50094   0.00000  Uiso   1.00
C1233  C     0.53611   0.64627   0.71268   0.00000  Uiso   1.00
C1234  C     0.46502   0.35374   0.78683   0.00000  Uiso   1.00
C1235  C     0.53493   0.35607   0.71582   0.00000  Uiso   1.00
C1236  C     0.46578   0.64402   0.78349   0.00000  Uiso   1.00
H1237  H     0.56067   0.37446   0.68918   0.00000  Uiso   1.00
H1238  H     0.44048   0.62585   0.81076   0.00000  Uiso   1.00
C1239  C     0.49980   0.37606   0.75206   0.00000  Uiso   1.00
C1240  C     0.50073   0.62394   0.74706   0.00000  Uiso   1.00
C1241  C     0.64780   0.46559   0.73508   0.00000  Uiso   1.00
C1242  C     0.35254   0.53448   0.76465   0.00000  Uiso   1.00
C1243  C     0.36234   0.46602   0.73385   0.00000  Uiso   1.00
C1244  C     0.63877   0.53480   0.76356   0.00000  Uiso   1.00
N1245  N     0.38093   0.50001   0.75001   0.00000  Uiso   1.00
N1246  N     0.61907   0.49999   0.74999   0.00000  Uiso   1.00
C1247  C     0.35675   0.55774   0.56298   0.00000  Uiso   1.00
O1248  O     0.34135   0.53688   0.59954   0.00000  Uiso   1.00
O1249  O     0.66030   0.58273   0.54644   0.00000  Uiso   1.00
H1250  H     0.62670   0.58169   0.56821   0.00000  Uiso   1.00
C1251  C     0.62995   0.55819   0.93604   0.00000  Uiso   1.00
O1252  O     0.63835   0.54070   0.89712   0.00000  Uiso   1.00
O1253  O     0.66534   0.57842   0.94873   0.00000  Uiso   1.00
H1254  H     0.36309   0.57769   0.92198   0.00000  Uiso   1.00
N1255  N     0.60817   0.46064   0.58570   0.00000  Uiso   1.00
O1256  O     0.65212   0.45475   0.56178   0.00000  Uiso   1.00
O1257  O     0.58518   0.43047   0.61278   0.00000  Uiso   1.00
N1258  N     0.38200   0.46701   0.91088   0.00000  Uiso   1.00
O1259  O     0.36467   0.47319   0.87609   0.00000  Uiso   1.00
O1260  O     0.36559   0.43629   0.94055   0.00000  Uiso   1.00
C1261  C     0.42792   0.59780   0.60166   0.00000  Uiso   1.00
O1262  O     0.38943   0.59479   0.63201   0.00000  Uiso   1.00
O1263  O     0.46085   0.62526   0.60968   0.00000  Uiso   1.00
H1264  H     0.44876   0.64034   0.64177   0.00000  Uiso   1.00
C1265  C     0.55639   0.60976   0.91230   0.00000  Uiso   1.00
O1266  O     0.59620   0.62226   0.89266   0.00000  Uiso   1.00
O1267  O     0.51940   0.62701   0.89923   0.00000  Uiso   1.00
H1268  H     0.53025   0.64834   0.87238   0.00000  Uiso   1.00
C1269  C     0.57400   0.62647   0.67294   0.00000  Uiso   1.00
O1270  O     0.56819   0.59242   0.65664   0.00000  Uiso   1.00
O1271  O     0.61639   0.64760   0.65341   0.00000  Uiso   1.00
H1272  H     0.63977   0.63121   0.62685   0.00000  Uiso   1.00
C1273  C     0.42943   0.37379   0.82819   0.00000  Uiso   1.00
O1274  O     0.43891   0.40567   0.84625   0.00000  Uiso   1.00
O1275  O     0.38552   0.35520   0.84769   0.00000  Uiso   1.00
H1276  H     0.36434   0.37152   0.87600   0.00000  Uiso   1.00
N1277  N     0.63060   0.42895   0.71858   0.00000  Uiso   1.00
O1278  O     0.61827   0.39704   0.74739   0.00000  Uiso   1.00
O1279  O     0.64048   0.42300   0.67253   0.00000  Uiso   1.00
N1280  N     0.36967   0.57048   0.78267   0.00000  Uiso   1.00
O1281  O     0.37633   0.60551   0.75881   0.00000  Uiso   1.00
O1282  O     0.37858   0.56840   0.82318   0.00000  Uiso   1.00
N1283  N     0.39174   0.43114   0.71310   0.00000  Uiso   1.00
O1284  O     0.38278   0.39411   0.73233   0.00000  Uiso   1.00
O1285  O     0.42427   0.43536   0.67185   0.00000  Uiso   1.00
N1286  N     0.61150   0.57181   0.77861   0.00000  Uiso   1.00
O1287  O     0.62165   0.60597   0.75329   0.00000  Uiso   1.00
O1288  O     0.57706   0.57182   0.81856   0.00000  Uiso   1.00
O1289  O     0.79512   0.56108   0.75001   0.00000  Uiso   1.00
O1290  O     0.87154   0.43892   0.75000   0.00000  Uiso   1.00
O1291  O     0.87157   0.56107   0.75000   0.00000  Uiso   1.00
O1292  O     0.79510   0.43893   0.75000   0.00000  Uiso   1.00
C1293  C     0.83385   0.57968   0.74831   0.00000  Uiso   1.00
C1294  C     0.83304   0.42031   0.75115   0.00000  Uiso   1.00
O1295  O     0.77328   0.50001   0.81613   0.00000  Uiso   1.00
O1296  O     0.89339   0.49999   0.68388   0.00000  Uiso   1.00
O1297  O     0.84972   0.50000   0.81612   0.00000  Uiso   1.00
O1298  O     0.81695   0.50000   0.68388   0.00000  Uiso   1.00
C1299  C     0.80422   0.50102   0.83904   0.00000  Uiso   1.00
C1300  C     0.86188   0.50076   0.66128   0.00000  Uiso   1.00
Zn1301 Zn    0.78229   0.50001   0.75000   0.00000  Uiso   1.00
Zn1302 Zn    0.88438   0.49999   0.75000   0.00000  Uiso   1.00
C1303  C     0.78751   0.51110   0.89147   0.00000  Uiso   1.00
C1304  C     0.87559   0.51100   0.60956   0.00000  Uiso   1.00
C1305  C     0.72891   0.51381   0.97077   0.00000  Uiso   1.00
C1306  C     0.92949   0.51243   0.52830   0.00000  Uiso   1.00
C1307  C     0.74358   0.49842   0.92341   0.00000  Uiso   1.00
C1308  C     0.91643   0.49577   0.57513   0.00000  Uiso   1.00
C1309  C     0.81627   0.53615   0.90976   0.00000  Uiso   1.00
C1310  C     0.84535   0.53727   0.59484   0.00000  Uiso   1.00
C1311  C     0.80159   0.55103   0.95765   0.00000  Uiso   1.00
C1312  C     0.85643   0.55161   0.54738   0.00000  Uiso   1.00
C1313  C     0.75622   0.54127   0.98789   0.00000  Uiso   1.00
C1314  C     0.90137   0.54225   0.51491   0.00000  Uiso   1.00
C1315  C     0.83320   0.56969   0.97844   0.00000  Uiso   1.00
C1316  C     0.82180   0.56825   0.52878   0.00000  Uiso   1.00
C1317  C     0.77413   0.57247   0.55626   0.00000  Uiso   1.00
C1318  C     0.87979   0.57818   0.95184   0.00000  Uiso   1.00
C1319  C     0.74061   0.55686   0.53582   0.00000  Uiso   1.00
C1320  C     0.91471   0.56020   0.96833   0.00000  Uiso   1.00
H1321  H     0.81211   0.54488   0.62080   0.00000  Uiso   1.00
H1322  H     0.85112   0.54260   0.88677   0.00000  Uiso   1.00
H1323  H     0.69685   0.50253   0.99526   0.00000  Uiso   1.00
H1324  H     0.95898   0.49927   0.50094   0.00000  Uiso   1.00
C1325  C     0.86944   0.64627   0.71268   0.00000  Uiso   1.00
C1326  C     0.79835   0.35374   0.78683   0.00000  Uiso   1.00
C1327  C     0.86827   0.35607   0.71582   0.00000  Uiso   1.00
C1328  C     0.79912   0.64402   0.78349   0.00000  Uiso   1.00
H1329  H     0.89400   0.37446   0.68918   0.00000  Uiso   1.00
H1330  H     0.77382   0.62585   0.81076   0.00000  Uiso   1.00
C1331  C     0.83313   0.37606   0.75206   0.00000  Uiso   1.00
C1332  C     0.83406   0.62394   0.74706   0.00000  Uiso   1.00
C1333  C     0.98113   0.46559   0.73508   0.00000  Uiso   1.00
C1334  C     0.68587   0.53448   0.76465   0.00000  Uiso   1.00
C1335  C     0.69567   0.46602   0.73385   0.00000  Uiso   1.00
C1336  C     0.97210   0.53480   0.76356   0.00000  Uiso   1.00
N1337  N     0.71426   0.50001   0.75001   0.00000  Uiso   1.00
N1338  N     0.95241   0.49999   0.74999   0.00000  Uiso   1.00
C1339  C     0.69009   0.55774   0.56298   0.00000  Uiso   1.00
O1340  O     0.67468   0.53688   0.59954   0.00000  Uiso   1.00
O1341  O     0.99364   0.58273   0.54644   0.00000  Uiso   1.00
H1342  H     0.96003   0.58169   0.56821   0.00000  Uiso   1.00
C1343  C     0.96328   0.55819   0.93604   0.00000  Uiso   1.00
O1344  O     0.97169   0.54070   0.89712   0.00000  Uiso   1.00
O1345  O     0.99867   0.57842   0.94873   0.00000  Uiso   1.00
H1346  H     0.69642   0.57769   0.92198   0.00000  Uiso   1.00
N1347  N     0.94150   0.46064   0.58570   0.00000  Uiso   1.00
O1348  O     0.98546   0.45475   0.56178   0.00000  Uiso   1.00
O1349  O     0.91852   0.43047   0.61278   0.00000  Uiso   1.00
N1350  N     0.71533   0.46701   0.91088   0.00000  Uiso   1.00
O1351  O     0.69801   0.47319   0.87609   0.00000  Uiso   1.00
O1352  O     0.69893   0.43629   0.94055   0.00000  Uiso   1.00
C1353  C     0.76125   0.59780   0.60166   0.00000  Uiso   1.00
O1354  O     0.72276   0.59479   0.63201   0.00000  Uiso   1.00
O1355  O     0.79418   0.62526   0.60968   0.00000  Uiso   1.00
H1356  H     0.78209   0.64034   0.64177   0.00000  Uiso   1.00
C1357  C     0.88973   0.60976   0.91230   0.00000  Uiso   1.00
O1358  O     0.92953   0.62226   0.89266   0.00000  Uiso   1.00
O1359  O     0.85273   0.62701   0.89923   0.00000  Uiso   1.00
H1360  H     0.86358   0.64834   0.87238   0.00000  Uiso   1.00
C1361  C     0.90733   0.62647   0.67294   0.00000  Uiso   1.00
O1362  O     0.90152   0.59242   0.65664   0.00000  Uiso   1.00
O1363  O     0.94973   0.64760   0.65341   0.00000  Uiso   1.00
H1364  H     0.97310   0.63121   0.62685   0.00000  Uiso   1.00
C1365  C     0.76277   0.37379   0.82819   0.00000  Uiso   1.00
O1366  O     0.77224   0.40567   0.84625   0.00000  Uiso   1.00
O1367  O     0.71885   0.35520   0.84769   0.00000  Uiso   1.00
H1368  H     0.69768   0.37152   0.87600   0.00000  Uiso   1.00
N1369  N     0.96393   0.42895   0.71858   0.00000  Uiso   1.00
O1370  O     0.95160   0.39704   0.74739   0.00000  Uiso   1.00
O1371  O     0.97381   0.42300   0.67253   0.00000  Uiso   1.00
N1372  N     0.70300   0.57048   0.78267   0.00000  Uiso   1.00
O1373  O     0.70967   0.60551   0.75881   0.00000  Uiso   1.00
O1374  O     0.71191   0.56840   0.82318   0.00000  Uiso   1.00
N1375  N     0.72508   0.43114   0.71310   0.00000  Uiso   1.00
O1376  O     0.71611   0.39411   0.73233   0.00000  Uiso   1.00
O1377  O     0.75761   0.43536   0.67185   0.00000  Uiso   1.00
N1378  N     0.94483   0.57181   0.77861   0.00000  Uiso   1.00
O1379  O     0.95498   0.60597   0.75329   0.00000  Uiso   1.00
O1380  O     0.91040   0.57182   0.81856   0.00000  Uiso   1.00
O1381  O     0.12846   0.89442   0.75001   0.00000  Uiso   1.00
O1382  O     0.20488   0.77225   0.75000   0.00000  Uiso   1.00
O1383  O     0.20490   0.89441   0.75000   0.00000  Uiso   1.00
O1384  O     0.12843   0.77226   0.75000   0.00000  Uiso   1.00
C1385  C     0.16718   0.91301   0.74831   0.00000  Uiso   1.00
C1386  C     0.16637   0.75365   0.75115   0.00000  Uiso   1.00
O1387  O     0.10661   0.83334   0.81613   0.00000  Uiso   1.00
O1388  O     0.22672   0.83333   0.68388   0.00000  Uiso   1.00
O1389  O     0.18305   0.83333   0.81612   0.00000  Uiso   1.00
O1390  O     0.15028   0.83334   0.68388   0.00000  Uiso   1.00
C1391  C     0.13755   0.83435   0.83904   0.00000  Uiso   1.00
C1392  C     0.19522   0.83409   0.66128   0.00000  Uiso   1.00
Zn1393 Zn    0.11562   0.83334   0.75000   0.00000  Uiso   1.00
Zn1394 Zn    0.21771   0.83333   0.75000   0.00000  Uiso   1.00
C1395  C     0.12085   0.84443   0.89147   0.00000  Uiso   1.00
C1396  C     0.20892   0.84433   0.60956   0.00000  Uiso   1.00
C1397  C     0.06224   0.84714   0.97077   0.00000  Uiso   1.00
C1398  C     0.26282   0.84576   0.52830   0.00000  Uiso   1.00
C1399  C     0.07692   0.83175   0.92341   0.00000  Uiso   1.00
C1400  C     0.24977   0.82910   0.57513   0.00000  Uiso   1.00
C1401  C     0.14960   0.86949   0.90976   0.00000  Uiso   1.00
C1402  C     0.17869   0.87061   0.59484   0.00000  Uiso   1.00
C1403  C     0.13492   0.88436   0.95765   0.00000  Uiso   1.00
C1404  C     0.18976   0.88494   0.54738   0.00000  Uiso   1.00
C1405  C     0.08955   0.87460   0.98789   0.00000  Uiso   1.00
C1406  C     0.23471   0.87558   0.51491   0.00000  Uiso   1.00
C1407  C     0.16654   0.90303   0.97844   0.00000  Uiso   1.00
C1408  C     0.15513   0.90159   0.52878   0.00000  Uiso   1.00
C1409  C     0.10746   0.90580   0.55626   0.00000  Uiso   1.00
C1410  C     0.21312   0.91151   0.95184   0.00000  Uiso   1.00
C1411  C     0.07394   0.89020   0.53582   0.00000  Uiso   1.00
C1412  C     0.24804   0.89353   0.96833   0.00000  Uiso   1.00
H1413  H     0.14545   0.87821   0.62080   0.00000  Uiso   1.00
H1414  H     0.18445   0.87594   0.88677   0.00000  Uiso   1.00
H1415  H     0.03018   0.83586   0.99526   0.00000  Uiso   1.00
H1416  H     0.29231   0.83260   0.50094   0.00000  Uiso   1.00
C1417  C     0.20278   0.97961   0.71268   0.00000  Uiso   1.00
C1418  C     0.13169   0.68708   0.78683   0.00000  Uiso   1.00
C1419  C     0.20160   0.68941   0.71582   0.00000  Uiso   1.00
C1420  C     0.13245   0.97736   0.78349   0.00000  Uiso   1.00
H1421  H     0.22734   0.70779   0.68918   0.00000  Uiso   1.00
H1422  H     0.10715   0.95919   0.81076   0.00000  Uiso   1.00
C1423  C     0.16647   0.70939   0.75206   0.00000  Uiso   1.00
C1424  C     0.16740   0.95728   0.74706   0.00000  Uiso   1.00
C1425  C     0.31446   0.79892   0.73508   0.00000  Uiso   1.00
C1426  C     0.01921   0.86781   0.76465   0.00000  Uiso   1.00
C1427  C     0.02900   0.79936   0.73385   0.00000  Uiso   1.00
C1428  C     0.30543   0.86813   0.76356   0.00000  Uiso   1.00
N1429  N     0.04759   0.83334   0.75001   0.00000  Uiso   1.00
N1430  N     0.28574   0.83332   0.74999   0.00000  Uiso   1.00
C1431  C     0.02342   0.89107   0.56298   0.00000  Uiso   1.00
O1432  O     0.00802   0.87022   0.59954   0.00000  Uiso   1.00
O1433  O     0.32697   0.91607   0.54644   0.00000  Uiso   1.00
H1434  H     0.29336   0.91502   0.56821   0.00000  Uiso   1.00
C1435  C     0.29661   0.89152   0.93604   0.00000  Uiso   1.00
O1436  O     0.30502   0.87403   0.89712   0.00000  Uiso   1.00
O1437  O     0.33200   0.91175   0.94873   0.00000  Uiso   1.00
H1438  H     0.02975   0.91103   0.92198   0.00000  Uiso   1.00
N1439  N     0.27484   0.79397   0.58570   0.00000  Uiso   1.00
O1440  O     0.31879   0.78808   0.56178   0.00000  Uiso   1.00
O1441  O     0.25185   0.76381   0.61278   0.00000  Uiso   1.00
N1442  N     0.04867   0.80034   0.91088   0.00000  Uiso   1.00
O1443  O     0.03134   0.80653   0.87609   0.00000  Uiso   1.00
O1444  O     0.03226   0.76962   0.94055   0.00000  Uiso   1.00
C1445  C     0.09458   0.93113   0.60166   0.00000  Uiso   1.00
O1446  O     0.05609   0.92812   0.63201   0.00000  Uiso   1.00
O1447  O     0.12752   0.95860   0.60968   0.00000  Uiso   1.00
H1448  H     0.11543   0.97367   0.64177   0.00000  Uiso   1.00
C1449  C     0.22306   0.94309   0.91230   0.00000  Uiso   1.00
O1450  O     0.26287   0.95560   0.89266   0.00000  Uiso   1.00
O1451  O     0.18607   0.96035   0.89923   0.00000  Uiso   1.00
H1452  H     0.19691   0.98167   0.87238   0.00000  Uiso   1.00
C1453  C     0.24066   0.95980   0.67294   0.00000  Uiso   1.00
O1454  O     0.23485   0.92575   0.65664   0.00000  Uiso   1.00
O1455  O     0.28306   0.98094   0.65341   0.00000  Uiso   1.00
H1456  H     0.30643   0.96454   0.62685   0.00000  Uiso   1.00
C1457  C     0.09610   0.70712   0.82819   0.00000  Uiso   1.00
O1458  O     0.10557   0.73900   0.84625   0.00000  Uiso   1.00
O1459  O     0.05218   0.68853   0.84769   0.00000  Uiso   1.00
H1460  H     0.03101   0.70485   0.87600   0.00000  Uiso   1.00
N1461  N     0.29727   0.76229   0.71858   0.00000  Uiso   1.00
O1462  O     0.28493   0.73037   0.74739   0.00000  Uiso   1.00
O1463  O     0.30715   0.75633   0.67253   0.00000  Uiso   1.00
N1464  N     0.03634   0.90381   0.78267   0.00000  Uiso   1.00
O1465  O     0.04300   0.93885   0.75881   0.00000  Uiso   1.00
O1466  O     0.04524   0.90173   0.82318   0.00000  Uiso   1.00
N1467  N     0.05841   0.76448   0.71310   0.00000  Uiso   1.00
O1468  O     0.04945   0.72745   0.73233   0.00000  Uiso   1.00
O1469  O     0.09094   0.76869   0.67185   0.00000  Uiso   1.00
N1470  N     0.27816   0.90514   0.77861   0.00000  Uiso   1.00
O1471  O     0.28832   0.93930   0.75329   0.00000  Uiso   1.00
O1472  O     0.24373   0.90515   0.81856   0.00000  Uiso   1.00
O1473  O     0.46179   0.89442   0.75001   0.00000  Uiso   1.00
O1474  O     0.53821   0.77225   0.75000   0.00000  Uiso   1.00
O1475  O     0.53823   0.89441   0.75000   0.00000  Uiso   1.00
O1476  O     0.46177   0.77226   0.75000   0.00000  Uiso   1.00
C1477  C     0.50051   0.91301   0.74831   0.00000  Uiso   1.00
C1478  C     0.49971   0.75365   0.75115   0.00000  Uiso   1.00
O1479  O     0.43994   0.83334   0.81613   0.00000  Uiso   1.00
O1480  O     0.56006   0.83333   0.68388   0.00000  Uiso   1.00
O1481  O     0.51639   0.83333   0.81612   0.00000  Uiso   1.00
O1482  O     0.48361   0.83334   0.68388   0.00000  Uiso   1.00
C1483  C     0.47089   0.83435   0.83904   0.00000  Uiso   1.00
C1484  C     0.52855   0.83409   0.66128   0.00000  Uiso   1.00
Zn1485 Zn    0.44896   0.83334   0.75000   0.00000  Uiso   1.00
Zn1486 Zn    0.55104   0.83333   0.75000   0.00000  Uiso   1.00
C1487  C     0.45418   0.84443   0.89147   0.00000  Uiso   1.00
C1488  C     0.54226   0.84433   0.60956   0.00000  Uiso   1.00
C1489  C     0.39558   0.84714   0.97077   0.00000  Uiso   1.00
C1490  C     0.59615   0.84576   0.52830   0.00000  Uiso   1.00
C1491  C     0.41025   0.83175   0.92341   0.00000  Uiso   1.00
C1492  C     0.58310   0.82910   0.57513   0.00000  Uiso   1.00
C1493  C     0.48293   0.86949   0.90976   0.00000  Uiso   1.00
C1494  C     0.51202   0.87061   0.59484   0.00000  Uiso   1.00
C1495  C     0.46826   0.88436   0.95765   0.00000  Uiso   1.00
C1496  C     0.52310   0.88494   0.54738   0.00000  Uiso   1.00
C1497  C     0.42289   0.87460   0.98789   0.00000  Uiso   1.00
C1498  C     0.56804   0.87558   0.51491   0.00000  Uiso   1.00
C1499  C     0.49987   0.90303   0.97844   0.00000  Uiso   1.00
C1500  C     0.48846   0.90159   0.52878   0.00000  Uiso   1.00
C1501  C     0.44080   0.90580   0.55626   0.00000  Uiso   1.00
C1502  C     0.54645   0.91151   0.95184   0.00000  Uiso   1.00
C1503  C     0.40727   0.89020   0.53582   0.00000  Uiso   1.00
C1504  C     0.58137   0.89353   0.96833   0.00000  Uiso   1.00
H1505  H     0.47878   0.87821   0.62080   0.00000  Uiso   1.00
H1506  H     0.51779   0.87594   0.88677   0.00000  Uiso   1.00
H1507  H     0.36351   0.83586   0.99526   0.00000  Uiso   1.00
H1508  H     0.62565   0.83260   0.50094   0.00000  Uiso   1.00
C1509  C     0.53611   0.97961   0.71268   0.00000  Uiso   1.00
C1510  C     0.46502   0.68708   0.78683   0.00000  Uiso   1.00
C1511  C     0.53493   0.68941   0.71582   0.00000  Uiso   1.00
C1512  C     0.46578   0.97736   0.78349   0.00000  Uiso   1.00
H1513  H     0.56067   0.70779   0.68918   0.00000  Uiso   1.00
H1514  H     0.44048   0.95919   0.81076   0.00000  Uiso   1.00
C1515  C     0.49980   0.70939   0.75206   0.00000  Uiso   1.00
C1516  C     0.50073   0.95728   0.74706   0.00000  Uiso   1.00
C1517  C     0.64780   0.79892   0.73508   0.00000  Uiso   1.00
C1518  C     0.35254   0.86781   0.76465   0.00000  Uiso   1.00
C1519  C     0.36234   0.79936   0.73385   0.00000  Uiso   1.00
C1520  C     0.63877   0.86813   0.76356   0.00000  Uiso   1.00
N1521  N     0.38093   0.83334   0.75001   0.00000  Uiso   1.00
N1522  N     0.61907   0.83332   0.74999   0.00000  Uiso   1.00
C1523  C     0.35675   0.89107   0.56298   0.00000  Uiso   1.00
O1524  O     0.34135   0.87022   0.59954   0.00000  Uiso   1.00
O1525  O     0.66030   0.91607   0.54644   0.00000  Uiso   1.00
H1526  H     0.62670   0.91502   0.56821   0.00000  Uiso   1.00
C1527  C     0.62995   0.89152   0.93604   0.00000  Uiso   1.00
O1528  O     0.63835   0.87403   0.89712   0.00000  Uiso   1.00
O1529  O     0.66534   0.91175   0.94873   0.00000  Uiso   1.00
H1530  H     0.36309   0.91103   0.92198   0.00000  Uiso   1.00
N1531  N     0.60817   0.79397   0.58570   0.00000  Uiso   1.00
O1532  O     0.65212   0.78808   0.56178   0.00000  Uiso   1.00
O1533  O     0.58518   0.76381   0.61278   0.00000  Uiso   1.00
N1534  N     0.38200   0.80034   0.91088   0.00000  Uiso   1.00
O1535  O     0.36467   0.80653   0.87609   0.00000  Uiso   1.00
O1536  O     0.36559   0.76962   0.94055   0.00000  Uiso   1.00
C1537  C     0.42792   0.93113   0.60166   0.00000  Uiso   1.00
O1538  O     0.38943   0.92812   0.63201   0.00000  Uiso   1.00
O1539  O     0.46085   0.95860   0.60968   0.00000  Uiso   1.00
H1540  H     0.44876   0.97367   0.64177   0.00000  Uiso   1.00
C1541  C     0.55639   0.94309   0.91230   0.00000  Uiso   1.00
O1542  O     0.59620   0.95560   0.89266   0.00000  Uiso   1.00
O1543  O     0.51940   0.96035   0.89923   0.00000  Uiso   1.00
H1544  H     0.53025   0.98167   0.87238   0.00000  Uiso   1.00
C1545  C     0.57400   0.95980   0.67294   0.00000  Uiso   1.00
O1546  O     0.56819   0.92575   0.65664   0.00000  Uiso   1.00
O1547  O     0.61639   0.98094   0.65341   0.00000  Uiso   1.00
H1548  H     0.63977   0.96454   0.62685   0.00000  Uiso   1.00
C1549  C     0.42943   0.70712   0.82819   0.00000  Uiso   1.00
O1550  O     0.43891   0.73900   0.84625   0.00000  Uiso   1.00
O1551  O     0.38552   0.68853   0.84769   0.00000  Uiso   1.00
H1552  H     0.36434   0.70485   0.87600   0.00000  Uiso   1.00
N1553  N     0.63060   0.76229   0.71858   0.00000  Uiso   1.00
O1554  O     0.61827   0.73037   0.74739   0.00000  Uiso   1.00
O1555  O     0.64048   0.75633   0.67253   0.00000  Uiso   1.00
N1556  N     0.36967   0.90381   0.78267   0.00000  Uiso   1.00
O1557  O     0.37633   0.93885   0.75881   0.00000  Uiso   1.00
O1558  O     0.37858   0.90173   0.82318   0.00000  Uiso   1.00
N1559  N     0.39174   0.76448   0.71310   0.00000  Uiso   1.00
O1560  O     0.38278   0.72745   0.73233   0.00000  Uiso   1.00
O1561  O     0.42427   0.76869   0.67185   0.00000  Uiso   1.00
N1562  N     0.61150   0.90514   0.77861   0.00000  Uiso   1.00
O1563  O     0.62165   0.93930   0.75329   0.00000  Uiso   1.00
O1564  O     0.57706   0.90515   0.81856   0.00000  Uiso   1.00
O1565  O     0.79512   0.89442   0.75001   0.00000  Uiso   1.00
O1566  O     0.87154   0.77225   0.75000   0.00000  Uiso   1.00
O1567  O     0.87157   0.89441   0.75000   0.00000  Uiso   1.00
O1568  O     0.79510   0.77226   0.75000   0.00000  Uiso   1.00
C1569  C     0.83385   0.91301   0.74831   0.00000  Uiso   1.00
C1570  C     0.83304   0.75365   0.75115   0.00000  Uiso   1.00
O1571  O     0.77328   0.83334   0.81613   0.00000  Uiso   1.00
O1572  O     0.89339   0.83333   0.68388   0.00000  Uiso   1.00
O1573  O     0.84972   0.83333   0.81612   0.00000  Uiso   1.00
O1574  O     0.81695   0.83334   0.68388   0.00000  Uiso   1.00
C1575  C     0.80422   0.83435   0.83904   0.00000  Uiso   1.00
C1576  C     0.86188   0.83409   0.66128   0.00000  Uiso   1.00
Zn1577 Zn    0.78229   0.83334   0.75000   0.00000  Uiso   1.00
Zn1578 Zn    0.88438   0.83333   0.75000   0.00000  Uiso   1.00
C1579  C     0.78751   0.84443   0.89147   0.00000  Uiso   1.00
C1580  C     0.87559   0.84433   0.60956   0.00000  Uiso   1.00
C1581  C     0.72891   0.84714   0.97077   0.00000  Uiso   1.00
C1582  C     0.92949   0.84576   0.52830   0.00000  Uiso   1.00
C1583  C     0.74358   0.83175   0.92341   0.00000  Uiso   1.00
C1584  C     0.91643   0.82910   0.57513   0.00000  Uiso   1.00
C1585  C     0.81627   0.86949   0.90976   0.00000  Uiso   1.00
C1586  C     0.84535   0.87061   0.59484   0.00000  Uiso   1.00
C1587  C     0.80159   0.88436   0.95765   0.00000  Uiso   1.00
C1588  C     0.85643   0.88494   0.54738   0.00000  Uiso   1.00
C1589  C     0.75622   0.87460   0.98789   0.00000  Uiso   1.00
C1590  C     0.90137   0.87558   0.51491   0.00000  Uiso   1.00
C1591  C     0.83320   0.90303   0.97844   0.00000  Uiso   1.00
C1592  C     0.82180   0.90159   0.52878   0.00000  Uiso   1.00
C1593  C     0.77413   0.90580   0.55626   0.00000  Uiso   1.00
C1594  C     0.87979   0.91151   0.95184   0.00000  Uiso   1.00
C1595  C     0.74061   0.89020   0.53582   0.00000  Uiso   1.00
C1596  C     0.91471   0.89353   0.96833   0.00000  Uiso   1.00
H1597  H     0.81211   0.87821   0.62080   0.00000  Uiso   1.00
H1598  H     0.85112   0.87594   0.88677   0.00000  Uiso   1.00
H1599  H     0.69685   0.83586   0.99526   0.00000  Uiso   1.00
H1600  H     0.95898   0.83260   0.50094   0.00000  Uiso   1.00
C1601  C     0.86944   0.97961   0.71268   0.00000  Uiso   1.00
C1602  C     0.79835   0.68708   0.78683   0.00000  Uiso   1.00
C1603  C     0.86827   0.68941   0.71582   0.00000  Uiso   1.00
C1604  C     0.79912   0.97736   0.78349   0.00000  Uiso   1.00
H1605  H     0.89400   0.70779   0.68918   0.00000  Uiso   1.00
H1606  H     0.77382   0.95919   0.81076   0.00000  Uiso   1.00
C1607  C     0.83313   0.70939   0.75206   0.00000  Uiso   1.00
C1608  C     0.83406   0.95728   0.74706   0.00000  Uiso   1.00
C1609  C     0.98113   0.79892   0.73508   0.00000  Uiso   1.00
C1610  C     0.68587   0.86781   0.76465   0.00000  Uiso   1.00
C1611  C     0.69567   0.79936   0.73385   0.00000  Uiso   1.00
C1612  C     0.97210   0.86813   0.76356   0.00000  Uiso   1.00
N1613  N     0.71426   0.83334   0.75001   0.00000  Uiso   1.00
N1614  N     0.95241   0.83332   0.74999   0.00000  Uiso   1.00
C1615  C     0.69009   0.89107   0.56298   0.00000  Uiso   1.00
O1616  O     0.67468   0.87022   0.59954   0.00000  Uiso   1.00
O1617  O     0.99364   0.91607   0.54644   0.00000  Uiso   1.00
H1618  H     0.96003   0.91502   0.56821   0.00000  Uiso   1.00
C1619  C     0.96328   0.89152   0.93604   0.00000  Uiso   1.00
O1620  O     0.97169   0.87403   0.89712   0.00000  Uiso   1.00
O1621  O     0.99867   0.91175   0.94873   0.00000  Uiso   1.00
H1622  H     0.69642   0.91103   0.92198   0.00000  Uiso   1.00
N1623  N     0.94150   0.79397   0.58570   0.00000  Uiso   1.00
O1624  O     0.98546   0.78808   0.56178   0.00000  Uiso   1.00
O1625  O     0.91852   0.76381   0.61278   0.00000  Uiso   1.00
N1626  N     0.71533   0.80034   0.91088   0.00000  Uiso   1.00
O1627  O     0.69801   0.80653   0.87609   0.00000  Uiso   1.00
O1628  O     0.69893   0.76962   0.94055   0.00000  Uiso   1.00
C1629  C     0.76125   0.93113   0.60166   0.00000  Uiso   1.00
O1630  O     0.72276   0.92812   0.63201   0.00000  Uiso   1.00
O1631  O     0.79418   0.95860   0.60968   0.00000  Uiso   1.00
H1632  H     0.78209   0.97367   0.64177   0.00000  Uiso   1.00
C1633  C     0.88973   0.94309   0.91230   0.00000  Uiso   1.00
O1634  O     0.92953   0.95560   0.89266   0.00000  Uiso   1.00
O1635  O     0.85273   0.96035   0.89923   0.00000  Uiso   1.00
H1636  H     0.86358   0.98167   0.87238   0.00000  Uiso   1.00
C1637  C     0.90733   0.95980   0.67294   0.00000  Uiso   1.00
O1638  O     0.90152   0.92575   0.65664   0.00000  Uiso   1.00
O1639  O     0.94973   0.98094   0.65341   0.00000  Uiso   1.00
H1640  H     0.97310   0.96454   0.62685   0.00000  Uiso   1.00
C1641  C     0.76277   0.70712   0.82819   0.00000  Uiso   1.00
O1642  O     0.77224   0.73900   0.84625   0.00000  Uiso   1.00
O1643  O     0.71885   0.68853   0.84769   0.00000  Uiso   1.00
H1644  H     0.69768   0.70485   0.87600   0.00000  Uiso   1.00
N1645  N     0.96393   0.76229   0.71858   0.00000  Uiso   1.00
O1646  O     0.95160   0.73037   0.74739   0.00000  Uiso   1.00
O1647  O     0.97381   0.75633   0.67253   0.00000  Uiso   1.00
N1648  N     0.70300   0.90381   0.78267   0.00000  Uiso   1.00
O1649  O     0.70967   0.93885   0.75881   0.00000  Uiso   1.00
O1650  O     0.71191   0.90173   0.82318   0.00000  Uiso   1.00
N1651  N     0.72508   0.76448   0.71310   0.00000  Uiso   1.00
O1652  O     0.71611   0.72745   0.73233   0.00000  Uiso   1.00
O1653  O     0.75761   0.76869   0.67185   0.00000  Uiso   1.00
N1654  N     0.94483   0.90514   0.77861   0.00000  Uiso   1.00
O1655  O     0.95498   0.93930   0.75329   0.00000  Uiso   1.00
O1656  O     0.91040   0.90515   0.81856   0.00000  Uiso   1.00
loop_
_geom_bond_atom_site_label_1
_geom_bond_atom_site_label_2
_geom_bond_distance
_geom_bond_site_symmetry_2
_ccdc_geom_bond_type
O1     C5      1.298   .     A
O1     Zn13    1.987   .     S
O2     C6      1.296   .     A
O2     Zn14    1.987   .     S
O3     Zn14    1.984   .     S
O3     C5      1.296   .     A
O4     Zn13    1.984   .     S
O4     C6      1.297   .     A
C5     C44     1.412   .     S
C6     C43     1.411   .     S
O7     C11     1.311   .     A
O7     Zn13    1.869   .     S
O8     Zn14    1.869   .     S
O8     C12     1.319   .     A
O9     Zn14    1.887   .     S
O9     C11     1.322   .     A
O10    C12     1.306   .     A
O10    Zn13    1.887   .     S
C11    C15     1.492   .     S
C12    C16     1.476   .     S
Zn13   N49     2.050   .     S
Zn14   N50     2.050   .     S
C15    C19     1.418   .     A
C15    C21     1.405   .     A
C16    C20     1.406   .     A
C16    C22     1.401   .     A
C17    C25     1.400   .     A
C17    C19     1.403   .     A
C17    H35     1.069   .     S
C18    C26     1.408   .     A
C18    C20     1.408   .     A
C18    H36     1.074   .     S
C19    N62     1.437   .     S
C20    N59     1.437   .     S
C21    H34     1.074   .     S
C21    C23     1.412   .     A
C22    C24     1.401   .     A
C22    H33     1.075   .     S
C23    C27     1.415   .     A
C23    C25     1.410   .     A
C24    C28     1.423   .     A
C24    C26     1.417   .     A
C25    C859    1.421   .     S
C26    C860    1.417   1_554 S
C27    C30     1.400   .     A
C27    C856    1.405   .     S
C28    C29     1.413   .     A
C28    C855    1.405   1_554 S
C29    C65     1.497   .     S
C29    C31     1.419   .     A
C30    C32     1.410   .     A
C30    C69     1.494   .     S
C31    C51     1.478   .     S
C31    C853    1.421   1_554 S
C32    C55     1.471   .     S
C32    C854    1.417   .     S
C37    C73     1.486   .     S
C37    C44     1.409   .     A
C37    C315    1.378   .     S
C38    C77     1.482   .     S
C38    C43     1.405   .     A
C38    C592    1.376   1_545 S
C39    H41     1.084   .     S
C39    C43     1.391   .     A
C39    C589    1.378   1_545 S
C40    H42     1.083   .     S
C40    C44     1.393   .     A
C40    C314    1.376   .     S
C45    N81     1.424   .     S
C45    N50     1.377   .     A
C45    C139    1.432   .     S
C46    N49     1.373   .     A
C46    N84     1.427   .     S
C46    C232    1.430   1_455 S
C47    N49     1.372   .     A
C47    N87     1.429   .     S
C47    C229    1.432   1_455 S
C48    N50     1.376   .     A
C48    N90     1.423   .     S
C48    C138    1.430   .     S
C51    O52     1.223   .     D
C51    O237    1.396   1_455 S
O53    H54     1.012   .     S
O53    C143    1.396   .     S
C55    O56     1.221   .     D
C55    O57     1.395   .     S
O57    H150    1.013   .     S
H58    O241    1.013   1_455 S
N59    O60     1.300   .     A
N59    O61     1.301   .     A
N62    O64     1.301   .     A
N62    O63     1.299   .     A
C65    O67     1.400   .     S
C65    O66     1.222   .     D
O67    H68     1.014   .     S
C69    O71     1.400   .     S
C69    O70     1.223   .     D
O71    H72     1.014   .     S
C73    O74     1.221   .     D
C73    O75     1.399   .     S
O75    H76     1.012   .     S
C77    O79     1.399   .     S
C77    O78     1.221   .     D
O79    H80     1.013   .     S
N81    O82     1.301   .     A
N81    O83     1.300   .     A
N84    O86     1.299   .     A
N84    O85     1.301   .     A
N87    O88     1.301   .     A
N87    O89     1.300   .     A
N90    O92     1.295   .     A
N90    O91     1.300   .     A
O93    C97     1.298   .     A
O93    Zn105   1.987   .     S
O94    C98     1.296   .     A
O94    Zn106   1.987   .     S
O95    Zn106   1.984   .     S
O95    C97     1.296   .     A
O96    Zn105   1.984   .     S
O96    C98     1.297   .     A
C97    C136    1.412   .     S
C98    C135    1.411   .     S
O99    C103    1.311   .     A
O99    Zn105   1.869   .     S
O100   Zn106   1.869   .     S
O100   C104    1.319   .     A
O101   Zn106   1.887   .     S
O101   C103    1.322   .     A
O102   C104    1.306   .     A
O102   Zn105   1.887   .     S
C103   C107    1.492   .     S
C104   C108    1.476   .     S
Zn105  N141    2.050   .     S
Zn106  N142    2.050   .     S
C107   C111    1.418   .     A
C107   C113    1.405   .     A
C108   C112    1.406   .     A
C108   C114    1.401   .     A
C109   C117    1.400   .     A
C109   C111    1.403   .     A
C109   H127    1.069   .     S
C110   C118    1.408   .     A
C110   C112    1.408   .     A
C110   H128    1.074   .     S
C111   N154    1.437   .     S
C112   N151    1.437   .     S
C113   H126    1.074   .     S
C113   C115    1.412   .     A
C114   C116    1.401   .     A
C114   H125    1.075   .     S
C115   C119    1.415   .     A
C115   C117    1.410   .     A
C116   C120    1.423   .     A
C116   C118    1.417   .     A
C117   C951    1.421   .     S
C118   C952    1.417   1_554 S
C119   C122    1.400   .     A
C119   C948    1.405   .     S
C120   C121    1.413   .     A
C120   C947    1.405   1_554 S
C121   C157    1.497   .     S
C121   C123    1.419   .     A
C122   C124    1.410   .     A
C122   C161    1.494   .     S
C123   C143    1.478   .     S
C123   C945    1.421   1_554 S
C124   C147    1.471   .     S
C124   C946    1.417   .     S
C129   C165    1.486   .     S
C129   C136    1.409   .     A
C129   C407    1.378   .     S
C130   C169    1.482   .     S
C130   C135    1.405   .     A
C130   C684    1.376   1_545 S
C131   H133    1.084   .     S
C131   C135    1.391   .     A
C131   C681    1.378   1_545 S
C132   H134    1.083   .     S
C132   C136    1.393   .     A
C132   C406    1.376   .     S
C137   N173    1.424   .     S
C137   N142    1.377   .     A
C137   C231    1.432   .     S
C138   N141    1.373   .     A
C138   N176    1.427   .     S
C139   N141    1.372   .     A
C139   N179    1.429   .     S
C140   N142    1.376   .     A
C140   N182    1.423   .     S
C140   C230    1.430   .     S
C143   O144    1.223   .     D
O145   H146    1.012   .     S
O145   C235    1.396   .     S
C147   O148    1.221   .     D
C147   O149    1.395   .     S
O149   H242    1.013   .     S
N151   O152    1.300   .     A
N151   O153    1.301   .     A
N154   O156    1.301   .     A
N154   O155    1.299   .     A
C157   O159    1.400   .     S
C157   O158    1.222   .     D
O159   H160    1.014   .     S
C161   O163    1.400   .     S
C161   O162    1.223   .     D
O163   H164    1.014   .     S
C165   O166    1.221   .     D
C165   O167    1.399   .     S
O167   H168    1.012   .     S
C169   O171    1.399   .     S
C169   O170    1.221   .     D
O171   H172    1.013   .     S
N173   O174    1.301   .     A
N173   O175    1.300   .     A
N176   O178    1.299   .     A
N176   O177    1.301   .     A
N179   O180    1.301   .     A
N179   O181    1.300   .     A
N182   O184    1.295   .     A
N182   O183    1.300   .     A
O185   C189    1.298   .     A
O185   Zn197   1.987   .     S
O186   C190    1.296   .     A
O186   Zn198   1.987   .     S
O187   Zn198   1.984   .     S
O187   C189    1.296   .     A
O188   Zn197   1.984   .     S
O188   C190    1.297   .     A
C189   C228    1.412   .     S
C190   C227    1.411   .     S
O191   C195    1.311   .     A
O191   Zn197   1.869   .     S
O192   Zn198   1.869   .     S
O192   C196    1.319   .     A
O193   Zn198   1.887   .     S
O193   C195    1.322   .     A
O194   C196    1.306   .     A
O194   Zn197   1.887   .     S
C195   C199    1.492   .     S
C196   C200    1.476   .     S
Zn197  N233    2.050   .     S
Zn198  N234    2.050   .     S
C199   C203    1.418   .     A
C199   C205    1.405   .     A
C200   C204    1.406   .     A
C200   C206    1.401   .     A
C201   C209    1.400   .     A
C201   C203    1.403   .     A
C201   H219    1.069   .     S
C202   C210    1.408   .     A
C202   C204    1.408   .     A
C202   H220    1.074   .     S
C203   N246    1.437   .     S
C204   N243    1.437   .     S
C205   H218    1.074   .     S
C205   C207    1.412   .     A
C206   C208    1.401   .     A
C206   H217    1.075   .     S
C207   C211    1.415   .     A
C207   C209    1.410   .     A
C208   C212    1.423   .     A
C208   C210    1.417   .     A
C209   C1043   1.421   .     S
C210   C1044   1.417   1_554 S
C211   C214    1.400   .     A
C211   C1040   1.405   .     S
C212   C213    1.413   .     A
C212   C1039   1.405   1_554 S
C213   C249    1.497   .     S
C213   C215    1.419   .     A
C214   C216    1.410   .     A
C214   C253    1.494   .     S
C215   C235    1.478   .     S
C215   C1037   1.421   1_554 S
C216   C239    1.471   .     S
C216   C1038   1.417   .     S
C221   C257    1.486   .     S
C221   C228    1.409   .     A
C221   C499    1.378   .     S
C222   C261    1.482   .     S
C222   C227    1.405   .     A
C222   C776    1.376   1_545 S
C223   H225    1.084   .     S
C223   C227    1.391   .     A
C223   C773    1.378   1_545 S
C224   H226    1.083   .     S
C224   C228    1.393   .     A
C224   C498    1.376   .     S
C229   N265    1.424   .     S
C229   N234    1.377   .     A
C229   C47     1.432   1_655 S
C230   N233    1.373   .     A
C230   N268    1.427   .     S
C231   N233    1.372   .     A
C231   N271    1.429   .     S
C232   N234    1.376   .     A
C232   N274    1.423   .     S
C232   C46     1.430   1_655 S
C235   O236    1.223   .     D
O237   H238    1.012   .     S
O237   C51     1.396   1_655 S
C239   O240    1.221   .     D
C239   O241    1.395   .     S
O241   H58     1.013   1_655 S
N243   O244    1.300   .     A
N243   O245    1.301   .     A
N246   O248    1.301   .     A
N246   O247    1.299   .     A
C249   O251    1.400   .     S
C249   O250    1.222   .     D
O251   H252    1.014   .     S
C253   O255    1.400   .     S
C253   O254    1.223   .     D
O255   H256    1.014   .     S
C257   O258    1.221   .     D
C257   O259    1.399   .     S
O259   H260    1.012   .     S
C261   O263    1.399   .     S
C261   O262    1.221   .     D
O263   H264    1.013   .     S
N265   O266    1.301   .     A
N265   O267    1.300   .     A
N268   O270    1.299   .     A
N268   O269    1.301   .     A
N271   O272    1.301   .     A
N271   O273    1.300   .     A
N274   O276    1.295   .     A
N274   O275    1.300   .     A
O277   C281    1.298   .     A
O277   Zn289   1.987   .     S
O278   C282    1.296   .     A
O278   Zn290   1.987   .     S
O279   Zn290   1.984   .     S
O279   C281    1.296   .     A
O280   Zn289   1.984   .     S
O280   C282    1.297   .     A
C281   C320    1.412   .     S
C282   C319    1.411   .     S
O283   C287    1.311   .     A
O283   Zn289   1.869   .     S
O284   Zn290   1.869   .     S
O284   C288    1.319   .     A
O285   Zn290   1.887   .     S
O285   C287    1.322   .     A
O286   C288    1.306   .     A
O286   Zn289   1.887   .     S
C287   C291    1.492   .     S
C288   C292    1.476   .     S
Zn289  N325    2.050   .     S
Zn290  N326    2.050   .     S
C291   C295    1.418   .     A
C291   C297    1.405   .     A
C292   C296    1.406   .     A
C292   C298    1.401   .     A
C293   C301    1.400   .     A
C293   C295    1.403   .     A
C293   H311    1.069   .     S
C294   C302    1.408   .     A
C294   C296    1.408   .     A
C294   H312    1.074   .     S
C295   N338    1.437   .     S
C296   N335    1.437   .     S
C297   H310    1.074   .     S
C297   C299    1.412   .     A
C298   C300    1.401   .     A
C298   H309    1.075   .     S
C299   C303    1.415   .     A
C299   C301    1.410   .     A
C300   C304    1.423   .     A
C300   C302    1.417   .     A
C301   C1135   1.421   .     S
C302   C1136   1.417   1_554 S
C303   C306    1.400   .     A
C303   C1132   1.405   .     S
C304   C305    1.413   .     A
C304   C1131   1.405   1_554 S
C305   C341    1.497   .     S
C305   C307    1.419   .     A
C306   C308    1.410   .     A
C306   C345    1.494   .     S
C307   C327    1.478   .     S
C307   C1129   1.421   1_554 S
C308   C331    1.471   .     S
C308   C1130   1.417   .     S
C313   C349    1.486   .     S
C313   C320    1.409   .     A
C313   C591    1.378   .     S
C314   C353    1.482   .     S
C314   C319    1.405   .     A
C315   H317    1.084   .     S
C315   C319    1.391   .     A
C316   H318    1.083   .     S
C316   C320    1.393   .     A
C316   C590    1.376   .     S
C321   N357    1.424   .     S
C321   N326    1.377   .     A
C321   C415    1.432   .     S
C322   N325    1.373   .     A
C322   N360    1.427   .     S
C322   C508    1.430   1_455 S
C323   N325    1.372   .     A
C323   N363    1.429   .     S
C323   C505    1.432   1_455 S
C324   N326    1.376   .     A
C324   N366    1.423   .     S
C324   C414    1.430   .     S
C327   O328    1.223   .     D
C327   O513    1.396   1_455 S
O329   H330    1.012   .     S
O329   C419    1.396   .     S
C331   O332    1.221   .     D
C331   O333    1.395   .     S
O333   H426    1.013   .     S
H334   O517    1.013   1_455 S
N335   O336    1.300   .     A
N335   O337    1.301   .     A
N338   O340    1.301   .     A
N338   O339    1.299   .     A
C341   O343    1.400   .     S
C341   O342    1.222   .     D
O343   H344    1.014   .     S
C345   O347    1.400   .     S
C345   O346    1.223   .     D
O347   H348    1.014   .     S
C349   O350    1.221   .     D
C349   O351    1.399   .     S
O351   H352    1.012   .     S
C353   O355    1.399   .     S
C353   O354    1.221   .     D
O355   H356    1.013   .     S
N357   O358    1.301   .     A
N357   O359    1.300   .     A
N360   O362    1.299   .     A
N360   O361    1.301   .     A
N363   O364    1.301   .     A
N363   O365    1.300   .     A
N366   O368    1.295   .     A
N366   O367    1.300   .     A
O369   C373    1.298   .     A
O369   Zn381   1.987   .     S
O370   C374    1.296   .     A
O370   Zn382   1.987   .     S
O371   Zn382   1.984   .     S
O371   C373    1.296   .     A
O372   Zn381   1.984   .     S
O372   C374    1.297   .     A
C373   C412    1.412   .     S
C374   C411    1.411   .     S
O375   C379    1.311   .     A
O375   Zn381   1.869   .     S
O376   Zn382   1.869   .     S
O376   C380    1.319   .     A
O377   Zn382   1.887   .     S
O377   C379    1.322   .     A
O378   C380    1.306   .     A
O378   Zn381   1.887   .     S
C379   C383    1.492   .     S
C380   C384    1.476   .     S
Zn381  N417    2.050   .     S
Zn382  N418    2.050   .     S
C383   C387    1.418   .     A
C383   C389    1.405   .     A
C384   C388    1.406   .     A
C384   C390    1.401   .     A
C385   C393    1.400   .     A
C385   C387    1.403   .     A
C385   H403    1.069   .     S
C386   C394    1.408   .     A
C386   C388    1.408   .     A
C386   H404    1.074   .     S
C387   N430    1.437   .     S
C388   N427    1.437   .     S
C389   H402    1.074   .     S
C389   C391    1.412   .     A
C390   C392    1.401   .     A
C390   H401    1.075   .     S
C391   C395    1.415   .     A
C391   C393    1.410   .     A
C392   C396    1.423   .     A
C392   C394    1.417   .     A
C393   C1227   1.421   .     S
C394   C1228   1.417   1_554 S
C395   C398    1.400   .     A
C395   C1224   1.405   .     S
C396   C397    1.413   .     A
C396   C1223   1.405   1_554 S
C397   C433    1.497   .     S
C397   C399    1.419   .     A
C398   C400    1.410   .     A
C398   C437    1.494   .     S
C399   C419    1.478   .     S
C399   C1221   1.421   1_554 S
C400   C423    1.471   .     S
C400   C1222   1.417   .     S
C405   C441    1.486   .     S
C405   C412    1.409   .     A
C405   C683    1.378   .     S
C406   C445    1.482   .     S
C406   C411    1.405   .     A
C407   H409    1.084   .     S
C407   C411    1.391   .     A
C408   H410    1.083   .     S
C408   C412    1.393   .     A
C408   C682    1.376   .     S
C413   N449    1.424   .     S
C413   N418    1.377   .     A
C413   C507    1.432   .     S
C414   N417    1.373   .     A
C414   N452    1.427   .     S
C415   N417    1.372   .     A
C415   N455    1.429   .     S
C416   N418    1.376   .     A
C416   N458    1.423   .     S
C416   C506    1.430   .     S
C419   O420    1.223   .     D
O421   H422    1.012   .     S
O421   C511    1.396   .     S
C423   O424    1.221   .     D
C423   O425    1.395   .     S
O425   H518    1.013   .     S
N427   O428    1.300   .     A
N427   O429    1.301   .     A
N430   O432    1.301   .     A
N430   O431    1.299   .     A
C433   O435    1.400   .     S
C433   O434    1.222   .     D
O435   H436    1.014   .     S
C437   O439    1.400   .     S
C437   O438    1.223   .     D
O439   H440    1.014   .     S
C441   O442    1.221   .     D
C441   O443    1.399   .     S
O443   H444    1.012   .     S
C445   O447    1.399   .     S
C445   O446    1.221   .     D
O447   H448    1.013   .     S
N449   O450    1.301   .     A
N449   O451    1.300   .     A
N452   O454    1.299   .     A
N452   O453    1.301   .     A
N455   O456    1.301   .     A
N455   O457    1.300   .     A
N458   O460    1.295   .     A
N458   O459    1.300   .     A
O461   C465    1.298   .     A
O461   Zn473   1.987   .     S
O462   C466    1.296   .     A
O462   Zn474   1.987   .     S
O463   Zn474   1.984   .     S
O463   C465    1.296   .     A
O464   Zn473   1.984   .     S
O464   C466    1.297   .     A
C465   C504    1.412   .     S
C466   C503    1.411   .     S
O467   C471    1.311   .     A
O467   Zn473   1.869   .     S
O468   Zn474   1.869   .     S
O468   C472    1.319   .     A
O469   Zn474   1.887   .     S
O469   C471    1.322   .     A
O470   C472    1.306   .     A
O470   Zn473   1.887   .     S
C471   C475    1.492   .     S
C472   C476    1.476   .     S
Zn473  N509    2.050   .     S
Zn474  N510    2.050   .     S
C475   C479    1.418   .     A
C475   C481    1.405   .     A
C476   C480    1.406   .     A
C476   C482    1.401   .     A
C477   C485    1.400   .     A
C477   C479    1.403   .     A
C477   H495    1.069   .     S
C478   C486    1.408   .     A
C478   C480    1.408   .     A
C478   H496    1.074   .     S
C479   N522    1.437   .     S
C480   N519    1.437   .     S
C481   H494    1.074   .     S
C481   C483    1.412   .     A
C482   C484    1.401   .     A
C482   H493    1.075   .     S
C483   C487    1.415   .     A
C483   C485    1.410   .     A
C484   C488    1.423   .     A
C484   C486    1.417   .     A
C485   C1319   1.421   .     S
C486   C1320   1.417   1_554 S
C487   C490    1.400   .     A
C487   C1316   1.405   .     S
C488   C489    1.413   .     A
C488   C1315   1.405   1_554 S
C489   C525    1.497   .     S
C489   C491    1.419   .     A
C490   C492    1.410   .     A
C490   C529    1.494   .     S
C491   C511    1.478   .     S
C491   C1313   1.421   1_554 S
C492   C515    1.471   .     S
C492   C1314   1.417   .     S
C497   C533    1.486   .     S
C497   C504    1.409   .     A
C497   C775    1.378   .     S
C498   C537    1.482   .     S
C498   C503    1.405   .     A
C499   H501    1.084   .     S
C499   C503    1.391   .     A
C500   H502    1.083   .     S
C500   C504    1.393   .     A
C500   C774    1.376   .     S
C505   N541    1.424   .     S
C505   N510    1.377   .     A
C505   C323    1.432   1_655 S
C506   N509    1.373   .     A
C506   N544    1.427   .     S
C507   N509    1.372   .     A
C507   N547    1.429   .     S
C508   N510    1.376   .     A
C508   N550    1.423   .     S
C508   C322    1.430   1_655 S
C511   O512    1.223   .     D
O513   H514    1.012   .     S
O513   C327    1.396   1_655 S
C515   O516    1.221   .     D
C515   O517    1.395   .     S
O517   H334    1.013   1_655 S
N519   O520    1.300   .     A
N519   O521    1.301   .     A
N522   O524    1.301   .     A
N522   O523    1.299   .     A
C525   O527    1.400   .     S
C525   O526    1.222   .     D
O527   H528    1.014   .     S
C529   O531    1.400   .     S
C529   O530    1.223   .     D
O531   H532    1.014   .     S
C533   O534    1.221   .     D
C533   O535    1.399   .     S
O535   H536    1.012   .     S
C537   O539    1.399   .     S
C537   O538    1.221   .     D
O539   H540    1.013   .     S
N541   O542    1.301   .     A
N541   O543    1.300   .     A
N544   O546    1.299   .     A
N544   O545    1.301   .     A
N547   O548    1.301   .     A
N547   O549    1.300   .     A
N550   O552    1.295   .     A
N550   O551    1.300   .     A
O553   C557    1.298   .     A
O553   Zn565   1.987   .     S
O554   C558    1.296   .     A
O554   Zn566   1.987   .     S
O555   Zn566   1.984   .     S
O555   C557    1.296   .     A
O556   Zn565   1.984   .     S
O556   C558    1.297   .     A
C557   C596    1.412   .     S
C558   C595    1.411   .     S
O559   C563    1.311   .     A
O559   Zn565   1.869   .     S
O560   Zn566   1.869   .     S
O560   C564    1.319   .     A
O561   Zn566   1.887   .     S
O561   C563    1.322   .     A
O562   C564    1.306   .     A
O562   Zn565   1.887   .     S
C563   C567    1.492   .     S
C564   C568    1.476   .     S
Zn565  N601    2.050   .     S
Zn566  N602    2.050   .     S
C567   C571    1.418   .     A
C567   C573    1.405   .     A
C568   C572    1.406   .     A
C568   C574    1.401   .     A
C569   C577    1.400   .     A
C569   C571    1.403   .     A
C569   H587    1.069   .     S
C570   C578    1.408   .     A
C570   C572    1.408   .     A
C570   H588    1.074   .     S
C571   N614    1.437   .     S
C572   N611    1.437   .     S
C573   H586    1.074   .     S
C573   C575    1.412   .     A
C574   C576    1.401   .     A
C574   H585    1.075   .     S
C575   C579    1.415   .     A
C575   C577    1.410   .     A
C576   C580    1.423   .     A
C576   C578    1.417   .     A
C577   C1411   1.421   .     S
C578   C1412   1.417   1_554 S
C579   C582    1.400   .     A
C579   C1408   1.405   .     S
C580   C581    1.413   .     A
C580   C1407   1.405   1_554 S
C581   C617    1.497   .     S
C581   C583    1.419   .     A
C582   C584    1.410   .     A
C582   C621    1.494   .     S
C583   C603    1.478   .     S
C583   C1405   1.421   1_554 S
C584   C607    1.471   .     S
C584   C1406   1.417   .     S
C589   C625    1.486   .     S
C589   C596    1.409   .     A
C589   C39     1.378   1_565 S
C590   C629    1.482   .     S
C590   C595    1.405   .     A
C591   H593    1.084   .     S
C591   C595    1.391   .     A
C592   H594    1.083   .     S
C592   C596    1.393   .     A
C592   C38     1.376   1_565 S
C597   N633    1.424   .     S
C597   N602    1.377   .     A
C597   C691    1.432   .     S
C598   N601    1.373   .     A
C598   N636    1.427   .     S
C598   C784    1.430   1_455 S
C599   N601    1.372   .     A
C599   N639    1.429   .     S
C599   C781    1.432   1_455 S
C600   N602    1.376   .     A
C600   N642    1.423   .     S
C600   C690    1.430   .     S
C603   O604    1.223   .     D
C603   O789    1.396   1_455 S
O605   H606    1.012   .     S
O605   C695    1.396   .     S
C607   O608    1.221   .     D
C607   O609    1.395   .     S
O609   H702    1.013   .     S
H610   O793    1.013   1_455 S
N611   O612    1.300   .     A
N611   O613    1.301   .     A
N614   O616    1.301   .     A
N614   O615    1.299   .     A
C617   O619    1.400   .     S
C617   O618    1.222   .     D
O619   H620    1.014   .     S
C621   O623    1.400   .     S
C621   O622    1.223   .     D
O623   H624    1.014   .     S
C625   O626    1.221   .     D
C625   O627    1.399   .     S
O627   H628    1.012   .     S
C629   O631    1.399   .     S
C629   O630    1.221   .     D
O631   H632    1.013   .     S
N633   O634    1.301   .     A
N633   O635    1.300   .     A
N636   O638    1.299   .     A
N636   O637    1.301   .     A
N639   O640    1.301   .     A
N639   O641    1.300   .     A
N642   O644    1.295   .     A
N642   O643    1.300   .     A
O645   C649    1.298   .     A
O645   Zn657   1.987   .     S
O646   C650    1.296   .     A
O646   Zn658   1.987   .     S
O647   Zn658   1.984   .     S
O647   C649    1.296   .     A
O648   Zn657   1.984   .     S
O648   C650    1.297   .     A
C649   C688    1.412   .     S
C650   C687    1.411   .     S
O651   C655    1.311   .     A
O651   Zn657   1.869   .     S
O652   Zn658   1.869   .     S
O652   C656    1.319   .     A
O653   Zn658   1.887   .     S
O653   C655    1.322   .     A
O654   C656    1.306   .     A
O654   Zn657   1.887   .     S
C655   C659    1.492   .     S
C656   C660    1.476   .     S
Zn657  N693    2.050   .     S
Zn658  N694    2.050   .     S
C659   C663    1.418   .     A
C659   C665    1.405   .     A
C660   C664    1.406   .     A
C660   C666    1.401   .     A
C661   C669    1.400   .     A
C661   C663    1.403   .     A
C661   H679    1.069   .     S
C662   C670    1.408   .     A
C662   C664    1.408   .     A
C662   H680    1.074   .     S
C663   N706    1.437   .     S
C664   N703    1.437   .     S
C665   H678    1.074   .     S
C665   C667    1.412   .     A
C666   C668    1.401   .     A
C666   H677    1.075   .     S
C667   C671    1.415   .     A
C667   C669    1.410   .     A
C668   C672    1.423   .     A
C668   C670    1.417   .     A
C669   C1503   1.421   .     S
C670   C1504   1.417   1_554 S
C671   C674    1.400   .     A
C671   C1500   1.405   .     S
C672   C673    1.413   .     A
C672   C1499   1.405   1_554 S
C673   C709    1.497   .     S
C673   C675    1.419   .     A
C674   C676    1.410   .     A
C674   C713    1.494   .     S
C675   C695    1.478   .     S
C675   C1497   1.421   1_554 S
C676   C699    1.471   .     S
C676   C1498   1.417   .     S
C681   C717    1.486   .     S
C681   C688    1.409   .     A
C681   C131    1.378   1_565 S
C682   C721    1.482   .     S
C682   C687    1.405   .     A
C683   H685    1.084   .     S
C683   C687    1.391   .     A
C684   H686    1.083   .     S
C684   C688    1.393   .     A
C684   C130    1.376   1_565 S
C689   N725    1.424   .     S
C689   N694    1.377   .     A
C689   C783    1.432   .     S
C690   N693    1.373   .     A
C690   N728    1.427   .     S
C691   N693    1.372   .     A
C691   N731    1.429   .     S
C692   N694    1.376   .     A
C692   N734    1.423   .     S
C692   C782    1.430   .     S
C695   O696    1.223   .     D
O697   H698    1.012   .     S
O697   C787    1.396   .     S
C699   O700    1.221   .     D
C699   O701    1.395   .     S
O701   H794    1.013   .     S
N703   O704    1.300   .     A
N703   O705    1.301   .     A
N706   O708    1.301   .     A
N706   O707    1.299   .     A
C709   O711    1.400   .     S
C709   O710    1.222   .     D
O711   H712    1.014   .     S
C713   O715    1.400   .     S
C713   O714    1.223   .     D
O715   H716    1.014   .     S
C717   O718    1.221   .     D
C717   O719    1.399   .     S
O719   H720    1.012   .     S
C721   O723    1.399   .     S
C721   O722    1.221   .     D
O723   H724    1.013   .     S
N725   O726    1.301   .     A
N725   O727    1.300   .     A
N728   O730    1.299   .     A
N728   O729    1.301   .     A
N731   O732    1.301   .     A
N731   O733    1.300   .     A
N734   O736    1.295   .     A
N734   O735    1.300   .     A
O737   C741    1.298   .     A
O737   Zn749   1.987   .     S
O738   C742    1.296   .     A
O738   Zn750   1.987   .     S
O739   Zn750   1.984   .     S
O739   C741    1.296   .     A
O740   Zn749   1.984   .     S
O740   C742    1.297   .     A
C741   C780    1.412   .     S
C742   C779    1.411   .     S
O743   C747    1.311   .     A
O743   Zn749   1.869   .     S
O744   Zn750   1.869   .     S
O744   C748    1.319   .     A
O745   Zn750   1.887   .     S
O745   C747    1.322   .     A
O746   C748    1.306   .     A
O746   Zn749   1.887   .     S
C747   C751    1.492   .     S
C748   C752    1.476   .     S
Zn749  N785    2.050   .     S
Zn750  N786    2.050   .     S
C751   C755    1.418   .     A
C751   C757    1.405   .     A
C752   C756    1.406   .     A
C752   C758    1.401   .     A
C753   C761    1.400   .     A
C753   C755    1.403   .     A
C753   H771    1.069   .     S
C754   C762    1.408   .     A
C754   C756    1.408   .     A
C754   H772    1.074   .     S
C755   N798    1.437   .     S
C756   N795    1.437   .     S
C757   H770    1.074   .     S
C757   C759    1.412   .     A
C758   C760    1.401   .     A
C758   H769    1.075   .     S
C759   C763    1.415   .     A
C759   C761    1.410   .     A
C760   C764    1.423   .     A
C760   C762    1.417   .     A
C761   C1595   1.421   .     S
C762   C1596   1.417   1_554 S
C763   C766    1.400   .     A
C763   C1592   1.405   .     S
C764   C765    1.413   .     A
C764   C1591   1.405   1_554 S
C765   C801    1.497   .     S
C765   C767    1.419   .     A
C766   C768    1.410   .     A
C766   C805    1.494   .     S
C767   C787    1.478   .     S
C767   C1589   1.421   1_554 S
C768   C791    1.471   .     S
C768   C1590   1.417   .     S
C773   C809    1.486   .     S
C773   C780    1.409   .     A
C773   C223    1.378   1_565 S
C774   C813    1.482   .     S
C774   C779    1.405   .     A
C775   H777    1.084   .     S
C775   C779    1.391   .     A
C776   H778    1.083   .     S
C776   C780    1.393   .     A
C776   C222    1.376   1_565 S
C781   N817    1.424   .     S
C781   N786    1.377   .     A
C781   C599    1.432   1_655 S
C782   N785    1.373   .     A
C782   N820    1.427   .     S
C783   N785    1.372   .     A
C783   N823    1.429   .     S
C784   N786    1.376   .     A
C784   N826    1.423   .     S
C784   C598    1.430   1_655 S
C787   O788    1.223   .     D
O789   H790    1.012   .     S
O789   C603    1.396   1_655 S
C791   O792    1.221   .     D
C791   O793    1.395   .     S
O793   H610    1.013   1_655 S
N795   O796    1.300   .     A
N795   O797    1.301   .     A
N798   O800    1.301   .     A
N798   O799    1.299   .     A
C801   O803    1.400   .     S
C801   O802    1.222   .     D
O803   H804    1.014   .     S
C805   O807    1.400   .     S
C805   O806    1.223   .     D
O807   H808    1.014   .     S
C809   O810    1.221   .     D
C809   O811    1.399   .     S
O811   H812    1.012   .     S
C813   O815    1.399   .     S
C813   O814    1.221   .     D
O815   H816    1.013   .     S
N817   O818    1.301   .     A
N817   O819    1.300   .     A
N820   O822    1.299   .     A
N820   O821    1.301   .     A
N823   O824    1.301   .     A
N823   O825    1.300   .     A
N826   O828    1.295   .     A
N826   O827    1.300   .     A
O829   C833    1.298   .     A
O829   Zn841   1.987   .     S
O830   C834    1.296   .     A
O830   Zn842   1.987   .     S
O831   Zn842   1.984   .     S
O831   C833    1.296   .     A
O832   Zn841   1.984   .     S
O832   C834    1.297   .     A
C833   C872    1.412   .     S
C834   C871    1.411   .     S
O835   C839    1.311   .     A
O835   Zn841   1.869   .     S
O836   Zn842   1.869   .     S
O836   C840    1.319   .     A
O837   Zn842   1.887   .     S
O837   C839    1.322   .     A
O838   C840    1.306   .     A
O838   Zn841   1.887   .     S
C839   C843    1.492   .     S
C840   C844    1.476   .     S
Zn841  N877    2.050   .     S
Zn842  N878    2.050   .     S
C843   C847    1.418   .     A
C843   C849    1.405   .     A
C844   C848    1.406   .     A
C844   C850    1.401   .     A
C845   C853    1.400   .     A
C845   C847    1.403   .     A
C845   H863    1.069   .     S
C846   C854    1.408   .     A
C846   C848    1.408   .     A
C846   H864    1.074   .     S
C847   N890    1.437   .     S
C848   N887    1.437   .     S
C849   H862    1.074   .     S
C849   C851    1.412   .     A
C850   C852    1.401   .     A
C850   H861    1.075   .     S
C851   C855    1.415   .     A
C851   C853    1.410   .     A
C852   C856    1.423   .     A
C852   C854    1.417   .     A
C853   C31     1.421   1_556 S
C855   C858    1.400   .     A
C855   C28     1.405   1_556 S
C856   C857    1.413   .     A
C857   C893    1.497   .     S
C857   C859    1.419   .     A
C858   C860    1.410   .     A
C858   C897    1.494   .     S
C859   C879    1.478   .     S
C860   C883    1.471   .     S
C860   C26     1.417   1_556 S
C865   C901    1.486   .     S
C865   C872    1.409   .     A
C865   C1143   1.378   .     S
C866   C905    1.482   .     S
C866   C871    1.405   .     A
C866   C1420   1.376   1_545 S
C867   H869    1.084   .     S
C867   C871    1.391   .     A
C867   C1417   1.378   1_545 S
C868   H870    1.083   .     S
C868   C872    1.393   .     A
C868   C1142   1.376   .     S
C873   N909    1.424   .     S
C873   N878    1.377   .     A
C873   C967    1.432   .     S
C874   N877    1.373   .     A
C874   N912    1.427   .     S
C874   C1060   1.430   1_455 S
C875   N877    1.372   .     A
C875   N915    1.429   .     S
C875   C1057   1.432   1_455 S
C876   N878    1.376   .     A
C876   N918    1.423   .     S
C876   C966    1.430   .     S
C879   O880    1.223   .     D
C879   O1065   1.396   1_455 S
O881   H882    1.012   .     S
O881   C971    1.396   .     S
C883   O884    1.221   .     D
C883   O885    1.395   .     S
O885   H978    1.013   .     S
H886   O1069   1.013   1_455 S
N887   O888    1.300   .     A
N887   O889    1.301   .     A
N890   O892    1.301   .     A
N890   O891    1.299   .     A
C893   O895    1.400   .     S
C893   O894    1.222   .     D
O895   H896    1.014   .     S
C897   O899    1.400   .     S
C897   O898    1.223   .     D
O899   H900    1.014   .     S
C901   O902    1.221   .     D
C901   O903    1.399   .     S
O903   H904    1.012   .     S
C905   O907    1.399   .     S
C905   O906    1.221   .     D
O907   H908    1.013   .     S
N909   O910    1.301   .     A
N909   O911    1.300   .     A
N912   O914    1.299   .     A
N912   O913    1.301   .     A
N915   O916    1.301   .     A
N915   O917    1.300   .     A
N918   O920    1.295   .     A
N918   O919    1.300   .     A
O921   C925    1.298   .     A
O921   Zn933   1.987   .     S
O922   C926    1.296   .     A
O922   Zn934   1.987   .     S
O923   Zn934   1.984   .     S
O923   C925    1.296   .     A
O924   Zn933   1.984   .     S
O924   C926    1.297   .     A
C925   C964    1.412   .     S
C926   C963    1.411   .     S
O927   C931    1.311   .     A
O927   Zn933   1.869   .     S
O928   Zn934   1.869   .     S
O928   C932    1.319   .     A
O929   Zn934   1.887   .     S
O929   C931    1.322   .     A
O930   C932    1.306   .     A
O930   Zn933   1.887   .     S
C931   C935    1.492   .     S
C932   C936    1.476   .     S
Zn933  N969    2.050   .     S
Zn934  N970    2.050   .     S
C935   C939    1.418   .     A
C935   C941    1.405   .     A
C936   C940    1.406   .     A
C936   C942    1.401   .     A
C937   C945    1.400   .     A
C937   C939    1.403   .     A
C937   H955    1.069   .     S
C938   C946    1.408   .     A
C938   C940    1.408   .     A
C938   H956    1.074   .     S
C939   N982    1.437   .     S
C940   N979    1.437   .     S
C941   H954    1.074   .     S
C941   C943    1.412   .     A
C942   C944    1.401   .     A
C942   H953    1.075   .     S
C943   C947    1.415   .     A
C943   C945    1.410   .     A
C944   C948    1.423   .     A
C944   C946    1.417   .     A
C945   C123    1.421   1_556 S
C947   C950    1.400   .     A
C947   C120    1.405   1_556 S
C948   C949    1.413   .     A
C949   C985    1.497   .     S
C949   C951    1.419   .     A
C950   C952    1.410   .     A
C950   C989    1.494   .     S
C951   C971    1.478   .     S
C952   C975    1.471   .     S
C952   C118    1.417   1_556 S
C957   C993    1.486   .     S
C957   C964    1.409   .     A
C957   C1235   1.378   .     S
C958   C997    1.482   .     S
C958   C963    1.405   .     A
C958   C1512   1.376   1_545 S
C959   H961    1.084   .     S
C959   C963    1.391   .     A
C959   C1509   1.378   1_545 S
C960   H962    1.083   .     S
C960   C964    1.393   .     A
C960   C1234   1.376   .     S
C965   N1001   1.424   .     S
C965   N970    1.377   .     A
C965   C1059   1.432   .     S
C966   N969    1.373   .     A
C966   N1004   1.427   .     S
C967   N969    1.372   .     A
C967   N1007   1.429   .     S
C968   N970    1.376   .     A
C968   N1010   1.423   .     S
C968   C1058   1.430   .     S
C971   O972    1.223   .     D
O973   H974    1.012   .     S
O973   C1063   1.396   .     S
C975   O976    1.221   .     D
C975   O977    1.395   .     S
O977   H1070   1.013   .     S
N979   O980    1.300   .     A
N979   O981    1.301   .     A
N982   O984    1.301   .     A
N982   O983    1.299   .     A
C985   O987    1.400   .     S
C985   O986    1.222   .     D
O987   H988    1.014   .     S
C989   O991    1.400   .     S
C989   O990    1.223   .     D
O991   H992    1.014   .     S
C993   O994    1.221   .     D
C993   O995    1.399   .     S
O995   H996    1.012   .     S
C997   O999    1.399   .     S
C997   O998    1.221   .     D
O999   H1000   1.013   .     S
N1001  O1002   1.301   .     A
N1001  O1003   1.300   .     A
N1004  O1006   1.299   .     A
N1004  O1005   1.301   .     A
N1007  O1008   1.301   .     A
N1007  O1009   1.300   .     A
N1010  O1012   1.295   .     A
N1010  O1011   1.300   .     A
O1013  C1017   1.298   .     A
O1013  Zn1025  1.987   .     S
O1014  C1018   1.296   .     A
O1014  Zn1026  1.987   .     S
O1015  Zn1026  1.984   .     S
O1015  C1017   1.296   .     A
O1016  Zn1025  1.984   .     S
O1016  C1018   1.297   .     A
C1017  C1056   1.412   .     S
C1018  C1055   1.411   .     S
O1019  C1023   1.311   .     A
O1019  Zn1025  1.869   .     S
O1020  Zn1026  1.869   .     S
O1020  C1024   1.319   .     A
O1021  Zn1026  1.887   .     S
O1021  C1023   1.322   .     A
O1022  C1024   1.306   .     A
O1022  Zn1025  1.887   .     S
C1023  C1027   1.492   .     S
C1024  C1028   1.476   .     S
Zn1025 N1061   2.050   .     S
Zn1026 N1062   2.050   .     S
C1027  C1031   1.418   .     A
C1027  C1033   1.405   .     A
C1028  C1032   1.406   .     A
C1028  C1034   1.401   .     A
C1029  C1037   1.400   .     A
C1029  C1031   1.403   .     A
C1029  H1047   1.069   .     S
C1030  C1038   1.408   .     A
C1030  C1032   1.408   .     A
C1030  H1048   1.074   .     S
C1031  N1074   1.437   .     S
C1032  N1071   1.437   .     S
C1033  H1046   1.074   .     S
C1033  C1035   1.412   .     A
C1034  C1036   1.401   .     A
C1034  H1045   1.075   .     S
C1035  C1039   1.415   .     A
C1035  C1037   1.410   .     A
C1036  C1040   1.423   .     A
C1036  C1038   1.417   .     A
C1037  C215    1.421   1_556 S
C1039  C1042   1.400   .     A
C1039  C212    1.405   1_556 S
C1040  C1041   1.413   .     A
C1041  C1077   1.497   .     S
C1041  C1043   1.419   .     A
C1042  C1044   1.410   .     A
C1042  C1081   1.494   .     S
C1043  C1063   1.478   .     S
C1044  C1067   1.471   .     S
C1044  C210    1.417   1_556 S
C1049  C1085   1.486   .     S
C1049  C1056   1.409   .     A
C1049  C1327   1.378   .     S
C1050  C1089   1.482   .     S
C1050  C1055   1.405   .     A
C1050  C1604   1.376   1_545 S
C1051  H1053   1.084   .     S
C1051  C1055   1.391   .     A
C1051  C1601   1.378   1_545 S
C1052  H1054   1.083   .     S
C1052  C1056   1.393   .     A
C1052  C1326   1.376   .     S
C1057  N1093   1.424   .     S
C1057  N1062   1.377   .     A
C1057  C875    1.432   1_655 S
C1058  N1061   1.373   .     A
C1058  N1096   1.427   .     S
C1059  N1061   1.372   .     A
C1059  N1099   1.429   .     S
C1060  N1062   1.376   .     A
C1060  N1102   1.423   .     S
C1060  C874    1.430   1_655 S
C1063  O1064   1.223   .     D
O1065  H1066   1.012   .     S
O1065  C879    1.396   1_655 S
C1067  O1068   1.221   .     D
C1067  O1069   1.395   .     S
O1069  H886    1.013   1_655 S
N1071  O1072   1.300   .     A
N1071  O1073   1.301   .     A
N1074  O1076   1.301   .     A
N1074  O1075   1.299   .     A
C1077  O1079   1.400   .     S
C1077  O1078   1.222   .     D
O1079  H1080   1.014   .     S
C1081  O1083   1.400   .     S
C1081  O1082   1.223   .     D
O1083  H1084   1.014   .     S
C1085  O1086   1.221   .     D
C1085  O1087   1.399   .     S
O1087  H1088   1.012   .     S
C1089  O1091   1.399   .     S
C1089  O1090   1.221   .     D
O1091  H1092   1.013   .     S
N1093  O1094   1.301   .     A
N1093  O1095   1.300   .     A
N1096  O1098   1.299   .     A
N1096  O1097   1.301   .     A
N1099  O1100   1.301   .     A
N1099  O1101   1.300   .     A
N1102  O1104   1.295   .     A
N1102  O1103   1.300   .     A
O1105  C1109   1.298   .     A
O1105  Zn1117  1.987   .     S
O1106  C1110   1.296   .     A
O1106  Zn1118  1.987   .     S
O1107  Zn1118  1.984   .     S
O1107  C1109   1.296   .     A
O1108  Zn1117  1.984   .     S
O1108  C1110   1.297   .     A
C1109  C1148   1.412   .     S
C1110  C1147   1.411   .     S
O1111  C1115   1.311   .     A
O1111  Zn1117  1.869   .     S
O1112  Zn1118  1.869   .     S
O1112  C1116   1.319   .     A
O1113  Zn1118  1.887   .     S
O1113  C1115   1.322   .     A
O1114  C1116   1.306   .     A
O1114  Zn1117  1.887   .     S
C1115  C1119   1.492   .     S
C1116  C1120   1.476   .     S
Zn1117 N1153   2.050   .     S
Zn1118 N1154   2.050   .     S
C1119  C1123   1.418   .     A
C1119  C1125   1.405   .     A
C1120  C1124   1.406   .     A
C1120  C1126   1.401   .     A
C1121  C1129   1.400   .     A
C1121  C1123   1.403   .     A
C1121  H1139   1.069   .     S
C1122  C1130   1.408   .     A
C1122  C1124   1.408   .     A
C1122  H1140   1.074   .     S
C1123  N1166   1.437   .     S
C1124  N1163   1.437   .     S
C1125  H1138   1.074   .     S
C1125  C1127   1.412   .     A
C1126  C1128   1.401   .     A
C1126  H1137   1.075   .     S
C1127  C1131   1.415   .     A
C1127  C1129   1.410   .     A
C1128  C1132   1.423   .     A
C1128  C1130   1.417   .     A
C1129  C307    1.421   1_556 S
C1131  C1134   1.400   .     A
C1131  C304    1.405   1_556 S
C1132  C1133   1.413   .     A
C1133  C1169   1.497   .     S
C1133  C1135   1.419   .     A
C1134  C1136   1.410   .     A
C1134  C1173   1.494   .     S
C1135  C1155   1.478   .     S
C1136  C1159   1.471   .     S
C1136  C302    1.417   1_556 S
C1141  C1177   1.486   .     S
C1141  C1148   1.409   .     A
C1141  C1419   1.378   .     S
C1142  C1181   1.482   .     S
C1142  C1147   1.405   .     A
C1143  H1145   1.084   .     S
C1143  C1147   1.391   .     A
C1144  H1146   1.083   .     S
C1144  C1148   1.393   .     A
C1144  C1418   1.376   .     S
C1149  N1185   1.424   .     S
C1149  N1154   1.377   .     A
C1149  C1243   1.432   .     S
C1150  N1153   1.373   .     A
C1150  N1188   1.427   .     S
C1150  C1336   1.430   1_455 S
C1151  N1153   1.372   .     A
C1151  N1191   1.429   .     S
C1151  C1333   1.432   1_455 S
C1152  N1154   1.376   .     A
C1152  N1194   1.423   .     S
C1152  C1242   1.430   .     S
C1155  O1156   1.223   .     D
C1155  O1341   1.396   1_455 S
O1157  H1158   1.012   .     S
O1157  C1247   1.396   .     S
C1159  O1160   1.221   .     D
C1159  O1161   1.395   .     S
O1161  H1254   1.013   .     S
H1162  O1345   1.013   1_455 S
N1163  O1164   1.300   .     A
N1163  O1165   1.301   .     A
N1166  O1168   1.301   .     A
N1166  O1167   1.299   .     A
C1169  O1171   1.400   .     S
C1169  O1170   1.222   .     D
O1171  H1172   1.014   .     S
C1173  O1175   1.400   .     S
C1173  O1174   1.223   .     D
O1175  H1176   1.014   .     S
C1177  O1178   1.221   .     D
C1177  O1179   1.399   .     S
O1179  H1180   1.012   .     S
C1181  O1183   1.399   .     S
C1181  O1182   1.221   .     D
O1183  H1184   1.013   .     S
N1185  O1186   1.301   .     A
N1185  O1187   1.300   .     A
N1188  O1190   1.299   .     A
N1188  O1189   1.301   .     A
N1191  O1192   1.301   .     A
N1191  O1193   1.300   .     A
N1194  O1196   1.295   .     A
N1194  O1195   1.300   .     A
O1197  C1201   1.298   .     A
O1197  Zn1209  1.987   .     S
O1198  C1202   1.296   .     A
O1198  Zn1210  1.987   .     S
O1199  Zn1210  1.984   .     S
O1199  C1201   1.296   .     A
O1200  Zn1209  1.984   .     S
O1200  C1202   1.297   .     A
C1201  C1240   1.412   .     S
C1202  C1239   1.411   .     S
O1203  C1207   1.311   .     A
O1203  Zn1209  1.869   .     S
O1204  Zn1210  1.869   .     S
O1204  C1208   1.319   .     A
O1205  Zn1210  1.887   .     S
O1205  C1207   1.322   .     A
O1206  C1208   1.306   .     A
O1206  Zn1209  1.887   .     S
C1207  C1211   1.492   .     S
C1208  C1212   1.476   .     S
Zn1209 N1245   2.050   .     S
Zn1210 N1246   2.050   .     S
C1211  C1215   1.418   .     A
C1211  C1217   1.405   .     A
C1212  C1216   1.406   .     A
C1212  C1218   1.401   .     A
C1213  C1221   1.400   .     A
C1213  C1215   1.403   .     A
C1213  H1231   1.069   .     S
C1214  C1222   1.408   .     A
C1214  C1216   1.408   .     A
C1214  H1232   1.074   .     S
C1215  N1258   1.437   .     S
C1216  N1255   1.437   .     S
C1217  H1230   1.074   .     S
C1217  C1219   1.412   .     A
C1218  C1220   1.401   .     A
C1218  H1229   1.075   .     S
C1219  C1223   1.415   .     A
C1219  C1221   1.410   .     A
C1220  C1224   1.423   .     A
C1220  C1222   1.417   .     A
C1221  C399    1.421   1_556 S
C1223  C1226   1.400   .     A
C1223  C396    1.405   1_556 S
C1224  C1225   1.413   .     A
C1225  C1261   1.497   .     S
C1225  C1227   1.419   .     A
C1226  C1228   1.410   .     A
C1226  C1265   1.494   .     S
C1227  C1247   1.478   .     S
C1228  C1251   1.471   .     S
C1228  C394    1.417   1_556 S
C1233  C1269   1.486   .     S
C1233  C1240   1.409   .     A
C1233  C1511   1.378   .     S
C1234  C1273   1.482   .     S
C1234  C1239   1.405   .     A
C1235  H1237   1.084   .     S
C1235  C1239   1.391   .     A
C1236  H1238   1.083   .     S
C1236  C1240   1.393   .     A
C1236  C1510   1.376   .     S
C1241  N1277   1.424   .     S
C1241  N1246   1.377   .     A
C1241  C1335   1.432   .     S
C1242  N1245   1.373   .     A
C1242  N1280   1.427   .     S
C1243  N1245   1.372   .     A
C1243  N1283   1.429   .     S
C1244  N1246   1.376   .     A
C1244  N1286   1.423   .     S
C1244  C1334   1.430   .     S
C1247  O1248   1.223   .     D
O1249  H1250   1.012   .     S
O1249  C1339   1.396   .     S
C1251  O1252   1.221   .     D
C1251  O1253   1.395   .     S
O1253  H1346   1.013   .     S
N1255  O1256   1.300   .     A
N1255  O1257   1.301   .     A
N1258  O1260   1.301   .     A
N1258  O1259   1.299   .     A
C1261  O1263   1.400   .     S
C1261  O1262   1.222   .     D
O1263  H1264   1.014   .     S
C1265  O1267   1.400   .     S
C1265  O1266   1.223   .     D
O1267  H1268   1.014   .     S
C1269  O1270   1.221   .     D
C1269  O1271   1.399   .     S
O1271  H1272   1.012   .     S
C1273  O1275   1.399   .     S
C1273  O1274   1.221   .     D
O1275  H1276   1.013   .     S
N1277  O1278   1.301   .     A
N1277  O1279   1.300   .     A
N1280  O1282   1.299   .     A
N1280  O1281   1.301   .     A
N1283  O1284   1.301   .     A
N1283  O1285   1.300   .     A
N1286  O1288   1.295   .     A
N1286  O1287   1.300   .     A
O1289  C1293   1.298   .     A
O1289  Zn1301  1.987   .     S
O1290  C1294   1.296   .     A
O1290  Zn1302  1.987   .     S
O1291  Zn1302  1.984   .     S
O1291  C1293   1.296   .     A
O1292  Zn1301  1.984   .     S
O1292  C1294   1.297   .     A
C1293  C1332   1.412   .     S
C1294  C1331   1.411   .     S
O1295  C1299   1.311   .     A
O1295  Zn1301  1.869   .     S
O1296  Zn1302  1.869   .     S
O1296  C1300   1.319   .     A
O1297  Zn1302  1.887   .     S
O1297  C1299   1.322   .     A
O1298  C1300   1.306   .     A
O1298  Zn1301  1.887   .     S
C1299  C1303   1.492   .     S
C1300  C1304   1.476   .     S
Zn1301 N1337   2.050   .     S
Zn1302 N1338   2.050   .     S
C1303  C1307   1.418   .     A
C1303  C1309   1.405   .     A
C1304  C1308   1.406   .     A
C1304  C1310   1.401   .     A
C1305  C1313   1.400   .     A
C1305  C1307   1.403   .     A
C1305  H1323   1.069   .     S
C1306  C1314   1.408   .     A
C1306  C1308   1.408   .     A
C1306  H1324   1.074   .     S
C1307  N1350   1.437   .     S
C1308  N1347   1.437   .     S
C1309  H1322   1.074   .     S
C1309  C1311   1.412   .     A
C1310  C1312   1.401   .     A
C1310  H1321   1.075   .     S
C1311  C1315   1.415   .     A
C1311  C1313   1.410   .     A
C1312  C1316   1.423   .     A
C1312  C1314   1.417   .     A
C1313  C491    1.421   1_556 S
C1315  C1318   1.400   .     A
C1315  C488    1.405   1_556 S
C1316  C1317   1.413   .     A
C1317  C1353   1.497   .     S
C1317  C1319   1.419   .     A
C1318  C1320   1.410   .     A
C1318  C1357   1.494   .     S
C1319  C1339   1.478   .     S
C1320  C1343   1.471   .     S
C1320  C486    1.417   1_556 S
C1325  C1361   1.486   .     S
C1325  C1332   1.409   .     A
C1325  C1603   1.378   .     S
C1326  C1365   1.482   .     S
C1326  C1331   1.405   .     A
C1327  H1329   1.084   .     S
C1327  C1331   1.391   .     A
C1328  H1330   1.083   .     S
C1328  C1332   1.393   .     A
C1328  C1602   1.376   .     S
C1333  N1369   1.424   .     S
C1333  N1338   1.377   .     A
C1333  C1151   1.432   1_655 S
C1334  N1337   1.373   .     A
C1334  N1372   1.427   .     S
C1335  N1337   1.372   .     A
C1335  N1375   1.429   .     S
C1336  N1338   1.376   .     A
C1336  N1378   1.423   .     S
C1336  C1150   1.430   1_655 S
C1339  O1340   1.223   .     D
O1341  H1342   1.012   .     S
O1341  C1155   1.396   1_655 S
C1343  O1344   1.221   .     D
C1343  O1345   1.395   .     S
O1345  H1162   1.013   1_655 S
N1347  O1348   1.300   .     A
N1347  O1349   1.301   .     A
N1350  O1352   1.301   .     A
N1350  O1351   1.299   .     A
C1353  O1355   1.400   .     S
C1353  O1354   1.222   .     D
O1355  H1356   1.014   .     S
C1357  O1359   1.400   .     S
C1357  O1358   1.223   .     D
O1359  H1360   1.014   .     S
C1361  O1362   1.221   .     D
C1361  O1363   1.399   .     S
O1363  H1364   1.012   .     S
C1365  O1367   1.399   .     S
C1365  O1366   1.221   .     D
O1367  H1368   1.013   .     S
N1369  O1370   1.301   .     A
N1369  O1371   1.300   .     A
N1372  O1374   1.299   .     A
N1372  O1373   1.301   .     A
N1375  O1376   1.301   .     A
N1375  O1377   1.300   .     A
N1378  O1380   1.295   .     A
N1378  O1379   1.300   .     A
O1381  C1385   1.298   .     A
O1381  Zn1393  1.987   .     S
O1382  C1386   1.296   .     A
O1382  Zn1394  1.987   .     S
O1383  Zn1394  1.984   .     S
O1383  C1385   1.296   .     A
O1384  Zn1393  1.984   .     S
O1384  C1386   1.297   .     A
C1385  C1424   1.412   .     S
C1386  C1423   1.411   .     S
O1387  C1391   1.311   .     A
O1387  Zn1393  1.869   .     S
O1388  Zn1394  1.869   .     S
O1388  C1392   1.319   .     A
O1389  Zn1394  1.887   .     S
O1389  C1391   1.322   .     A
O1390  C1392   1.306   .     A
O1390  Zn1393  1.887   .     S
C1391  C1395   1.492   .     S
C1392  C1396   1.476   .     S
Zn1393 N1429   2.050   .     S
Zn1394 N1430   2.050   .     S
C1395  C1399   1.418   .     A
C1395  C1401   1.405   .     A
C1396  C1400   1.406   .     A
C1396  C1402   1.401   .     A
C1397  C1405   1.400   .     A
C1397  C1399   1.403   .     A
C1397  H1415   1.069   .     S
C1398  C1406   1.408   .     A
C1398  C1400   1.408   .     A
C1398  H1416   1.074   .     S
C1399  N1442   1.437   .     S
C1400  N1439   1.437   .     S
C1401  H1414   1.074   .     S
C1401  C1403   1.412   .     A
C1402  C1404   1.401   .     A
C1402  H1413   1.075   .     S
C1403  C1407   1.415   .     A
C1403  C1405   1.410   .     A
C1404  C1408   1.423   .     A
C1404  C1406   1.417   .     A
C1405  C583    1.421   1_556 S
C1407  C1410   1.400   .     A
C1407  C580    1.405   1_556 S
C1408  C1409   1.413   .     A
C1409  C1445   1.497   .     S
C1409  C1411   1.419   .     A
C1410  C1412   1.410   .     A
C1410  C1449   1.494   .     S
C1411  C1431   1.478   .     S
C1412  C1435   1.471   .     S
C1412  C578    1.417   1_556 S
C1417  C1453   1.486   .     S
C1417  C1424   1.409   .     A
C1417  C867    1.378   1_565 S
C1418  C1457   1.482   .     S
C1418  C1423   1.405   .     A
C1419  H1421   1.084   .     S
C1419  C1423   1.391   .     A
C1420  H1422   1.083   .     S
C1420  C1424   1.393   .     A
C1420  C866    1.376   1_565 S
C1425  N1461   1.424   .     S
C1425  N1430   1.377   .     A
C1425  C1519   1.432   .     S
C1426  N1429   1.373   .     A
C1426  N1464   1.427   .     S
C1426  C1612   1.430   1_455 S
C1427  N1429   1.372   .     A
C1427  N1467   1.429   .     S
C1427  C1609   1.432   1_455 S
C1428  N1430   1.376   .     A
C1428  N1470   1.423   .     S
C1428  C1518   1.430   .     S
C1431  O1432   1.223   .     D
C1431  O1617   1.396   1_455 S
O1433  H1434   1.012   .     S
O1433  C1523   1.396   .     S
C1435  O1436   1.221   .     D
C1435  O1437   1.395   .     S
O1437  H1530   1.013   .     S
H1438  O1621   1.013   1_455 S
N1439  O1440   1.300   .     A
N1439  O1441   1.301   .     A
N1442  O1444   1.301   .     A
N1442  O1443   1.299   .     A
C1445  O1447   1.400   .     S
C1445  O1446   1.222   .     D
O1447  H1448   1.014   .     S
C1449  O1451   1.400   .     S
C1449  O1450   1.223   .     D
O1451  H1452   1.014   .     S
C1453  O1454   1.221   .     D
C1453  O1455   1.399   .     S
O1455  H1456   1.012   .     S
C1457  O1459   1.399   .     S
C1457  O1458   1.221   .     D
O1459  H1460   1.013   .     S
N1461  O1462   1.301   .     A
N1461  O1463   1.300   .     A
N1464  O1466   1.299   .     A
N1464  O1465   1.301   .     A
N1467  O1468   1.301   .     A
N1467  O1469   1.300   .     A
N1470  O1472   1.295   .     A
N1470  O1471   1.300   .     A
O1473  C1477   1.298   .     A
O1473  Zn1485  1.987   .     S
O1474  C1478   1.296   .     A
O1474  Zn1486  1.987   .     S
O1475  Zn1486  1.984   .     S
O1475  C1477   1.296   .     A
O1476  Zn1485  1.984   .     S
O1476  C1478   1.297   .     A
C1477  C1516   1.412   .     S
C1478  C1515   1.411   .     S
O1479  C1483   1.311   .     A
O1479  Zn1485  1.869   .     S
O1480  Zn1486  1.869   .     S
O1480  C1484   1.319   .     A
O1481  Zn1486  1.887   .     S
O1481  C1483   1.322   .     A
O1482  C1484   1.306   .     A
O1482  Zn1485  1.887   .     S
C1483  C1487   1.492   .     S
C1484  C1488   1.476   .     S
Zn1485 N1521   2.050   .     S
Zn1486 N1522   2.050   .     S
C1487  C1491   1.418   .     A
C1487  C1493   1.405   .     A
C1488  C1492   1.406   .     A
C1488  C1494   1.401   .     A
C1489  C1497   1.400   .     A
C1489  C1491   1.403   .     A
C1489  H1507   1.069   .     S
C1490  C1498   1.408   .     A
C1490  C1492   1.408   .     A
C1490  H1508   1.074   .     S
C1491  N1534   1.437   .     S
C1492  N1531   1.437   .     S
C1493  H1506   1.074   .     S
C1493  C1495   1.412   .     A
C1494  C1496   1.401   .     A
C1494  H1505   1.075   .     S
C1495  C1499   1.415   .     A
C1495  C1497   1.410   .     A
C1496  C1500   1.423   .     A
C1496  C1498   1.417   .     A
C1497  C675    1.421   1_556 S
C1499  C1502   1.400   .     A
C1499  C672    1.405   1_556 S
C1500  C1501   1.413   .     A
C1501  C1537   1.497   .     S
C1501  C1503   1.419   .     A
C1502  C1504   1.410   .     A
C1502  C1541   1.494   .     S
C1503  C1523   1.478   .     S
C1504  C1527   1.471   .     S
C1504  C670    1.417   1_556 S
C1509  C1545   1.486   .     S
C1509  C1516   1.409   .     A
C1509  C959    1.378   1_565 S
C1510  C1549   1.482   .     S
C1510  C1515   1.405   .     A
C1511  H1513   1.084   .     S
C1511  C1515   1.391   .     A
C1512  H1514   1.083   .     S
C1512  C1516   1.393   .     A
C1512  C958    1.376   1_565 S
C1517  N1553   1.424   .     S
C1517  N1522   1.377   .     A
C1517  C1611   1.432   .     S
C1518  N1521   1.373   .     A
C1518  N1556   1.427   .     S
C1519  N1521   1.372   .     A
C1519  N1559   1.429   .     S
C1520  N1522   1.376   .     A
C1520  N1562   1.423   .     S
C1520  C1610   1.430   .     S
C1523  O1524   1.223   .     D
O1525  H1526   1.012   .     S
O1525  C1615   1.396   .     S
C1527  O1528   1.221   .     D
C1527  O1529   1.395   .     S
O1529  H1622   1.013   .     S
N1531  O1532   1.300   .     A
N1531  O1533   1.301   .     A
N1534  O1536   1.301   .     A
N1534  O1535   1.299   .     A
C1537  O1539   1.400   .     S
C1537  O1538   1.222   .     D
O1539  H1540   1.014   .     S
C1541  O1543   1.400   .     S
C1541  O1542   1.223   .     D
O1543  H1544   1.014   .     S
C1545  O1546   1.221   .     D
C1545  O1547   1.399   .     S
O1547  H1548   1.012   .     S
C1549  O1551   1.399   .     S
C1549  O1550   1.221   .     D
O1551  H1552   1.013   .     S
N1553  O1554   1.301   .     A
N1553  O1555   1.300   .     A
N1556  O1558   1.299   .     A
N1556  O1557   1.301   .     A
N1559  O1560   1.301   .     A
N1559  O1561   1.300   .     A
N1562  O1564   1.295   .     A
N1562  O1563   1.300   .     A
O1565  C1569   1.298   .     A
O1565  Zn1577  1.987   .     S
O1566  C1570   1.296   .     A
O1566  Zn1578  1.987   .     S
O1567  Zn1578  1.984   .     S
O1567  C1569   1.296   .     A
O1568  Zn1577  1.984   .     S
O1568  C1570   1.297   .     A
C1569  C1608   1.412   .     S
C1570  C1607   1.411   .     S
O1571  C1575   1.311   .     A
O1571  Zn1577  1.869   .     S
O1572  Zn1578  1.869   .     S
O1572  C1576   1.319   .     A
O1573  Zn1578  1.887   .     S
O1573  C1575   1.322   .     A
O1574  C1576   1.306   .     A
O1574  Zn1577  1.887   .     S
C1575  C1579   1.492   .     S
C1576  C1580   1.476   .     S
Zn1577 N1613   2.050   .     S
Zn1578 N1614   2.050   .     S
C1579  C1583   1.418   .     A
C1579  C1585   1.405   .     A
C1580  C1584   1.406   .     A
C1580  C1586   1.401   .     A
C1581  C1589   1.400   .     A
C1581  C1583   1.403   .     A
C1581  H1599   1.069   .     S
C1582  C1590   1.408   .     A
C1582  C1584   1.408   .     A
C1582  H1600   1.074   .     S
C1583  N1626   1.437   .     S
C1584  N1623   1.437   .     S
C1585  H1598   1.074   .     S
C1585  C1587   1.412   .     A
C1586  C1588   1.401   .     A
C1586  H1597   1.075   .     S
C1587  C1591   1.415   .     A
C1587  C1589   1.410   .     A
C1588  C1592   1.423   .     A
C1588  C1590   1.417   .     A
C1589  C767    1.421   1_556 S
C1591  C1594   1.400   .     A
C1591  C764    1.405   1_556 S
C1592  C1593   1.413   .     A
C1593  C1629   1.497   .     S
C1593  C1595   1.419   .     A
C1594  C1596   1.410   .     A
C1594  C1633   1.494   .     S
C1595  C1615   1.478   .     S
C1596  C1619   1.471   .     S
C1596  C762    1.417   1_556 S
C1601  C1637   1.486   .     S
C1601  C1608   1.409   .     A
C1601  C1051   1.378   1_565 S
C1602  C1641   1.482   .     S
C1602  C1607   1.405   .     A
C1603  H1605   1.084   .     S
C1603  C1607   1.391   .     A
C1604  H1606   1.083   .     S
C1604  C1608   1.393   .     A
C1604  C1050   1.376   1_565 S
C1609  N1645   1.424   .     S
C1609  N1614   1.377   .     A
C1609  C1427   1.432   1_655 S
C1610  N1613   1.373   .     A
C1610  N1648   1.427   .     S
C1611  N1613   1.372   .     A
C1611  N1651   1.429   .     S
C1612  N1614   1.376   .     A
C1612  N1654   1.423   .     S
C1612  C1426   1.430   1_655 S
C1615  O1616   1.223   .     D
O1617  H1618   1.012   .     S
O1617  C1431   1.396   1_655 S
C1619  O1620   1.221   .     D
C1619  O1621   1.395   .     S
O1621  H1438   1.013   1_655 S
N1623  O1624   1.300   .     A
N1623  O1625   1.301   .     A
N1626  O1628   1.301   .     A
N1626  O1627   1.299   .     A
C1629  O1631   1.400   .     S
C1629  O1630   1.222   .     D
O1631  H1632   1.014   .     S
C1633  O1635   1.400   .     S
C1633  O1634   1.223   .     D
O1635  H1636   1.014   .     S
C1637  O1638   1.221   .     D
C1637  O1639   1.399   .     S
O1639  H1640   1.012   .     S
C1641  O1643   1.399   .     S
C1641  O1642   1.221   .     D
O1643  H1644   1.013   .     S
N1645  O1646   1.301   .     A
N1645  O1647   1.300   .     A
N1648  O1650   1.299   .     A
N1648  O1649   1.301   .     A
N1651  O1652   1.301   .     A
N1651  O1653   1.300   .     A
N1654  O1656   1.295   .     A
N1654  O1655   1.300   .     A
