data_str_m3_o10_o17_pcu_sym.101
_audit_creation_date              2020-01-03
_audit_creation_method            'Materials Studio'
_symmetry_space_group_name_H-M    'P1'
_symmetry_Int_Tables_number       1
_symmetry_cell_setting            triclinic
loop_
_symmetry_equiv_pos_as_xyz
  x,y,z
_cell_length_a                    23.7914
_cell_length_b                    25.6610
_cell_length_c                    29.6964
_cell_angle_alpha                 93.6510
_cell_angle_beta                  85.5747
_cell_angle_gamma                 92.6258
loop_
_atom_site_label
_atom_site_type_symbol
_atom_site_fract_x
_atom_site_fract_y
_atom_site_fract_z
_atom_site_U_iso_or_equiv
_atom_site_adp_type
_atom_site_occupancy
O1     O     0.12975   0.24619   0.25299   0.00000  Uiso   1.00
O2     O     0.20358   0.08714   0.24701   0.00000  Uiso   1.00
O3     O     0.22613   0.23721   0.24519   0.00000  Uiso   1.00
O4     O     0.10720   0.09613   0.25481   0.00000  Uiso   1.00
C5     C     0.18142   0.26460   0.24929   0.00000  Uiso   1.00
C6     C     0.15191   0.06873   0.25071   0.00000  Uiso   1.00
O7     O     0.11847   0.17117   0.31997   0.00000  Uiso   1.00
O8     O     0.21486   0.16216   0.18003   0.00000  Uiso   1.00
O9     O     0.21485   0.16219   0.31218   0.00000  Uiso   1.00
O10    O     0.11848   0.17115   0.18783   0.00000  Uiso   1.00
C11    C     0.16714   0.16679   0.33618   0.00000  Uiso   1.00
C12    C     0.16619   0.16655   0.16382   0.00000  Uiso   1.00
Zn13   Zn    0.10231   0.17266   0.25521   0.00000  Uiso   1.00
Zn14   Zn    0.23102   0.16067   0.24479   0.00000  Uiso   1.00
C15    C     0.13930   0.12539   0.09293   0.00000  Uiso   1.00
C16    C     0.19403   0.20794   0.40707   0.00000  Uiso   1.00
C17    C     0.16511   0.16728   0.11626   0.00000  Uiso   1.00
C18    C     0.16822   0.16605   0.38374   0.00000  Uiso   1.00
C19    C     0.19034   0.20973   0.09460   0.00000  Uiso   1.00
C20    C     0.14299   0.12361   0.40540   0.00000  Uiso   1.00
C21    C     0.18944   0.21134   0.04793   0.00000  Uiso   1.00
C22    C     0.14390   0.12199   0.45207   0.00000  Uiso   1.00
C23    C     0.16578   0.16734   0.02351   0.00000  Uiso   1.00
C24    C     0.16755   0.16599   0.47649   0.00000  Uiso   1.00
C25    C     0.14048   0.12451   0.04626   0.00000  Uiso   1.00
C26    C     0.19285   0.20882   0.45374   0.00000  Uiso   1.00
C27    C     0.21296   0.25474   0.02492   0.00000  Uiso   1.00
C28    C     0.12037   0.07860   0.47508   0.00000  Uiso   1.00
C29    C     0.21537   0.25243   0.47778   0.00000  Uiso   1.00
C30    C     0.11796   0.08091   0.02222   0.00000  Uiso   1.00
H31    H     0.12010   0.09291   0.11111   0.00000  Uiso   1.00
H32    H     0.21324   0.24042   0.38889   0.00000  Uiso   1.00
H33    H     0.21076   0.24079   0.11458   0.00000  Uiso   1.00
H34    H     0.12257   0.09254   0.38542   0.00000  Uiso   1.00
H35    H     0.23337   0.28552   0.45987   0.00000  Uiso   1.00
H36    H     0.09996   0.04781   0.04013   0.00000  Uiso   1.00
C37    C     0.18917   0.31907   0.25034   0.00000  Uiso   1.00
C38    C     0.14417   0.01427   0.24966   0.00000  Uiso   1.00
H39    H     0.23182   0.00220   0.25239   0.00000  Uiso   1.00
H40    H     0.10152   0.33113   0.24760   0.00000  Uiso   1.00
N41    N     0.31678   0.15265   0.23783   0.00000  Uiso   1.00
N42    N     0.01656   0.18068   0.26217   0.00000  Uiso   1.00
N43    N     0.23278   0.30183   0.04862   0.00000  Uiso   1.00
O44    O     0.20081   0.32415   0.08111   0.00000  Uiso   1.00
O45    O     0.27733   0.32762   0.03229   0.00000  Uiso   1.00
N46    N     0.10054   0.03150   0.45138   0.00000  Uiso   1.00
O47    O     0.13252   0.00919   0.41889   0.00000  Uiso   1.00
O48    O     0.05599   0.00572   0.46771   0.00000  Uiso   1.00
C49    C     0.00742   0.12558   0.19688   0.00000  Uiso   1.00
C50    C     0.30718   0.07538   0.18462   0.00000  Uiso   1.00
H51    H     0.30328   0.05006   0.21369   0.00000  Uiso   1.00
H52    H     0.26508   0.08305   0.17395   0.00000  Uiso   1.00
H53    H     0.33005   0.05376   0.15572   0.00000  Uiso   1.00
H54    H     0.00964   0.15181   0.16839   0.00000  Uiso   1.00
H55    H     0.04889   0.11174   0.20146   0.00000  Uiso   1.00
C56    C     0.32591   0.20776   0.30312   0.00000  Uiso   1.00
C57    C     0.02615   0.25796   0.31537   0.00000  Uiso   1.00
H58    H     0.06824   0.25029   0.32607   0.00000  Uiso   1.00
H59    H     0.03008   0.28326   0.28630   0.00000  Uiso   1.00
H60    H     0.00328   0.27959   0.34425   0.00000  Uiso   1.00
H61    H     0.28444   0.22160   0.29853   0.00000  Uiso   1.00
H62    H     0.32370   0.18153   0.33161   0.00000  Uiso   1.00
O63    O     0.46308   0.24619   0.25299   0.00000  Uiso   1.00
O64    O     0.53692   0.08714   0.24701   0.00000  Uiso   1.00
O65    O     0.55946   0.23721   0.24519   0.00000  Uiso   1.00
O66    O     0.44054   0.09613   0.25481   0.00000  Uiso   1.00
C67    C     0.51475   0.26460   0.24929   0.00000  Uiso   1.00
C68    C     0.48525   0.06873   0.25071   0.00000  Uiso   1.00
O69    O     0.45181   0.17117   0.31997   0.00000  Uiso   1.00
O70    O     0.54819   0.16216   0.18003   0.00000  Uiso   1.00
O71    O     0.54819   0.16219   0.31218   0.00000  Uiso   1.00
O72    O     0.45181   0.17115   0.18783   0.00000  Uiso   1.00
C73    C     0.50047   0.16679   0.33618   0.00000  Uiso   1.00
C74    C     0.49953   0.16655   0.16382   0.00000  Uiso   1.00
Zn75   Zn    0.43565   0.17266   0.25521   0.00000  Uiso   1.00
Zn76   Zn    0.56435   0.16067   0.24479   0.00000  Uiso   1.00
C77    C     0.47264   0.12539   0.09293   0.00000  Uiso   1.00
C78    C     0.52736   0.20794   0.40707   0.00000  Uiso   1.00
C79    C     0.49845   0.16728   0.11626   0.00000  Uiso   1.00
C80    C     0.50155   0.16605   0.38374   0.00000  Uiso   1.00
C81    C     0.52368   0.20973   0.09460   0.00000  Uiso   1.00
C82    C     0.47632   0.12361   0.40540   0.00000  Uiso   1.00
C83    C     0.52277   0.21134   0.04793   0.00000  Uiso   1.00
C84    C     0.47723   0.12199   0.45207   0.00000  Uiso   1.00
C85    C     0.49912   0.16734   0.02351   0.00000  Uiso   1.00
C86    C     0.50088   0.16599   0.47649   0.00000  Uiso   1.00
C87    C     0.47381   0.12451   0.04626   0.00000  Uiso   1.00
C88    C     0.52619   0.20882   0.45374   0.00000  Uiso   1.00
C89    C     0.54629   0.25474   0.02492   0.00000  Uiso   1.00
C90    C     0.45370   0.07860   0.47508   0.00000  Uiso   1.00
C91    C     0.54871   0.25243   0.47778   0.00000  Uiso   1.00
C92    C     0.45129   0.08091   0.02222   0.00000  Uiso   1.00
H93    H     0.45343   0.09291   0.11111   0.00000  Uiso   1.00
H94    H     0.54657   0.24042   0.38889   0.00000  Uiso   1.00
H95    H     0.54410   0.24079   0.11458   0.00000  Uiso   1.00
H96    H     0.45590   0.09254   0.38542   0.00000  Uiso   1.00
H97    H     0.56671   0.28552   0.45987   0.00000  Uiso   1.00
H98    H     0.43329   0.04781   0.04013   0.00000  Uiso   1.00
C99    C     0.52250   0.31907   0.25034   0.00000  Uiso   1.00
C100   C     0.47750   0.01427   0.24966   0.00000  Uiso   1.00
H101   H     0.56515   0.00220   0.25239   0.00000  Uiso   1.00
H102   H     0.43485   0.33113   0.24760   0.00000  Uiso   1.00
N103   N     0.65011   0.15265   0.23783   0.00000  Uiso   1.00
N104   N     0.34989   0.18068   0.26217   0.00000  Uiso   1.00
N105   N     0.56612   0.30183   0.04862   0.00000  Uiso   1.00
O106   O     0.53414   0.32415   0.08111   0.00000  Uiso   1.00
O107   O     0.61067   0.32762   0.03229   0.00000  Uiso   1.00
N108   N     0.43388   0.03150   0.45138   0.00000  Uiso   1.00
O109   O     0.46585   0.00919   0.41889   0.00000  Uiso   1.00
O110   O     0.38932   0.00572   0.46771   0.00000  Uiso   1.00
C111   C     0.34075   0.12558   0.19688   0.00000  Uiso   1.00
C112   C     0.64052   0.07538   0.18462   0.00000  Uiso   1.00
H113   H     0.63661   0.05006   0.21369   0.00000  Uiso   1.00
H114   H     0.59842   0.08305   0.17395   0.00000  Uiso   1.00
H115   H     0.66338   0.05376   0.15572   0.00000  Uiso   1.00
H116   H     0.34297   0.15181   0.16839   0.00000  Uiso   1.00
H117   H     0.38222   0.11174   0.20146   0.00000  Uiso   1.00
C118   C     0.65925   0.20776   0.30312   0.00000  Uiso   1.00
C119   C     0.35948   0.25796   0.31537   0.00000  Uiso   1.00
H120   H     0.40157   0.25029   0.32607   0.00000  Uiso   1.00
H121   H     0.36341   0.28326   0.28630   0.00000  Uiso   1.00
H122   H     0.33661   0.27959   0.34425   0.00000  Uiso   1.00
H123   H     0.61778   0.22160   0.29853   0.00000  Uiso   1.00
H124   H     0.65703   0.18153   0.33161   0.00000  Uiso   1.00
O125   O     0.79642   0.24619   0.25299   0.00000  Uiso   1.00
O126   O     0.87025   0.08714   0.24701   0.00000  Uiso   1.00
O127   O     0.89280   0.23721   0.24519   0.00000  Uiso   1.00
O128   O     0.77387   0.09613   0.25481   0.00000  Uiso   1.00
C129   C     0.84809   0.26460   0.24929   0.00000  Uiso   1.00
C130   C     0.81858   0.06873   0.25071   0.00000  Uiso   1.00
O131   O     0.78514   0.17117   0.31997   0.00000  Uiso   1.00
O132   O     0.88153   0.16216   0.18003   0.00000  Uiso   1.00
O133   O     0.88152   0.16219   0.31218   0.00000  Uiso   1.00
O134   O     0.78515   0.17115   0.18783   0.00000  Uiso   1.00
C135   C     0.83381   0.16679   0.33618   0.00000  Uiso   1.00
C136   C     0.83286   0.16655   0.16382   0.00000  Uiso   1.00
Zn137  Zn    0.76898   0.17266   0.25521   0.00000  Uiso   1.00
Zn138  Zn    0.89769   0.16067   0.24479   0.00000  Uiso   1.00
C139   C     0.80597   0.12539   0.09293   0.00000  Uiso   1.00
C140   C     0.86070   0.20794   0.40707   0.00000  Uiso   1.00
C141   C     0.83178   0.16728   0.11626   0.00000  Uiso   1.00
C142   C     0.83489   0.16605   0.38374   0.00000  Uiso   1.00
C143   C     0.85701   0.20973   0.09460   0.00000  Uiso   1.00
C144   C     0.80966   0.12361   0.40540   0.00000  Uiso   1.00
C145   C     0.85610   0.21134   0.04793   0.00000  Uiso   1.00
C146   C     0.81056   0.12199   0.45207   0.00000  Uiso   1.00
C147   C     0.83245   0.16734   0.02351   0.00000  Uiso   1.00
C148   C     0.83421   0.16599   0.47649   0.00000  Uiso   1.00
C149   C     0.80715   0.12451   0.04626   0.00000  Uiso   1.00
C150   C     0.85952   0.20882   0.45374   0.00000  Uiso   1.00
C151   C     0.87963   0.25474   0.02492   0.00000  Uiso   1.00
C152   C     0.78704   0.07860   0.47508   0.00000  Uiso   1.00
C153   C     0.88204   0.25243   0.47778   0.00000  Uiso   1.00
C154   C     0.78462   0.08091   0.02222   0.00000  Uiso   1.00
H155   H     0.78676   0.09291   0.11111   0.00000  Uiso   1.00
H156   H     0.87990   0.24042   0.38889   0.00000  Uiso   1.00
H157   H     0.87743   0.24079   0.11458   0.00000  Uiso   1.00
H158   H     0.78923   0.09254   0.38542   0.00000  Uiso   1.00
H159   H     0.90004   0.28552   0.45987   0.00000  Uiso   1.00
H160   H     0.76662   0.04781   0.04013   0.00000  Uiso   1.00
C161   C     0.85583   0.31907   0.25034   0.00000  Uiso   1.00
C162   C     0.81083   0.01427   0.24966   0.00000  Uiso   1.00
H163   H     0.89848   0.00220   0.25239   0.00000  Uiso   1.00
H164   H     0.76819   0.33113   0.24760   0.00000  Uiso   1.00
N165   N     0.98344   0.15265   0.23783   0.00000  Uiso   1.00
N166   N     0.68322   0.18068   0.26217   0.00000  Uiso   1.00
N167   N     0.89945   0.30183   0.04862   0.00000  Uiso   1.00
O168   O     0.86748   0.32415   0.08111   0.00000  Uiso   1.00
O169   O     0.94400   0.32762   0.03229   0.00000  Uiso   1.00
N170   N     0.76721   0.03150   0.45138   0.00000  Uiso   1.00
O171   O     0.79918   0.00919   0.41889   0.00000  Uiso   1.00
O172   O     0.72266   0.00572   0.46771   0.00000  Uiso   1.00
C173   C     0.67409   0.12558   0.19688   0.00000  Uiso   1.00
C174   C     0.97385   0.07538   0.18462   0.00000  Uiso   1.00
H175   H     0.96995   0.05006   0.21369   0.00000  Uiso   1.00
H176   H     0.93175   0.08305   0.17395   0.00000  Uiso   1.00
H177   H     0.99671   0.05376   0.15572   0.00000  Uiso   1.00
H178   H     0.67631   0.15181   0.16839   0.00000  Uiso   1.00
H179   H     0.71556   0.11174   0.20146   0.00000  Uiso   1.00
C180   C     0.99258   0.20776   0.30312   0.00000  Uiso   1.00
C181   C     0.69282   0.25796   0.31537   0.00000  Uiso   1.00
H182   H     0.73491   0.25029   0.32607   0.00000  Uiso   1.00
H183   H     0.69675   0.28326   0.28630   0.00000  Uiso   1.00
H184   H     0.66994   0.27959   0.34425   0.00000  Uiso   1.00
H185   H     0.95111   0.22160   0.29853   0.00000  Uiso   1.00
H186   H     0.99036   0.18153   0.33161   0.00000  Uiso   1.00
O187   O     0.12975   0.57952   0.25299   0.00000  Uiso   1.00
O188   O     0.20358   0.42048   0.24701   0.00000  Uiso   1.00
O189   O     0.22613   0.57054   0.24519   0.00000  Uiso   1.00
O190   O     0.10720   0.42946   0.25481   0.00000  Uiso   1.00
C191   C     0.18142   0.59793   0.24929   0.00000  Uiso   1.00
C192   C     0.15191   0.40207   0.25071   0.00000  Uiso   1.00
O193   O     0.11847   0.50450   0.31997   0.00000  Uiso   1.00
O194   O     0.21486   0.49550   0.18003   0.00000  Uiso   1.00
O195   O     0.21485   0.49552   0.31218   0.00000  Uiso   1.00
O196   O     0.11848   0.50448   0.18783   0.00000  Uiso   1.00
C197   C     0.16714   0.50012   0.33618   0.00000  Uiso   1.00
C198   C     0.16619   0.49988   0.16382   0.00000  Uiso   1.00
Zn199  Zn    0.10231   0.50600   0.25521   0.00000  Uiso   1.00
Zn200  Zn    0.23102   0.49400   0.24479   0.00000  Uiso   1.00
C201   C     0.13930   0.45872   0.09293   0.00000  Uiso   1.00
C202   C     0.19403   0.54128   0.40707   0.00000  Uiso   1.00
C203   C     0.16511   0.50062   0.11626   0.00000  Uiso   1.00
C204   C     0.16822   0.49938   0.38374   0.00000  Uiso   1.00
C205   C     0.19034   0.54306   0.09460   0.00000  Uiso   1.00
C206   C     0.14299   0.45694   0.40540   0.00000  Uiso   1.00
C207   C     0.18944   0.54468   0.04793   0.00000  Uiso   1.00
C208   C     0.14390   0.45533   0.45207   0.00000  Uiso   1.00
C209   C     0.16578   0.50067   0.02351   0.00000  Uiso   1.00
C210   C     0.16755   0.49933   0.47649   0.00000  Uiso   1.00
C211   C     0.14048   0.45785   0.04626   0.00000  Uiso   1.00
C212   C     0.19285   0.54215   0.45374   0.00000  Uiso   1.00
C213   C     0.21296   0.58807   0.02492   0.00000  Uiso   1.00
C214   C     0.12037   0.41193   0.47508   0.00000  Uiso   1.00
C215   C     0.21537   0.58576   0.47778   0.00000  Uiso   1.00
C216   C     0.11796   0.41424   0.02222   0.00000  Uiso   1.00
H217   H     0.12010   0.42625   0.11111   0.00000  Uiso   1.00
H218   H     0.21324   0.57375   0.38889   0.00000  Uiso   1.00
H219   H     0.21076   0.57413   0.11458   0.00000  Uiso   1.00
H220   H     0.12257   0.42587   0.38542   0.00000  Uiso   1.00
H221   H     0.23337   0.61885   0.45987   0.00000  Uiso   1.00
H222   H     0.09996   0.38115   0.04013   0.00000  Uiso   1.00
C223   C     0.18917   0.65240   0.25034   0.00000  Uiso   1.00
C224   C     0.14417   0.34760   0.24966   0.00000  Uiso   1.00
H225   H     0.23182   0.33554   0.25239   0.00000  Uiso   1.00
H226   H     0.10152   0.66446   0.24760   0.00000  Uiso   1.00
N227   N     0.31678   0.48598   0.23783   0.00000  Uiso   1.00
N228   N     0.01656   0.51402   0.26217   0.00000  Uiso   1.00
N229   N     0.23278   0.63516   0.04862   0.00000  Uiso   1.00
O230   O     0.20081   0.65748   0.08111   0.00000  Uiso   1.00
O231   O     0.27733   0.66096   0.03229   0.00000  Uiso   1.00
N232   N     0.10054   0.36484   0.45138   0.00000  Uiso   1.00
O233   O     0.13252   0.34252   0.41889   0.00000  Uiso   1.00
O234   O     0.05599   0.33905   0.46771   0.00000  Uiso   1.00
C235   C     0.00742   0.45891   0.19688   0.00000  Uiso   1.00
C236   C     0.30718   0.40871   0.18462   0.00000  Uiso   1.00
H237   H     0.30328   0.38339   0.21369   0.00000  Uiso   1.00
H238   H     0.26508   0.41638   0.17395   0.00000  Uiso   1.00
H239   H     0.33005   0.38710   0.15572   0.00000  Uiso   1.00
H240   H     0.00964   0.48514   0.16839   0.00000  Uiso   1.00
H241   H     0.04889   0.44507   0.20146   0.00000  Uiso   1.00
C242   C     0.32591   0.54109   0.30312   0.00000  Uiso   1.00
C243   C     0.02615   0.59129   0.31537   0.00000  Uiso   1.00
H244   H     0.06824   0.58362   0.32607   0.00000  Uiso   1.00
H245   H     0.03008   0.61659   0.28630   0.00000  Uiso   1.00
H246   H     0.00328   0.61292   0.34425   0.00000  Uiso   1.00
H247   H     0.28444   0.55493   0.29853   0.00000  Uiso   1.00
H248   H     0.32370   0.51487   0.33161   0.00000  Uiso   1.00
O249   O     0.46308   0.57952   0.25299   0.00000  Uiso   1.00
O250   O     0.53692   0.42048   0.24701   0.00000  Uiso   1.00
O251   O     0.55946   0.57054   0.24519   0.00000  Uiso   1.00
O252   O     0.44054   0.42946   0.25481   0.00000  Uiso   1.00
C253   C     0.51475   0.59793   0.24929   0.00000  Uiso   1.00
C254   C     0.48525   0.40207   0.25071   0.00000  Uiso   1.00
O255   O     0.45181   0.50450   0.31997   0.00000  Uiso   1.00
O256   O     0.54819   0.49550   0.18003   0.00000  Uiso   1.00
O257   O     0.54819   0.49552   0.31218   0.00000  Uiso   1.00
O258   O     0.45181   0.50448   0.18783   0.00000  Uiso   1.00
C259   C     0.50047   0.50012   0.33618   0.00000  Uiso   1.00
C260   C     0.49953   0.49988   0.16382   0.00000  Uiso   1.00
Zn261  Zn    0.43565   0.50600   0.25521   0.00000  Uiso   1.00
Zn262  Zn    0.56435   0.49400   0.24479   0.00000  Uiso   1.00
C263   C     0.47264   0.45872   0.09293   0.00000  Uiso   1.00
C264   C     0.52736   0.54128   0.40707   0.00000  Uiso   1.00
C265   C     0.49845   0.50062   0.11626   0.00000  Uiso   1.00
C266   C     0.50155   0.49938   0.38374   0.00000  Uiso   1.00
C267   C     0.52368   0.54306   0.09460   0.00000  Uiso   1.00
C268   C     0.47632   0.45694   0.40540   0.00000  Uiso   1.00
C269   C     0.52277   0.54468   0.04793   0.00000  Uiso   1.00
C270   C     0.47723   0.45533   0.45207   0.00000  Uiso   1.00
C271   C     0.49912   0.50067   0.02351   0.00000  Uiso   1.00
C272   C     0.50088   0.49933   0.47649   0.00000  Uiso   1.00
C273   C     0.47381   0.45785   0.04626   0.00000  Uiso   1.00
C274   C     0.52619   0.54215   0.45374   0.00000  Uiso   1.00
C275   C     0.54629   0.58807   0.02492   0.00000  Uiso   1.00
C276   C     0.45370   0.41193   0.47508   0.00000  Uiso   1.00
C277   C     0.54871   0.58576   0.47778   0.00000  Uiso   1.00
C278   C     0.45129   0.41424   0.02222   0.00000  Uiso   1.00
H279   H     0.45343   0.42625   0.11111   0.00000  Uiso   1.00
H280   H     0.54657   0.57375   0.38889   0.00000  Uiso   1.00
H281   H     0.54410   0.57413   0.11458   0.00000  Uiso   1.00
H282   H     0.45590   0.42587   0.38542   0.00000  Uiso   1.00
H283   H     0.56671   0.61885   0.45987   0.00000  Uiso   1.00
H284   H     0.43329   0.38115   0.04013   0.00000  Uiso   1.00
C285   C     0.52250   0.65240   0.25034   0.00000  Uiso   1.00
C286   C     0.47750   0.34760   0.24966   0.00000  Uiso   1.00
H287   H     0.56515   0.33554   0.25239   0.00000  Uiso   1.00
H288   H     0.43485   0.66446   0.24760   0.00000  Uiso   1.00
N289   N     0.65011   0.48598   0.23783   0.00000  Uiso   1.00
N290   N     0.34989   0.51402   0.26217   0.00000  Uiso   1.00
N291   N     0.56612   0.63516   0.04862   0.00000  Uiso   1.00
O292   O     0.53414   0.65748   0.08111   0.00000  Uiso   1.00
O293   O     0.61067   0.66096   0.03229   0.00000  Uiso   1.00
N294   N     0.43388   0.36484   0.45138   0.00000  Uiso   1.00
O295   O     0.46585   0.34252   0.41889   0.00000  Uiso   1.00
O296   O     0.38932   0.33905   0.46771   0.00000  Uiso   1.00
C297   C     0.34075   0.45891   0.19688   0.00000  Uiso   1.00
C298   C     0.64052   0.40871   0.18462   0.00000  Uiso   1.00
H299   H     0.63661   0.38339   0.21369   0.00000  Uiso   1.00
H300   H     0.59842   0.41638   0.17395   0.00000  Uiso   1.00
H301   H     0.66338   0.38710   0.15572   0.00000  Uiso   1.00
H302   H     0.34297   0.48514   0.16839   0.00000  Uiso   1.00
H303   H     0.38222   0.44507   0.20146   0.00000  Uiso   1.00
C304   C     0.65925   0.54109   0.30312   0.00000  Uiso   1.00
C305   C     0.35948   0.59129   0.31537   0.00000  Uiso   1.00
H306   H     0.40157   0.58362   0.32607   0.00000  Uiso   1.00
H307   H     0.36341   0.61659   0.28630   0.00000  Uiso   1.00
H308   H     0.33661   0.61292   0.34425   0.00000  Uiso   1.00
H309   H     0.61778   0.55493   0.29853   0.00000  Uiso   1.00
H310   H     0.65703   0.51487   0.33161   0.00000  Uiso   1.00
O311   O     0.79642   0.57952   0.25299   0.00000  Uiso   1.00
O312   O     0.87025   0.42048   0.24701   0.00000  Uiso   1.00
O313   O     0.89280   0.57054   0.24519   0.00000  Uiso   1.00
O314   O     0.77387   0.42946   0.25481   0.00000  Uiso   1.00
C315   C     0.84809   0.59793   0.24929   0.00000  Uiso   1.00
C316   C     0.81858   0.40207   0.25071   0.00000  Uiso   1.00
O317   O     0.78514   0.50450   0.31997   0.00000  Uiso   1.00
O318   O     0.88153   0.49550   0.18003   0.00000  Uiso   1.00
O319   O     0.88152   0.49552   0.31218   0.00000  Uiso   1.00
O320   O     0.78515   0.50448   0.18783   0.00000  Uiso   1.00
C321   C     0.83381   0.50012   0.33618   0.00000  Uiso   1.00
C322   C     0.83286   0.49988   0.16382   0.00000  Uiso   1.00
Zn323  Zn    0.76898   0.50600   0.25521   0.00000  Uiso   1.00
Zn324  Zn    0.89769   0.49400   0.24479   0.00000  Uiso   1.00
C325   C     0.80597   0.45872   0.09293   0.00000  Uiso   1.00
C326   C     0.86070   0.54128   0.40707   0.00000  Uiso   1.00
C327   C     0.83178   0.50062   0.11626   0.00000  Uiso   1.00
C328   C     0.83489   0.49938   0.38374   0.00000  Uiso   1.00
C329   C     0.85701   0.54306   0.09460   0.00000  Uiso   1.00
C330   C     0.80966   0.45694   0.40540   0.00000  Uiso   1.00
C331   C     0.85610   0.54468   0.04793   0.00000  Uiso   1.00
C332   C     0.81056   0.45533   0.45207   0.00000  Uiso   1.00
C333   C     0.83245   0.50067   0.02351   0.00000  Uiso   1.00
C334   C     0.83421   0.49933   0.47649   0.00000  Uiso   1.00
C335   C     0.80715   0.45785   0.04626   0.00000  Uiso   1.00
C336   C     0.85952   0.54215   0.45374   0.00000  Uiso   1.00
C337   C     0.87963   0.58807   0.02492   0.00000  Uiso   1.00
C338   C     0.78704   0.41193   0.47508   0.00000  Uiso   1.00
C339   C     0.88204   0.58576   0.47778   0.00000  Uiso   1.00
C340   C     0.78462   0.41424   0.02222   0.00000  Uiso   1.00
H341   H     0.78676   0.42625   0.11111   0.00000  Uiso   1.00
H342   H     0.87990   0.57375   0.38889   0.00000  Uiso   1.00
H343   H     0.87743   0.57413   0.11458   0.00000  Uiso   1.00
H344   H     0.78923   0.42587   0.38542   0.00000  Uiso   1.00
H345   H     0.90004   0.61885   0.45987   0.00000  Uiso   1.00
H346   H     0.76662   0.38115   0.04013   0.00000  Uiso   1.00
C347   C     0.85583   0.65240   0.25034   0.00000  Uiso   1.00
C348   C     0.81083   0.34760   0.24966   0.00000  Uiso   1.00
H349   H     0.89848   0.33554   0.25239   0.00000  Uiso   1.00
H350   H     0.76819   0.66446   0.24760   0.00000  Uiso   1.00
N351   N     0.98344   0.48598   0.23783   0.00000  Uiso   1.00
N352   N     0.68322   0.51402   0.26217   0.00000  Uiso   1.00
N353   N     0.89945   0.63516   0.04862   0.00000  Uiso   1.00
O354   O     0.86748   0.65748   0.08111   0.00000  Uiso   1.00
O355   O     0.94400   0.66096   0.03229   0.00000  Uiso   1.00
N356   N     0.76721   0.36484   0.45138   0.00000  Uiso   1.00
O357   O     0.79918   0.34252   0.41889   0.00000  Uiso   1.00
O358   O     0.72266   0.33905   0.46771   0.00000  Uiso   1.00
C359   C     0.67409   0.45891   0.19688   0.00000  Uiso   1.00
C360   C     0.97385   0.40871   0.18462   0.00000  Uiso   1.00
H361   H     0.96995   0.38339   0.21369   0.00000  Uiso   1.00
H362   H     0.93175   0.41638   0.17395   0.00000  Uiso   1.00
H363   H     0.99671   0.38710   0.15572   0.00000  Uiso   1.00
H364   H     0.67631   0.48514   0.16839   0.00000  Uiso   1.00
H365   H     0.71556   0.44507   0.20146   0.00000  Uiso   1.00
C366   C     0.99258   0.54109   0.30312   0.00000  Uiso   1.00
C367   C     0.69282   0.59129   0.31537   0.00000  Uiso   1.00
H368   H     0.73491   0.58362   0.32607   0.00000  Uiso   1.00
H369   H     0.69675   0.61659   0.28630   0.00000  Uiso   1.00
H370   H     0.66994   0.61292   0.34425   0.00000  Uiso   1.00
H371   H     0.95111   0.55493   0.29853   0.00000  Uiso   1.00
H372   H     0.99036   0.51487   0.33161   0.00000  Uiso   1.00
O373   O     0.12975   0.91286   0.25299   0.00000  Uiso   1.00
O374   O     0.20358   0.75381   0.24701   0.00000  Uiso   1.00
O375   O     0.22613   0.90387   0.24519   0.00000  Uiso   1.00
O376   O     0.10720   0.76279   0.25481   0.00000  Uiso   1.00
C377   C     0.18142   0.93127   0.24929   0.00000  Uiso   1.00
C378   C     0.15191   0.73540   0.25071   0.00000  Uiso   1.00
O379   O     0.11847   0.83784   0.31997   0.00000  Uiso   1.00
O380   O     0.21486   0.82883   0.18003   0.00000  Uiso   1.00
O381   O     0.21485   0.82885   0.31218   0.00000  Uiso   1.00
O382   O     0.11848   0.83781   0.18783   0.00000  Uiso   1.00
C383   C     0.16714   0.83345   0.33618   0.00000  Uiso   1.00
C384   C     0.16619   0.83321   0.16382   0.00000  Uiso   1.00
Zn385  Zn    0.10231   0.83933   0.25521   0.00000  Uiso   1.00
Zn386  Zn    0.23102   0.82734   0.24479   0.00000  Uiso   1.00
C387   C     0.13930   0.79206   0.09293   0.00000  Uiso   1.00
C388   C     0.19403   0.87461   0.40707   0.00000  Uiso   1.00
C389   C     0.16511   0.83395   0.11626   0.00000  Uiso   1.00
C390   C     0.16822   0.83271   0.38374   0.00000  Uiso   1.00
C391   C     0.19034   0.87639   0.09460   0.00000  Uiso   1.00
C392   C     0.14299   0.79027   0.40540   0.00000  Uiso   1.00
C393   C     0.18944   0.87801   0.04793   0.00000  Uiso   1.00
C394   C     0.14390   0.78866   0.45207   0.00000  Uiso   1.00
C395   C     0.16578   0.83401   0.02351   0.00000  Uiso   1.00
C396   C     0.16755   0.83266   0.47649   0.00000  Uiso   1.00
C397   C     0.14048   0.79118   0.04626   0.00000  Uiso   1.00
C398   C     0.19285   0.87549   0.45374   0.00000  Uiso   1.00
C399   C     0.21296   0.92141   0.02492   0.00000  Uiso   1.00
C400   C     0.12037   0.74526   0.47508   0.00000  Uiso   1.00
C401   C     0.21537   0.91910   0.47778   0.00000  Uiso   1.00
C402   C     0.11796   0.74757   0.02222   0.00000  Uiso   1.00
H403   H     0.12010   0.75958   0.11111   0.00000  Uiso   1.00
H404   H     0.21324   0.90709   0.38889   0.00000  Uiso   1.00
H405   H     0.21076   0.90746   0.11458   0.00000  Uiso   1.00
H406   H     0.12257   0.75921   0.38542   0.00000  Uiso   1.00
H407   H     0.23337   0.95219   0.45987   0.00000  Uiso   1.00
H408   H     0.09996   0.71448   0.04013   0.00000  Uiso   1.00
C409   C     0.18917   0.98573   0.25034   0.00000  Uiso   1.00
C410   C     0.14417   0.68093   0.24966   0.00000  Uiso   1.00
H411   H     0.23182   0.66887   0.25239   0.00000  Uiso   1.00
H412   H     0.10152   0.99780   0.24760   0.00000  Uiso   1.00
N413   N     0.31678   0.81932   0.23783   0.00000  Uiso   1.00
N414   N     0.01656   0.84735   0.26217   0.00000  Uiso   1.00
N415   N     0.23278   0.96850   0.04862   0.00000  Uiso   1.00
O416   O     0.20081   0.99081   0.08111   0.00000  Uiso   1.00
O417   O     0.27733   0.99429   0.03229   0.00000  Uiso   1.00
N418   N     0.10054   0.69817   0.45138   0.00000  Uiso   1.00
O419   O     0.13252   0.67585   0.41889   0.00000  Uiso   1.00
O420   O     0.05599   0.67238   0.46771   0.00000  Uiso   1.00
C421   C     0.00742   0.79224   0.19688   0.00000  Uiso   1.00
C422   C     0.30718   0.74204   0.18462   0.00000  Uiso   1.00
H423   H     0.30328   0.71673   0.21369   0.00000  Uiso   1.00
H424   H     0.26508   0.74971   0.17395   0.00000  Uiso   1.00
H425   H     0.33005   0.72043   0.15572   0.00000  Uiso   1.00
H426   H     0.00964   0.81847   0.16839   0.00000  Uiso   1.00
H427   H     0.04889   0.77840   0.20146   0.00000  Uiso   1.00
C428   C     0.32591   0.87443   0.30312   0.00000  Uiso   1.00
C429   C     0.02615   0.92463   0.31537   0.00000  Uiso   1.00
H430   H     0.06824   0.91695   0.32607   0.00000  Uiso   1.00
H431   H     0.03008   0.94993   0.28630   0.00000  Uiso   1.00
H432   H     0.00328   0.94626   0.34425   0.00000  Uiso   1.00
H433   H     0.28444   0.88826   0.29853   0.00000  Uiso   1.00
H434   H     0.32370   0.84820   0.33161   0.00000  Uiso   1.00
O435   O     0.46308   0.91286   0.25299   0.00000  Uiso   1.00
O436   O     0.53692   0.75381   0.24701   0.00000  Uiso   1.00
O437   O     0.55946   0.90387   0.24519   0.00000  Uiso   1.00
O438   O     0.44054   0.76279   0.25481   0.00000  Uiso   1.00
C439   C     0.51475   0.93127   0.24929   0.00000  Uiso   1.00
C440   C     0.48525   0.73540   0.25071   0.00000  Uiso   1.00
O441   O     0.45181   0.83784   0.31997   0.00000  Uiso   1.00
O442   O     0.54819   0.82883   0.18003   0.00000  Uiso   1.00
O443   O     0.54819   0.82885   0.31218   0.00000  Uiso   1.00
O444   O     0.45181   0.83781   0.18783   0.00000  Uiso   1.00
C445   C     0.50047   0.83345   0.33618   0.00000  Uiso   1.00
C446   C     0.49953   0.83321   0.16382   0.00000  Uiso   1.00
Zn447  Zn    0.43565   0.83933   0.25521   0.00000  Uiso   1.00
Zn448  Zn    0.56435   0.82734   0.24479   0.00000  Uiso   1.00
C449   C     0.47264   0.79206   0.09293   0.00000  Uiso   1.00
C450   C     0.52736   0.87461   0.40707   0.00000  Uiso   1.00
C451   C     0.49845   0.83395   0.11626   0.00000  Uiso   1.00
C452   C     0.50155   0.83271   0.38374   0.00000  Uiso   1.00
C453   C     0.52368   0.87639   0.09460   0.00000  Uiso   1.00
C454   C     0.47632   0.79027   0.40540   0.00000  Uiso   1.00
C455   C     0.52277   0.87801   0.04793   0.00000  Uiso   1.00
C456   C     0.47723   0.78866   0.45207   0.00000  Uiso   1.00
C457   C     0.49912   0.83401   0.02351   0.00000  Uiso   1.00
C458   C     0.50088   0.83266   0.47649   0.00000  Uiso   1.00
C459   C     0.47381   0.79118   0.04626   0.00000  Uiso   1.00
C460   C     0.52619   0.87549   0.45374   0.00000  Uiso   1.00
C461   C     0.54629   0.92141   0.02492   0.00000  Uiso   1.00
C462   C     0.45370   0.74526   0.47508   0.00000  Uiso   1.00
C463   C     0.54871   0.91910   0.47778   0.00000  Uiso   1.00
C464   C     0.45129   0.74757   0.02222   0.00000  Uiso   1.00
H465   H     0.45343   0.75958   0.11111   0.00000  Uiso   1.00
H466   H     0.54657   0.90709   0.38889   0.00000  Uiso   1.00
H467   H     0.54410   0.90746   0.11458   0.00000  Uiso   1.00
H468   H     0.45590   0.75921   0.38542   0.00000  Uiso   1.00
H469   H     0.56671   0.95219   0.45987   0.00000  Uiso   1.00
H470   H     0.43329   0.71448   0.04013   0.00000  Uiso   1.00
C471   C     0.52250   0.98573   0.25034   0.00000  Uiso   1.00
C472   C     0.47750   0.68093   0.24966   0.00000  Uiso   1.00
H473   H     0.56515   0.66887   0.25239   0.00000  Uiso   1.00
H474   H     0.43485   0.99780   0.24760   0.00000  Uiso   1.00
N475   N     0.65011   0.81932   0.23783   0.00000  Uiso   1.00
N476   N     0.34989   0.84735   0.26217   0.00000  Uiso   1.00
N477   N     0.56612   0.96850   0.04862   0.00000  Uiso   1.00
O478   O     0.53414   0.99081   0.08111   0.00000  Uiso   1.00
O479   O     0.61067   0.99429   0.03229   0.00000  Uiso   1.00
N480   N     0.43388   0.69817   0.45138   0.00000  Uiso   1.00
O481   O     0.46585   0.67585   0.41889   0.00000  Uiso   1.00
O482   O     0.38932   0.67238   0.46771   0.00000  Uiso   1.00
C483   C     0.34075   0.79224   0.19688   0.00000  Uiso   1.00
C484   C     0.64052   0.74204   0.18462   0.00000  Uiso   1.00
H485   H     0.63661   0.71673   0.21369   0.00000  Uiso   1.00
H486   H     0.59842   0.74971   0.17395   0.00000  Uiso   1.00
H487   H     0.66338   0.72043   0.15572   0.00000  Uiso   1.00
H488   H     0.34297   0.81847   0.16839   0.00000  Uiso   1.00
H489   H     0.38222   0.77840   0.20146   0.00000  Uiso   1.00
C490   C     0.65925   0.87443   0.30312   0.00000  Uiso   1.00
C491   C     0.35948   0.92463   0.31537   0.00000  Uiso   1.00
H492   H     0.40157   0.91695   0.32607   0.00000  Uiso   1.00
H493   H     0.36341   0.94993   0.28630   0.00000  Uiso   1.00
H494   H     0.33661   0.94626   0.34425   0.00000  Uiso   1.00
H495   H     0.61778   0.88826   0.29853   0.00000  Uiso   1.00
H496   H     0.65703   0.84820   0.33161   0.00000  Uiso   1.00
O497   O     0.79642   0.91286   0.25299   0.00000  Uiso   1.00
O498   O     0.87025   0.75381   0.24701   0.00000  Uiso   1.00
O499   O     0.89280   0.90387   0.24519   0.00000  Uiso   1.00
O500   O     0.77387   0.76279   0.25481   0.00000  Uiso   1.00
C501   C     0.84809   0.93127   0.24929   0.00000  Uiso   1.00
C502   C     0.81858   0.73540   0.25071   0.00000  Uiso   1.00
O503   O     0.78514   0.83784   0.31997   0.00000  Uiso   1.00
O504   O     0.88153   0.82883   0.18003   0.00000  Uiso   1.00
O505   O     0.88152   0.82885   0.31218   0.00000  Uiso   1.00
O506   O     0.78515   0.83781   0.18783   0.00000  Uiso   1.00
C507   C     0.83381   0.83345   0.33618   0.00000  Uiso   1.00
C508   C     0.83286   0.83321   0.16382   0.00000  Uiso   1.00
Zn509  Zn    0.76898   0.83933   0.25521   0.00000  Uiso   1.00
Zn510  Zn    0.89769   0.82734   0.24479   0.00000  Uiso   1.00
C511   C     0.80597   0.79206   0.09293   0.00000  Uiso   1.00
C512   C     0.86070   0.87461   0.40707   0.00000  Uiso   1.00
C513   C     0.83178   0.83395   0.11626   0.00000  Uiso   1.00
C514   C     0.83489   0.83271   0.38374   0.00000  Uiso   1.00
C515   C     0.85701   0.87639   0.09460   0.00000  Uiso   1.00
C516   C     0.80966   0.79027   0.40540   0.00000  Uiso   1.00
C517   C     0.85610   0.87801   0.04793   0.00000  Uiso   1.00
C518   C     0.81056   0.78866   0.45207   0.00000  Uiso   1.00
C519   C     0.83245   0.83401   0.02351   0.00000  Uiso   1.00
C520   C     0.83421   0.83266   0.47649   0.00000  Uiso   1.00
C521   C     0.80715   0.79118   0.04626   0.00000  Uiso   1.00
C522   C     0.85952   0.87549   0.45374   0.00000  Uiso   1.00
C523   C     0.87963   0.92141   0.02492   0.00000  Uiso   1.00
C524   C     0.78704   0.74526   0.47508   0.00000  Uiso   1.00
C525   C     0.88204   0.91910   0.47778   0.00000  Uiso   1.00
C526   C     0.78462   0.74757   0.02222   0.00000  Uiso   1.00
H527   H     0.78676   0.75958   0.11111   0.00000  Uiso   1.00
H528   H     0.87990   0.90709   0.38889   0.00000  Uiso   1.00
H529   H     0.87743   0.90746   0.11458   0.00000  Uiso   1.00
H530   H     0.78923   0.75921   0.38542   0.00000  Uiso   1.00
H531   H     0.90004   0.95219   0.45987   0.00000  Uiso   1.00
H532   H     0.76662   0.71448   0.04013   0.00000  Uiso   1.00
C533   C     0.85583   0.98573   0.25034   0.00000  Uiso   1.00
C534   C     0.81083   0.68093   0.24966   0.00000  Uiso   1.00
H535   H     0.89848   0.66887   0.25239   0.00000  Uiso   1.00
H536   H     0.76819   0.99780   0.24760   0.00000  Uiso   1.00
N537   N     0.98344   0.81932   0.23783   0.00000  Uiso   1.00
N538   N     0.68322   0.84735   0.26217   0.00000  Uiso   1.00
N539   N     0.89945   0.96850   0.04862   0.00000  Uiso   1.00
O540   O     0.86748   0.99081   0.08111   0.00000  Uiso   1.00
O541   O     0.94400   0.99429   0.03229   0.00000  Uiso   1.00
N542   N     0.76721   0.69817   0.45138   0.00000  Uiso   1.00
O543   O     0.79918   0.67585   0.41889   0.00000  Uiso   1.00
O544   O     0.72266   0.67238   0.46771   0.00000  Uiso   1.00
C545   C     0.67409   0.79224   0.19688   0.00000  Uiso   1.00
C546   C     0.97385   0.74204   0.18462   0.00000  Uiso   1.00
H547   H     0.96995   0.71673   0.21369   0.00000  Uiso   1.00
H548   H     0.93175   0.74971   0.17395   0.00000  Uiso   1.00
H549   H     0.99671   0.72043   0.15572   0.00000  Uiso   1.00
H550   H     0.67631   0.81847   0.16839   0.00000  Uiso   1.00
H551   H     0.71556   0.77840   0.20146   0.00000  Uiso   1.00
C552   C     0.99258   0.87443   0.30312   0.00000  Uiso   1.00
C553   C     0.69282   0.92463   0.31537   0.00000  Uiso   1.00
H554   H     0.73491   0.91695   0.32607   0.00000  Uiso   1.00
H555   H     0.69675   0.94993   0.28630   0.00000  Uiso   1.00
H556   H     0.66994   0.94626   0.34425   0.00000  Uiso   1.00
H557   H     0.95111   0.88826   0.29853   0.00000  Uiso   1.00
H558   H     0.99036   0.84820   0.33161   0.00000  Uiso   1.00
O559   O     0.12975   0.24619   0.75299   0.00000  Uiso   1.00
O560   O     0.20358   0.08714   0.74701   0.00000  Uiso   1.00
O561   O     0.22613   0.23721   0.74519   0.00000  Uiso   1.00
O562   O     0.10720   0.09613   0.75481   0.00000  Uiso   1.00
C563   C     0.18142   0.26460   0.74929   0.00000  Uiso   1.00
C564   C     0.15191   0.06873   0.75071   0.00000  Uiso   1.00
O565   O     0.11847   0.17117   0.81997   0.00000  Uiso   1.00
O566   O     0.21486   0.16216   0.68003   0.00000  Uiso   1.00
O567   O     0.21485   0.16219   0.81218   0.00000  Uiso   1.00
O568   O     0.11848   0.17115   0.68783   0.00000  Uiso   1.00
C569   C     0.16714   0.16679   0.83618   0.00000  Uiso   1.00
C570   C     0.16619   0.16655   0.66382   0.00000  Uiso   1.00
Zn571  Zn    0.10231   0.17266   0.75521   0.00000  Uiso   1.00
Zn572  Zn    0.23102   0.16067   0.74479   0.00000  Uiso   1.00
C573   C     0.13930   0.12539   0.59293   0.00000  Uiso   1.00
C574   C     0.19403   0.20794   0.90707   0.00000  Uiso   1.00
C575   C     0.16511   0.16728   0.61626   0.00000  Uiso   1.00
C576   C     0.16822   0.16605   0.88374   0.00000  Uiso   1.00
C577   C     0.19034   0.20973   0.59460   0.00000  Uiso   1.00
C578   C     0.14299   0.12361   0.90540   0.00000  Uiso   1.00
C579   C     0.18944   0.21134   0.54793   0.00000  Uiso   1.00
C580   C     0.14390   0.12199   0.95207   0.00000  Uiso   1.00
C581   C     0.16578   0.16734   0.52351   0.00000  Uiso   1.00
C582   C     0.16755   0.16599   0.97649   0.00000  Uiso   1.00
C583   C     0.14048   0.12451   0.54626   0.00000  Uiso   1.00
C584   C     0.19285   0.20882   0.95374   0.00000  Uiso   1.00
C585   C     0.21296   0.25474   0.52492   0.00000  Uiso   1.00
C586   C     0.12037   0.07860   0.97508   0.00000  Uiso   1.00
C587   C     0.21537   0.25243   0.97778   0.00000  Uiso   1.00
C588   C     0.11796   0.08091   0.52222   0.00000  Uiso   1.00
H589   H     0.12010   0.09291   0.61111   0.00000  Uiso   1.00
H590   H     0.21324   0.24042   0.88889   0.00000  Uiso   1.00
H591   H     0.21076   0.24079   0.61458   0.00000  Uiso   1.00
H592   H     0.12257   0.09254   0.88542   0.00000  Uiso   1.00
H593   H     0.23337   0.28552   0.95987   0.00000  Uiso   1.00
H594   H     0.09996   0.04781   0.54013   0.00000  Uiso   1.00
C595   C     0.18917   0.31907   0.75034   0.00000  Uiso   1.00
C596   C     0.14417   0.01427   0.74966   0.00000  Uiso   1.00
H597   H     0.23182   0.00220   0.75239   0.00000  Uiso   1.00
H598   H     0.10152   0.33113   0.74760   0.00000  Uiso   1.00
N599   N     0.31678   0.15265   0.73783   0.00000  Uiso   1.00
N600   N     0.01656   0.18068   0.76217   0.00000  Uiso   1.00
N601   N     0.23278   0.30183   0.54862   0.00000  Uiso   1.00
O602   O     0.20081   0.32415   0.58111   0.00000  Uiso   1.00
O603   O     0.27733   0.32762   0.53229   0.00000  Uiso   1.00
N604   N     0.10054   0.03150   0.95138   0.00000  Uiso   1.00
O605   O     0.13252   0.00919   0.91889   0.00000  Uiso   1.00
O606   O     0.05599   0.00572   0.96771   0.00000  Uiso   1.00
C607   C     0.00742   0.12558   0.69688   0.00000  Uiso   1.00
C608   C     0.30718   0.07538   0.68462   0.00000  Uiso   1.00
H609   H     0.30328   0.05006   0.71369   0.00000  Uiso   1.00
H610   H     0.26508   0.08305   0.67395   0.00000  Uiso   1.00
H611   H     0.33005   0.05376   0.65572   0.00000  Uiso   1.00
H612   H     0.00964   0.15181   0.66839   0.00000  Uiso   1.00
H613   H     0.04889   0.11174   0.70146   0.00000  Uiso   1.00
C614   C     0.32591   0.20776   0.80312   0.00000  Uiso   1.00
C615   C     0.02615   0.25796   0.81537   0.00000  Uiso   1.00
H616   H     0.06824   0.25029   0.82607   0.00000  Uiso   1.00
H617   H     0.03008   0.28326   0.78630   0.00000  Uiso   1.00
H618   H     0.00328   0.27959   0.84425   0.00000  Uiso   1.00
H619   H     0.28444   0.22160   0.79853   0.00000  Uiso   1.00
H620   H     0.32370   0.18153   0.83161   0.00000  Uiso   1.00
O621   O     0.46308   0.24619   0.75299   0.00000  Uiso   1.00
O622   O     0.53692   0.08714   0.74701   0.00000  Uiso   1.00
O623   O     0.55946   0.23721   0.74519   0.00000  Uiso   1.00
O624   O     0.44054   0.09613   0.75481   0.00000  Uiso   1.00
C625   C     0.51475   0.26460   0.74929   0.00000  Uiso   1.00
C626   C     0.48525   0.06873   0.75071   0.00000  Uiso   1.00
O627   O     0.45181   0.17117   0.81997   0.00000  Uiso   1.00
O628   O     0.54819   0.16216   0.68003   0.00000  Uiso   1.00
O629   O     0.54819   0.16219   0.81218   0.00000  Uiso   1.00
O630   O     0.45181   0.17115   0.68783   0.00000  Uiso   1.00
C631   C     0.50047   0.16679   0.83618   0.00000  Uiso   1.00
C632   C     0.49953   0.16655   0.66382   0.00000  Uiso   1.00
Zn633  Zn    0.43565   0.17266   0.75521   0.00000  Uiso   1.00
Zn634  Zn    0.56435   0.16067   0.74479   0.00000  Uiso   1.00
C635   C     0.47264   0.12539   0.59293   0.00000  Uiso   1.00
C636   C     0.52736   0.20794   0.90707   0.00000  Uiso   1.00
C637   C     0.49845   0.16728   0.61626   0.00000  Uiso   1.00
C638   C     0.50155   0.16605   0.88374   0.00000  Uiso   1.00
C639   C     0.52368   0.20973   0.59460   0.00000  Uiso   1.00
C640   C     0.47632   0.12361   0.90540   0.00000  Uiso   1.00
C641   C     0.52277   0.21134   0.54793   0.00000  Uiso   1.00
C642   C     0.47723   0.12199   0.95207   0.00000  Uiso   1.00
C643   C     0.49912   0.16734   0.52351   0.00000  Uiso   1.00
C644   C     0.50088   0.16599   0.97649   0.00000  Uiso   1.00
C645   C     0.47381   0.12451   0.54626   0.00000  Uiso   1.00
C646   C     0.52619   0.20882   0.95374   0.00000  Uiso   1.00
C647   C     0.54629   0.25474   0.52492   0.00000  Uiso   1.00
C648   C     0.45370   0.07860   0.97508   0.00000  Uiso   1.00
C649   C     0.54871   0.25243   0.97778   0.00000  Uiso   1.00
C650   C     0.45129   0.08091   0.52222   0.00000  Uiso   1.00
H651   H     0.45343   0.09291   0.61111   0.00000  Uiso   1.00
H652   H     0.54657   0.24042   0.88889   0.00000  Uiso   1.00
H653   H     0.54410   0.24079   0.61458   0.00000  Uiso   1.00
H654   H     0.45590   0.09254   0.88542   0.00000  Uiso   1.00
H655   H     0.56671   0.28552   0.95987   0.00000  Uiso   1.00
H656   H     0.43329   0.04781   0.54013   0.00000  Uiso   1.00
C657   C     0.52250   0.31907   0.75034   0.00000  Uiso   1.00
C658   C     0.47750   0.01427   0.74966   0.00000  Uiso   1.00
H659   H     0.56515   0.00220   0.75239   0.00000  Uiso   1.00
H660   H     0.43485   0.33113   0.74760   0.00000  Uiso   1.00
N661   N     0.65011   0.15265   0.73783   0.00000  Uiso   1.00
N662   N     0.34989   0.18068   0.76217   0.00000  Uiso   1.00
N663   N     0.56612   0.30183   0.54862   0.00000  Uiso   1.00
O664   O     0.53414   0.32415   0.58111   0.00000  Uiso   1.00
O665   O     0.61067   0.32762   0.53229   0.00000  Uiso   1.00
N666   N     0.43388   0.03150   0.95138   0.00000  Uiso   1.00
O667   O     0.46585   0.00919   0.91889   0.00000  Uiso   1.00
O668   O     0.38932   0.00572   0.96771   0.00000  Uiso   1.00
C669   C     0.34075   0.12558   0.69688   0.00000  Uiso   1.00
C670   C     0.64052   0.07538   0.68462   0.00000  Uiso   1.00
H671   H     0.63661   0.05006   0.71369   0.00000  Uiso   1.00
H672   H     0.59842   0.08305   0.67395   0.00000  Uiso   1.00
H673   H     0.66338   0.05376   0.65572   0.00000  Uiso   1.00
H674   H     0.34297   0.15181   0.66839   0.00000  Uiso   1.00
H675   H     0.38222   0.11174   0.70146   0.00000  Uiso   1.00
C676   C     0.65925   0.20776   0.80312   0.00000  Uiso   1.00
C677   C     0.35948   0.25796   0.81537   0.00000  Uiso   1.00
H678   H     0.40157   0.25029   0.82607   0.00000  Uiso   1.00
H679   H     0.36341   0.28326   0.78630   0.00000  Uiso   1.00
H680   H     0.33661   0.27959   0.84425   0.00000  Uiso   1.00
H681   H     0.61778   0.22160   0.79853   0.00000  Uiso   1.00
H682   H     0.65703   0.18153   0.83161   0.00000  Uiso   1.00
O683   O     0.79642   0.24619   0.75299   0.00000  Uiso   1.00
O684   O     0.87025   0.08714   0.74701   0.00000  Uiso   1.00
O685   O     0.89280   0.23721   0.74519   0.00000  Uiso   1.00
O686   O     0.77387   0.09613   0.75481   0.00000  Uiso   1.00
C687   C     0.84809   0.26460   0.74929   0.00000  Uiso   1.00
C688   C     0.81858   0.06873   0.75071   0.00000  Uiso   1.00
O689   O     0.78514   0.17117   0.81997   0.00000  Uiso   1.00
O690   O     0.88153   0.16216   0.68003   0.00000  Uiso   1.00
O691   O     0.88152   0.16219   0.81218   0.00000  Uiso   1.00
O692   O     0.78515   0.17115   0.68783   0.00000  Uiso   1.00
C693   C     0.83381   0.16679   0.83618   0.00000  Uiso   1.00
C694   C     0.83286   0.16655   0.66382   0.00000  Uiso   1.00
Zn695  Zn    0.76898   0.17266   0.75521   0.00000  Uiso   1.00
Zn696  Zn    0.89769   0.16067   0.74479   0.00000  Uiso   1.00
C697   C     0.80597   0.12539   0.59293   0.00000  Uiso   1.00
C698   C     0.86070   0.20794   0.90707   0.00000  Uiso   1.00
C699   C     0.83178   0.16728   0.61626   0.00000  Uiso   1.00
C700   C     0.83489   0.16605   0.88374   0.00000  Uiso   1.00
C701   C     0.85701   0.20973   0.59460   0.00000  Uiso   1.00
C702   C     0.80966   0.12361   0.90540   0.00000  Uiso   1.00
C703   C     0.85610   0.21134   0.54793   0.00000  Uiso   1.00
C704   C     0.81056   0.12199   0.95207   0.00000  Uiso   1.00
C705   C     0.83245   0.16734   0.52351   0.00000  Uiso   1.00
C706   C     0.83421   0.16599   0.97649   0.00000  Uiso   1.00
C707   C     0.80715   0.12451   0.54626   0.00000  Uiso   1.00
C708   C     0.85952   0.20882   0.95374   0.00000  Uiso   1.00
C709   C     0.87963   0.25474   0.52492   0.00000  Uiso   1.00
C710   C     0.78704   0.07860   0.97508   0.00000  Uiso   1.00
C711   C     0.88204   0.25243   0.97778   0.00000  Uiso   1.00
C712   C     0.78462   0.08091   0.52222   0.00000  Uiso   1.00
H713   H     0.78676   0.09291   0.61111   0.00000  Uiso   1.00
H714   H     0.87990   0.24042   0.88889   0.00000  Uiso   1.00
H715   H     0.87743   0.24079   0.61458   0.00000  Uiso   1.00
H716   H     0.78923   0.09254   0.88542   0.00000  Uiso   1.00
H717   H     0.90004   0.28552   0.95987   0.00000  Uiso   1.00
H718   H     0.76662   0.04781   0.54013   0.00000  Uiso   1.00
C719   C     0.85583   0.31907   0.75034   0.00000  Uiso   1.00
C720   C     0.81083   0.01427   0.74966   0.00000  Uiso   1.00
H721   H     0.89848   0.00220   0.75239   0.00000  Uiso   1.00
H722   H     0.76819   0.33113   0.74760   0.00000  Uiso   1.00
N723   N     0.98344   0.15265   0.73783   0.00000  Uiso   1.00
N724   N     0.68322   0.18068   0.76217   0.00000  Uiso   1.00
N725   N     0.89945   0.30183   0.54862   0.00000  Uiso   1.00
O726   O     0.86748   0.32415   0.58111   0.00000  Uiso   1.00
O727   O     0.94400   0.32762   0.53229   0.00000  Uiso   1.00
N728   N     0.76721   0.03150   0.95138   0.00000  Uiso   1.00
O729   O     0.79918   0.00919   0.91889   0.00000  Uiso   1.00
O730   O     0.72266   0.00572   0.96771   0.00000  Uiso   1.00
C731   C     0.67409   0.12558   0.69688   0.00000  Uiso   1.00
C732   C     0.97385   0.07538   0.68462   0.00000  Uiso   1.00
H733   H     0.96995   0.05006   0.71369   0.00000  Uiso   1.00
H734   H     0.93175   0.08305   0.67395   0.00000  Uiso   1.00
H735   H     0.99671   0.05376   0.65572   0.00000  Uiso   1.00
H736   H     0.67631   0.15181   0.66839   0.00000  Uiso   1.00
H737   H     0.71556   0.11174   0.70146   0.00000  Uiso   1.00
C738   C     0.99258   0.20776   0.80312   0.00000  Uiso   1.00
C739   C     0.69282   0.25796   0.81537   0.00000  Uiso   1.00
H740   H     0.73491   0.25029   0.82607   0.00000  Uiso   1.00
H741   H     0.69675   0.28326   0.78630   0.00000  Uiso   1.00
H742   H     0.66994   0.27959   0.84425   0.00000  Uiso   1.00
H743   H     0.95111   0.22160   0.79853   0.00000  Uiso   1.00
H744   H     0.99036   0.18153   0.83161   0.00000  Uiso   1.00
O745   O     0.12975   0.57952   0.75299   0.00000  Uiso   1.00
O746   O     0.20358   0.42048   0.74701   0.00000  Uiso   1.00
O747   O     0.22613   0.57054   0.74519   0.00000  Uiso   1.00
O748   O     0.10720   0.42946   0.75481   0.00000  Uiso   1.00
C749   C     0.18142   0.59793   0.74929   0.00000  Uiso   1.00
C750   C     0.15191   0.40207   0.75071   0.00000  Uiso   1.00
O751   O     0.11847   0.50450   0.81997   0.00000  Uiso   1.00
O752   O     0.21486   0.49550   0.68003   0.00000  Uiso   1.00
O753   O     0.21485   0.49552   0.81218   0.00000  Uiso   1.00
O754   O     0.11848   0.50448   0.68783   0.00000  Uiso   1.00
C755   C     0.16714   0.50012   0.83618   0.00000  Uiso   1.00
C756   C     0.16619   0.49988   0.66382   0.00000  Uiso   1.00
Zn757  Zn    0.10231   0.50600   0.75521   0.00000  Uiso   1.00
Zn758  Zn    0.23102   0.49400   0.74479   0.00000  Uiso   1.00
C759   C     0.13930   0.45872   0.59293   0.00000  Uiso   1.00
C760   C     0.19403   0.54128   0.90707   0.00000  Uiso   1.00
C761   C     0.16511   0.50062   0.61626   0.00000  Uiso   1.00
C762   C     0.16822   0.49938   0.88374   0.00000  Uiso   1.00
C763   C     0.19034   0.54306   0.59460   0.00000  Uiso   1.00
C764   C     0.14299   0.45694   0.90540   0.00000  Uiso   1.00
C765   C     0.18944   0.54468   0.54793   0.00000  Uiso   1.00
C766   C     0.14390   0.45533   0.95207   0.00000  Uiso   1.00
C767   C     0.16578   0.50067   0.52351   0.00000  Uiso   1.00
C768   C     0.16755   0.49933   0.97649   0.00000  Uiso   1.00
C769   C     0.14048   0.45785   0.54626   0.00000  Uiso   1.00
C770   C     0.19285   0.54215   0.95374   0.00000  Uiso   1.00
C771   C     0.21296   0.58807   0.52492   0.00000  Uiso   1.00
C772   C     0.12037   0.41193   0.97508   0.00000  Uiso   1.00
C773   C     0.21537   0.58576   0.97778   0.00000  Uiso   1.00
C774   C     0.11796   0.41424   0.52222   0.00000  Uiso   1.00
H775   H     0.12010   0.42625   0.61111   0.00000  Uiso   1.00
H776   H     0.21324   0.57375   0.88889   0.00000  Uiso   1.00
H777   H     0.21076   0.57413   0.61458   0.00000  Uiso   1.00
H778   H     0.12257   0.42587   0.88542   0.00000  Uiso   1.00
H779   H     0.23337   0.61885   0.95987   0.00000  Uiso   1.00
H780   H     0.09996   0.38115   0.54013   0.00000  Uiso   1.00
C781   C     0.18917   0.65240   0.75034   0.00000  Uiso   1.00
C782   C     0.14417   0.34760   0.74966   0.00000  Uiso   1.00
H783   H     0.23182   0.33554   0.75239   0.00000  Uiso   1.00
H784   H     0.10152   0.66446   0.74760   0.00000  Uiso   1.00
N785   N     0.31678   0.48598   0.73783   0.00000  Uiso   1.00
N786   N     0.01656   0.51402   0.76217   0.00000  Uiso   1.00
N787   N     0.23278   0.63516   0.54862   0.00000  Uiso   1.00
O788   O     0.20081   0.65748   0.58111   0.00000  Uiso   1.00
O789   O     0.27733   0.66096   0.53229   0.00000  Uiso   1.00
N790   N     0.10054   0.36484   0.95138   0.00000  Uiso   1.00
O791   O     0.13252   0.34252   0.91889   0.00000  Uiso   1.00
O792   O     0.05599   0.33905   0.96771   0.00000  Uiso   1.00
C793   C     0.00742   0.45891   0.69688   0.00000  Uiso   1.00
C794   C     0.30718   0.40871   0.68462   0.00000  Uiso   1.00
H795   H     0.30328   0.38339   0.71369   0.00000  Uiso   1.00
H796   H     0.26508   0.41638   0.67395   0.00000  Uiso   1.00
H797   H     0.33005   0.38710   0.65572   0.00000  Uiso   1.00
H798   H     0.00964   0.48514   0.66839   0.00000  Uiso   1.00
H799   H     0.04889   0.44507   0.70146   0.00000  Uiso   1.00
C800   C     0.32591   0.54109   0.80312   0.00000  Uiso   1.00
C801   C     0.02615   0.59129   0.81537   0.00000  Uiso   1.00
H802   H     0.06824   0.58362   0.82607   0.00000  Uiso   1.00
H803   H     0.03008   0.61659   0.78630   0.00000  Uiso   1.00
H804   H     0.00328   0.61292   0.84425   0.00000  Uiso   1.00
H805   H     0.28444   0.55493   0.79853   0.00000  Uiso   1.00
H806   H     0.32370   0.51487   0.83161   0.00000  Uiso   1.00
O807   O     0.46308   0.57952   0.75299   0.00000  Uiso   1.00
O808   O     0.53692   0.42048   0.74701   0.00000  Uiso   1.00
O809   O     0.55946   0.57054   0.74519   0.00000  Uiso   1.00
O810   O     0.44054   0.42946   0.75481   0.00000  Uiso   1.00
C811   C     0.51475   0.59793   0.74929   0.00000  Uiso   1.00
C812   C     0.48525   0.40207   0.75071   0.00000  Uiso   1.00
O813   O     0.45181   0.50450   0.81997   0.00000  Uiso   1.00
O814   O     0.54819   0.49550   0.68003   0.00000  Uiso   1.00
O815   O     0.54819   0.49552   0.81218   0.00000  Uiso   1.00
O816   O     0.45181   0.50448   0.68783   0.00000  Uiso   1.00
C817   C     0.50047   0.50012   0.83618   0.00000  Uiso   1.00
C818   C     0.49953   0.49988   0.66382   0.00000  Uiso   1.00
Zn819  Zn    0.43565   0.50600   0.75521   0.00000  Uiso   1.00
Zn820  Zn    0.56435   0.49400   0.74479   0.00000  Uiso   1.00
C821   C     0.47264   0.45872   0.59293   0.00000  Uiso   1.00
C822   C     0.52736   0.54128   0.90707   0.00000  Uiso   1.00
C823   C     0.49845   0.50062   0.61626   0.00000  Uiso   1.00
C824   C     0.50155   0.49938   0.88374   0.00000  Uiso   1.00
C825   C     0.52368   0.54306   0.59460   0.00000  Uiso   1.00
C826   C     0.47632   0.45694   0.90540   0.00000  Uiso   1.00
C827   C     0.52277   0.54468   0.54793   0.00000  Uiso   1.00
C828   C     0.47723   0.45533   0.95207   0.00000  Uiso   1.00
C829   C     0.49912   0.50067   0.52351   0.00000  Uiso   1.00
C830   C     0.50088   0.49933   0.97649   0.00000  Uiso   1.00
C831   C     0.47381   0.45785   0.54626   0.00000  Uiso   1.00
C832   C     0.52619   0.54215   0.95374   0.00000  Uiso   1.00
C833   C     0.54629   0.58807   0.52492   0.00000  Uiso   1.00
C834   C     0.45370   0.41193   0.97508   0.00000  Uiso   1.00
C835   C     0.54871   0.58576   0.97778   0.00000  Uiso   1.00
C836   C     0.45129   0.41424   0.52222   0.00000  Uiso   1.00
H837   H     0.45343   0.42625   0.61111   0.00000  Uiso   1.00
H838   H     0.54657   0.57375   0.88889   0.00000  Uiso   1.00
H839   H     0.54410   0.57413   0.61458   0.00000  Uiso   1.00
H840   H     0.45590   0.42587   0.88542   0.00000  Uiso   1.00
H841   H     0.56671   0.61885   0.95987   0.00000  Uiso   1.00
H842   H     0.43329   0.38115   0.54013   0.00000  Uiso   1.00
C843   C     0.52250   0.65240   0.75034   0.00000  Uiso   1.00
C844   C     0.47750   0.34760   0.74966   0.00000  Uiso   1.00
H845   H     0.56515   0.33554   0.75239   0.00000  Uiso   1.00
H846   H     0.43485   0.66446   0.74760   0.00000  Uiso   1.00
N847   N     0.65011   0.48598   0.73783   0.00000  Uiso   1.00
N848   N     0.34989   0.51402   0.76217   0.00000  Uiso   1.00
N849   N     0.56612   0.63516   0.54862   0.00000  Uiso   1.00
O850   O     0.53414   0.65748   0.58111   0.00000  Uiso   1.00
O851   O     0.61067   0.66096   0.53229   0.00000  Uiso   1.00
N852   N     0.43388   0.36484   0.95138   0.00000  Uiso   1.00
O853   O     0.46585   0.34252   0.91889   0.00000  Uiso   1.00
O854   O     0.38932   0.33905   0.96771   0.00000  Uiso   1.00
C855   C     0.34075   0.45891   0.69688   0.00000  Uiso   1.00
C856   C     0.64052   0.40871   0.68462   0.00000  Uiso   1.00
H857   H     0.63661   0.38339   0.71369   0.00000  Uiso   1.00
H858   H     0.59842   0.41638   0.67395   0.00000  Uiso   1.00
H859   H     0.66338   0.38710   0.65572   0.00000  Uiso   1.00
H860   H     0.34297   0.48514   0.66839   0.00000  Uiso   1.00
H861   H     0.38222   0.44507   0.70146   0.00000  Uiso   1.00
C862   C     0.65925   0.54109   0.80312   0.00000  Uiso   1.00
C863   C     0.35948   0.59129   0.81537   0.00000  Uiso   1.00
H864   H     0.40157   0.58362   0.82607   0.00000  Uiso   1.00
H865   H     0.36341   0.61659   0.78630   0.00000  Uiso   1.00
H866   H     0.33661   0.61292   0.84425   0.00000  Uiso   1.00
H867   H     0.61778   0.55493   0.79853   0.00000  Uiso   1.00
H868   H     0.65703   0.51487   0.83161   0.00000  Uiso   1.00
O869   O     0.79642   0.57952   0.75299   0.00000  Uiso   1.00
O870   O     0.87025   0.42048   0.74701   0.00000  Uiso   1.00
O871   O     0.89280   0.57054   0.74519   0.00000  Uiso   1.00
O872   O     0.77387   0.42946   0.75481   0.00000  Uiso   1.00
C873   C     0.84809   0.59793   0.74929   0.00000  Uiso   1.00
C874   C     0.81858   0.40207   0.75071   0.00000  Uiso   1.00
O875   O     0.78514   0.50450   0.81997   0.00000  Uiso   1.00
O876   O     0.88153   0.49550   0.68003   0.00000  Uiso   1.00
O877   O     0.88152   0.49552   0.81218   0.00000  Uiso   1.00
O878   O     0.78515   0.50448   0.68783   0.00000  Uiso   1.00
C879   C     0.83381   0.50012   0.83618   0.00000  Uiso   1.00
C880   C     0.83286   0.49988   0.66382   0.00000  Uiso   1.00
Zn881  Zn    0.76898   0.50600   0.75521   0.00000  Uiso   1.00
Zn882  Zn    0.89769   0.49400   0.74479   0.00000  Uiso   1.00
C883   C     0.80597   0.45872   0.59293   0.00000  Uiso   1.00
C884   C     0.86070   0.54128   0.90707   0.00000  Uiso   1.00
C885   C     0.83178   0.50062   0.61626   0.00000  Uiso   1.00
C886   C     0.83489   0.49938   0.88374   0.00000  Uiso   1.00
C887   C     0.85701   0.54306   0.59460   0.00000  Uiso   1.00
C888   C     0.80966   0.45694   0.90540   0.00000  Uiso   1.00
C889   C     0.85610   0.54468   0.54793   0.00000  Uiso   1.00
C890   C     0.81056   0.45533   0.95207   0.00000  Uiso   1.00
C891   C     0.83245   0.50067   0.52351   0.00000  Uiso   1.00
C892   C     0.83421   0.49933   0.97649   0.00000  Uiso   1.00
C893   C     0.80715   0.45785   0.54626   0.00000  Uiso   1.00
C894   C     0.85952   0.54215   0.95374   0.00000  Uiso   1.00
C895   C     0.87963   0.58807   0.52492   0.00000  Uiso   1.00
C896   C     0.78704   0.41193   0.97508   0.00000  Uiso   1.00
C897   C     0.88204   0.58576   0.97778   0.00000  Uiso   1.00
C898   C     0.78462   0.41424   0.52222   0.00000  Uiso   1.00
H899   H     0.78676   0.42625   0.61111   0.00000  Uiso   1.00
H900   H     0.87990   0.57375   0.88889   0.00000  Uiso   1.00
H901   H     0.87743   0.57413   0.61458   0.00000  Uiso   1.00
H902   H     0.78923   0.42587   0.88542   0.00000  Uiso   1.00
H903   H     0.90004   0.61885   0.95987   0.00000  Uiso   1.00
H904   H     0.76662   0.38115   0.54013   0.00000  Uiso   1.00
C905   C     0.85583   0.65240   0.75034   0.00000  Uiso   1.00
C906   C     0.81083   0.34760   0.74966   0.00000  Uiso   1.00
H907   H     0.89848   0.33554   0.75239   0.00000  Uiso   1.00
H908   H     0.76819   0.66446   0.74760   0.00000  Uiso   1.00
N909   N     0.98344   0.48598   0.73783   0.00000  Uiso   1.00
N910   N     0.68322   0.51402   0.76217   0.00000  Uiso   1.00
N911   N     0.89945   0.63516   0.54862   0.00000  Uiso   1.00
O912   O     0.86748   0.65748   0.58111   0.00000  Uiso   1.00
O913   O     0.94400   0.66096   0.53229   0.00000  Uiso   1.00
N914   N     0.76721   0.36484   0.95138   0.00000  Uiso   1.00
O915   O     0.79918   0.34252   0.91889   0.00000  Uiso   1.00
O916   O     0.72266   0.33905   0.96771   0.00000  Uiso   1.00
C917   C     0.67409   0.45891   0.69688   0.00000  Uiso   1.00
C918   C     0.97385   0.40871   0.68462   0.00000  Uiso   1.00
H919   H     0.96995   0.38339   0.71369   0.00000  Uiso   1.00
H920   H     0.93175   0.41638   0.67395   0.00000  Uiso   1.00
H921   H     0.99671   0.38710   0.65572   0.00000  Uiso   1.00
H922   H     0.67631   0.48514   0.66839   0.00000  Uiso   1.00
H923   H     0.71556   0.44507   0.70146   0.00000  Uiso   1.00
C924   C     0.99258   0.54109   0.80312   0.00000  Uiso   1.00
C925   C     0.69282   0.59129   0.81537   0.00000  Uiso   1.00
H926   H     0.73491   0.58362   0.82607   0.00000  Uiso   1.00
H927   H     0.69675   0.61659   0.78630   0.00000  Uiso   1.00
H928   H     0.66994   0.61292   0.84425   0.00000  Uiso   1.00
H929   H     0.95111   0.55493   0.79853   0.00000  Uiso   1.00
H930   H     0.99036   0.51487   0.83161   0.00000  Uiso   1.00
O931   O     0.12975   0.91286   0.75299   0.00000  Uiso   1.00
O932   O     0.20358   0.75381   0.74701   0.00000  Uiso   1.00
O933   O     0.22613   0.90387   0.74519   0.00000  Uiso   1.00
O934   O     0.10720   0.76279   0.75481   0.00000  Uiso   1.00
C935   C     0.18142   0.93127   0.74929   0.00000  Uiso   1.00
C936   C     0.15191   0.73540   0.75071   0.00000  Uiso   1.00
O937   O     0.11847   0.83784   0.81997   0.00000  Uiso   1.00
O938   O     0.21486   0.82883   0.68003   0.00000  Uiso   1.00
O939   O     0.21485   0.82885   0.81218   0.00000  Uiso   1.00
O940   O     0.11848   0.83781   0.68783   0.00000  Uiso   1.00
C941   C     0.16714   0.83345   0.83618   0.00000  Uiso   1.00
C942   C     0.16619   0.83321   0.66382   0.00000  Uiso   1.00
Zn943  Zn    0.10231   0.83933   0.75521   0.00000  Uiso   1.00
Zn944  Zn    0.23102   0.82734   0.74479   0.00000  Uiso   1.00
C945   C     0.13930   0.79206   0.59293   0.00000  Uiso   1.00
C946   C     0.19403   0.87461   0.90707   0.00000  Uiso   1.00
C947   C     0.16511   0.83395   0.61626   0.00000  Uiso   1.00
C948   C     0.16822   0.83271   0.88374   0.00000  Uiso   1.00
C949   C     0.19034   0.87639   0.59460   0.00000  Uiso   1.00
C950   C     0.14299   0.79027   0.90540   0.00000  Uiso   1.00
C951   C     0.18944   0.87801   0.54793   0.00000  Uiso   1.00
C952   C     0.14390   0.78866   0.95207   0.00000  Uiso   1.00
C953   C     0.16578   0.83401   0.52351   0.00000  Uiso   1.00
C954   C     0.16755   0.83266   0.97649   0.00000  Uiso   1.00
C955   C     0.14048   0.79118   0.54626   0.00000  Uiso   1.00
C956   C     0.19285   0.87549   0.95374   0.00000  Uiso   1.00
C957   C     0.21296   0.92141   0.52492   0.00000  Uiso   1.00
C958   C     0.12037   0.74526   0.97508   0.00000  Uiso   1.00
C959   C     0.21537   0.91910   0.97778   0.00000  Uiso   1.00
C960   C     0.11796   0.74757   0.52222   0.00000  Uiso   1.00
H961   H     0.12010   0.75958   0.61111   0.00000  Uiso   1.00
H962   H     0.21324   0.90709   0.88889   0.00000  Uiso   1.00
H963   H     0.21076   0.90746   0.61458   0.00000  Uiso   1.00
H964   H     0.12257   0.75921   0.88542   0.00000  Uiso   1.00
H965   H     0.23337   0.95219   0.95987   0.00000  Uiso   1.00
H966   H     0.09996   0.71448   0.54013   0.00000  Uiso   1.00
C967   C     0.18917   0.98573   0.75034   0.00000  Uiso   1.00
C968   C     0.14417   0.68093   0.74966   0.00000  Uiso   1.00
H969   H     0.23182   0.66887   0.75239   0.00000  Uiso   1.00
H970   H     0.10152   0.99780   0.74760   0.00000  Uiso   1.00
N971   N     0.31678   0.81932   0.73783   0.00000  Uiso   1.00
N972   N     0.01656   0.84735   0.76217   0.00000  Uiso   1.00
N973   N     0.23278   0.96850   0.54862   0.00000  Uiso   1.00
O974   O     0.20081   0.99081   0.58111   0.00000  Uiso   1.00
O975   O     0.27733   0.99429   0.53229   0.00000  Uiso   1.00
N976   N     0.10054   0.69817   0.95138   0.00000  Uiso   1.00
O977   O     0.13252   0.67585   0.91889   0.00000  Uiso   1.00
O978   O     0.05599   0.67238   0.96771   0.00000  Uiso   1.00
C979   C     0.00742   0.79224   0.69688   0.00000  Uiso   1.00
C980   C     0.30718   0.74204   0.68462   0.00000  Uiso   1.00
H981   H     0.30328   0.71673   0.71369   0.00000  Uiso   1.00
H982   H     0.26508   0.74971   0.67395   0.00000  Uiso   1.00
H983   H     0.33005   0.72043   0.65572   0.00000  Uiso   1.00
H984   H     0.00964   0.81847   0.66839   0.00000  Uiso   1.00
H985   H     0.04889   0.77840   0.70146   0.00000  Uiso   1.00
C986   C     0.32591   0.87443   0.80312   0.00000  Uiso   1.00
C987   C     0.02615   0.92463   0.81537   0.00000  Uiso   1.00
H988   H     0.06824   0.91695   0.82607   0.00000  Uiso   1.00
H989   H     0.03008   0.94993   0.78630   0.00000  Uiso   1.00
H990   H     0.00328   0.94626   0.84425   0.00000  Uiso   1.00
H991   H     0.28444   0.88826   0.79853   0.00000  Uiso   1.00
H992   H     0.32370   0.84820   0.83161   0.00000  Uiso   1.00
O993   O     0.46308   0.91286   0.75299   0.00000  Uiso   1.00
O994   O     0.53692   0.75381   0.74701   0.00000  Uiso   1.00
O995   O     0.55946   0.90387   0.74519   0.00000  Uiso   1.00
O996   O     0.44054   0.76279   0.75481   0.00000  Uiso   1.00
C997   C     0.51475   0.93127   0.74929   0.00000  Uiso   1.00
C998   C     0.48525   0.73540   0.75071   0.00000  Uiso   1.00
O999   O     0.45181   0.83784   0.81997   0.00000  Uiso   1.00
O1000  O     0.54819   0.82883   0.68003   0.00000  Uiso   1.00
O1001  O     0.54819   0.82885   0.81218   0.00000  Uiso   1.00
O1002  O     0.45181   0.83781   0.68783   0.00000  Uiso   1.00
C1003  C     0.50047   0.83345   0.83618   0.00000  Uiso   1.00
C1004  C     0.49953   0.83321   0.66382   0.00000  Uiso   1.00
Zn1005 Zn    0.43565   0.83933   0.75521   0.00000  Uiso   1.00
Zn1006 Zn    0.56435   0.82734   0.74479   0.00000  Uiso   1.00
C1007  C     0.47264   0.79206   0.59293   0.00000  Uiso   1.00
C1008  C     0.52736   0.87461   0.90707   0.00000  Uiso   1.00
C1009  C     0.49845   0.83395   0.61626   0.00000  Uiso   1.00
C1010  C     0.50155   0.83271   0.88374   0.00000  Uiso   1.00
C1011  C     0.52368   0.87639   0.59460   0.00000  Uiso   1.00
C1012  C     0.47632   0.79027   0.90540   0.00000  Uiso   1.00
C1013  C     0.52277   0.87801   0.54793   0.00000  Uiso   1.00
C1014  C     0.47723   0.78866   0.95207   0.00000  Uiso   1.00
C1015  C     0.49912   0.83401   0.52351   0.00000  Uiso   1.00
C1016  C     0.50088   0.83266   0.97649   0.00000  Uiso   1.00
C1017  C     0.47381   0.79118   0.54626   0.00000  Uiso   1.00
C1018  C     0.52619   0.87549   0.95374   0.00000  Uiso   1.00
C1019  C     0.54629   0.92141   0.52492   0.00000  Uiso   1.00
C1020  C     0.45370   0.74526   0.97508   0.00000  Uiso   1.00
C1021  C     0.54871   0.91910   0.97778   0.00000  Uiso   1.00
C1022  C     0.45129   0.74757   0.52222   0.00000  Uiso   1.00
H1023  H     0.45343   0.75958   0.61111   0.00000  Uiso   1.00
H1024  H     0.54657   0.90709   0.88889   0.00000  Uiso   1.00
H1025  H     0.54410   0.90746   0.61458   0.00000  Uiso   1.00
H1026  H     0.45590   0.75921   0.88542   0.00000  Uiso   1.00
H1027  H     0.56671   0.95219   0.95987   0.00000  Uiso   1.00
H1028  H     0.43329   0.71448   0.54013   0.00000  Uiso   1.00
C1029  C     0.52250   0.98573   0.75034   0.00000  Uiso   1.00
C1030  C     0.47750   0.68093   0.74966   0.00000  Uiso   1.00
H1031  H     0.56515   0.66887   0.75239   0.00000  Uiso   1.00
H1032  H     0.43485   0.99780   0.74760   0.00000  Uiso   1.00
N1033  N     0.65011   0.81932   0.73783   0.00000  Uiso   1.00
N1034  N     0.34989   0.84735   0.76217   0.00000  Uiso   1.00
N1035  N     0.56612   0.96850   0.54862   0.00000  Uiso   1.00
O1036  O     0.53414   0.99081   0.58111   0.00000  Uiso   1.00
O1037  O     0.61067   0.99429   0.53229   0.00000  Uiso   1.00
N1038  N     0.43388   0.69817   0.95138   0.00000  Uiso   1.00
O1039  O     0.46585   0.67585   0.91889   0.00000  Uiso   1.00
O1040  O     0.38932   0.67238   0.96771   0.00000  Uiso   1.00
C1041  C     0.34075   0.79224   0.69688   0.00000  Uiso   1.00
C1042  C     0.64052   0.74204   0.68462   0.00000  Uiso   1.00
H1043  H     0.63661   0.71673   0.71369   0.00000  Uiso   1.00
H1044  H     0.59842   0.74971   0.67395   0.00000  Uiso   1.00
H1045  H     0.66338   0.72043   0.65572   0.00000  Uiso   1.00
H1046  H     0.34297   0.81847   0.66839   0.00000  Uiso   1.00
H1047  H     0.38222   0.77840   0.70146   0.00000  Uiso   1.00
C1048  C     0.65925   0.87443   0.80312   0.00000  Uiso   1.00
C1049  C     0.35948   0.92463   0.81537   0.00000  Uiso   1.00
H1050  H     0.40157   0.91695   0.82607   0.00000  Uiso   1.00
H1051  H     0.36341   0.94993   0.78630   0.00000  Uiso   1.00
H1052  H     0.33661   0.94626   0.84425   0.00000  Uiso   1.00
H1053  H     0.61778   0.88826   0.79853   0.00000  Uiso   1.00
H1054  H     0.65703   0.84820   0.83161   0.00000  Uiso   1.00
O1055  O     0.79642   0.91286   0.75299   0.00000  Uiso   1.00
O1056  O     0.87025   0.75381   0.74701   0.00000  Uiso   1.00
O1057  O     0.89280   0.90387   0.74519   0.00000  Uiso   1.00
O1058  O     0.77387   0.76279   0.75481   0.00000  Uiso   1.00
C1059  C     0.84809   0.93127   0.74929   0.00000  Uiso   1.00
C1060  C     0.81858   0.73540   0.75071   0.00000  Uiso   1.00
O1061  O     0.78514   0.83784   0.81997   0.00000  Uiso   1.00
O1062  O     0.88153   0.82883   0.68003   0.00000  Uiso   1.00
O1063  O     0.88152   0.82885   0.81218   0.00000  Uiso   1.00
O1064  O     0.78515   0.83781   0.68783   0.00000  Uiso   1.00
C1065  C     0.83381   0.83345   0.83618   0.00000  Uiso   1.00
C1066  C     0.83286   0.83321   0.66382   0.00000  Uiso   1.00
Zn1067 Zn    0.76898   0.83933   0.75521   0.00000  Uiso   1.00
Zn1068 Zn    0.89769   0.82734   0.74479   0.00000  Uiso   1.00
C1069  C     0.80597   0.79206   0.59293   0.00000  Uiso   1.00
C1070  C     0.86070   0.87461   0.90707   0.00000  Uiso   1.00
C1071  C     0.83178   0.83395   0.61626   0.00000  Uiso   1.00
C1072  C     0.83489   0.83271   0.88374   0.00000  Uiso   1.00
C1073  C     0.85701   0.87639   0.59460   0.00000  Uiso   1.00
C1074  C     0.80966   0.79027   0.90540   0.00000  Uiso   1.00
C1075  C     0.85610   0.87801   0.54793   0.00000  Uiso   1.00
C1076  C     0.81056   0.78866   0.95207   0.00000  Uiso   1.00
C1077  C     0.83245   0.83401   0.52351   0.00000  Uiso   1.00
C1078  C     0.83421   0.83266   0.97649   0.00000  Uiso   1.00
C1079  C     0.80715   0.79118   0.54626   0.00000  Uiso   1.00
C1080  C     0.85952   0.87549   0.95374   0.00000  Uiso   1.00
C1081  C     0.87963   0.92141   0.52492   0.00000  Uiso   1.00
C1082  C     0.78704   0.74526   0.97508   0.00000  Uiso   1.00
C1083  C     0.88204   0.91910   0.97778   0.00000  Uiso   1.00
C1084  C     0.78462   0.74757   0.52222   0.00000  Uiso   1.00
H1085  H     0.78676   0.75958   0.61111   0.00000  Uiso   1.00
H1086  H     0.87990   0.90709   0.88889   0.00000  Uiso   1.00
H1087  H     0.87743   0.90746   0.61458   0.00000  Uiso   1.00
H1088  H     0.78923   0.75921   0.88542   0.00000  Uiso   1.00
H1089  H     0.90004   0.95219   0.95987   0.00000  Uiso   1.00
H1090  H     0.76662   0.71448   0.54013   0.00000  Uiso   1.00
C1091  C     0.85583   0.98573   0.75034   0.00000  Uiso   1.00
C1092  C     0.81083   0.68093   0.74966   0.00000  Uiso   1.00
H1093  H     0.89848   0.66887   0.75239   0.00000  Uiso   1.00
H1094  H     0.76819   0.99780   0.74760   0.00000  Uiso   1.00
N1095  N     0.98344   0.81932   0.73783   0.00000  Uiso   1.00
N1096  N     0.68322   0.84735   0.76217   0.00000  Uiso   1.00
N1097  N     0.89945   0.96850   0.54862   0.00000  Uiso   1.00
O1098  O     0.86748   0.99081   0.58111   0.00000  Uiso   1.00
O1099  O     0.94400   0.99429   0.53229   0.00000  Uiso   1.00
N1100  N     0.76721   0.69817   0.95138   0.00000  Uiso   1.00
O1101  O     0.79918   0.67585   0.91889   0.00000  Uiso   1.00
O1102  O     0.72266   0.67238   0.96771   0.00000  Uiso   1.00
C1103  C     0.67409   0.79224   0.69688   0.00000  Uiso   1.00
C1104  C     0.97385   0.74204   0.68462   0.00000  Uiso   1.00
H1105  H     0.96995   0.71673   0.71369   0.00000  Uiso   1.00
H1106  H     0.93175   0.74971   0.67395   0.00000  Uiso   1.00
H1107  H     0.99671   0.72043   0.65572   0.00000  Uiso   1.00
H1108  H     0.67631   0.81847   0.66839   0.00000  Uiso   1.00
H1109  H     0.71556   0.77840   0.70146   0.00000  Uiso   1.00
C1110  C     0.99258   0.87443   0.80312   0.00000  Uiso   1.00
C1111  C     0.69282   0.92463   0.81537   0.00000  Uiso   1.00
H1112  H     0.73491   0.91695   0.82607   0.00000  Uiso   1.00
H1113  H     0.69675   0.94993   0.78630   0.00000  Uiso   1.00
H1114  H     0.66994   0.94626   0.84425   0.00000  Uiso   1.00
H1115  H     0.95111   0.88826   0.79853   0.00000  Uiso   1.00
H1116  H     0.99036   0.84820   0.83161   0.00000  Uiso   1.00
loop_
_geom_bond_atom_site_label_1
_geom_bond_atom_site_label_2
_geom_bond_distance
_geom_bond_site_symmetry_2
_ccdc_geom_bond_type
O1     C5      1.296   .     A
O1     Zn13    1.971   .     S
O2     C6      1.296   .     A
O2     Zn14    1.971   .     S
O3     Zn14    1.972   .     S
O3     C5      1.295   .     A
O4     C6      1.295   .     A
O4     Zn13    1.972   .     S
C5     C37     1.400   .     S
C6     C38     1.400   .     S
O7     C11     1.300   .     A
O7     Zn13    1.993   .     S
O8     C12     1.300   .     A
O8     Zn14    1.993   .     S
O9     Zn14    2.007   .     S
O9     C11     1.299   .     A
O10    C12     1.299   .     A
O10    Zn13    2.007   .     S
C11    C18     1.416   .     S
C12    C17     1.416   .     S
Zn13   N42     2.053   .     S
Zn14   N41     2.053   .     S
C15    H31     1.086   .     S
C15    C25     1.383   .     A
C15    C17     1.387   .     A
C16    H32     1.086   .     S
C16    C26     1.383   .     A
C16    C18     1.387   .     A
C17    C19     1.389   .     A
C18    C20     1.389   .     A
C19    H33     1.083   .     S
C19    C21     1.391   .     A
C20    H34     1.083   .     S
C20    C22     1.391   .     A
C21    C27     1.415   .     A
C21    C23     1.420   .     A
C22    C28     1.415   .     A
C22    C24     1.420   .     A
C23    C25     1.413   .     A
C23    C582    1.392   1_554 S
C24    C26     1.413   .     A
C24    C581    1.392   .     S
C25    C30     1.397   .     A
C26    C29     1.397   .     A
C27    N43     1.438   .     S
C27    C587    1.394   1_554 S
C28    N46     1.438   .     S
C28    C588    1.394   .     S
C29    H35     1.085   .     S
C29    C585    1.394   .     S
C30    H36     1.085   .     S
C30    C586    1.394   1_554 S
C37    C224    1.327   .     S
C37    H225    1.086   .     S
C38    C409    1.327   1_545 S
C38    H412    1.086   1_545 S
H39    C409    1.086   1_545 S
H40    C224    1.086   .     S
N41    N104    1.277   .     S
N41    C111    1.452   .     S
N42    N165    1.277   1_455 S
N42    C180    1.452   1_455 S
N43    O45     1.301   .     A
N43    O44     1.301   .     A
N46    O48     1.301   .     A
N46    O47     1.301   .     A
C49    H54     1.111   .     S
C49    H55     1.085   .     S
C49    N165    1.452   1_455 S
C49    C174    1.523   1_455 S
C50    H52     1.103   .     S
C50    H51     1.109   .     S
C50    H53     1.111   .     S
C50    C111    1.523   .     S
C56    H62     1.111   .     S
C56    H61     1.085   .     S
C56    N104    1.452   .     S
C56    C119    1.523   .     S
C57    H58     1.103   .     S
C57    H59     1.109   .     S
C57    H60     1.111   .     S
C57    C180    1.523   1_455 S
O63    C67     1.296   .     A
O63    Zn75    1.971   .     S
O64    C68     1.296   .     A
O64    Zn76    1.971   .     S
O65    Zn76    1.972   .     S
O65    C67     1.295   .     A
O66    C68     1.295   .     A
O66    Zn75    1.972   .     S
C67    C99     1.400   .     S
C68    C100    1.400   .     S
O69    C73     1.300   .     A
O69    Zn75    1.993   .     S
O70    C74     1.300   .     A
O70    Zn76    1.993   .     S
O71    Zn76    2.007   .     S
O71    C73     1.299   .     A
O72    C74     1.299   .     A
O72    Zn75    2.007   .     S
C73    C80     1.416   .     S
C74    C79     1.416   .     S
Zn75   N104    2.053   .     S
Zn76   N103    2.053   .     S
C77    H93     1.086   .     S
C77    C87     1.383   .     A
C77    C79     1.387   .     A
C78    H94     1.086   .     S
C78    C88     1.383   .     A
C78    C80     1.387   .     A
C79    C81     1.389   .     A
C80    C82     1.389   .     A
C81    H95     1.083   .     S
C81    C83     1.391   .     A
C82    H96     1.083   .     S
C82    C84     1.391   .     A
C83    C89     1.415   .     A
C83    C85     1.420   .     A
C84    C90     1.415   .     A
C84    C86     1.420   .     A
C85    C87     1.413   .     A
C85    C644    1.392   1_554 S
C86    C88     1.413   .     A
C86    C643    1.392   .     S
C87    C92     1.397   .     A
C88    C91     1.397   .     A
C89    N105    1.438   .     S
C89    C649    1.394   1_554 S
C90    N108    1.438   .     S
C90    C650    1.394   .     S
C91    H97     1.085   .     S
C91    C647    1.394   .     S
C92    H98     1.085   .     S
C92    C648    1.394   1_554 S
C99    C286    1.327   .     S
C99    H287    1.086   .     S
C100   C471    1.327   1_545 S
C100   H474    1.086   1_545 S
H101   C471    1.086   1_545 S
H102   C286    1.086   .     S
N103   N166    1.277   .     S
N103   C173    1.452   .     S
N105   O107    1.301   .     A
N105   O106    1.301   .     A
N108   O110    1.301   .     A
N108   O109    1.301   .     A
C111   H116    1.111   .     S
C111   H117    1.085   .     S
C112   H114    1.103   .     S
C112   H113    1.109   .     S
C112   H115    1.111   .     S
C112   C173    1.523   .     S
C118   H124    1.111   .     S
C118   H123    1.085   .     S
C118   N166    1.452   .     S
C118   C181    1.523   .     S
C119   H120    1.103   .     S
C119   H121    1.109   .     S
C119   H122    1.111   .     S
O125   C129    1.296   .     A
O125   Zn137   1.971   .     S
O126   C130    1.296   .     A
O126   Zn138   1.971   .     S
O127   Zn138   1.972   .     S
O127   C129    1.295   .     A
O128   C130    1.295   .     A
O128   Zn137   1.972   .     S
C129   C161    1.400   .     S
C130   C162    1.400   .     S
O131   C135    1.300   .     A
O131   Zn137   1.993   .     S
O132   C136    1.300   .     A
O132   Zn138   1.993   .     S
O133   Zn138   2.007   .     S
O133   C135    1.299   .     A
O134   C136    1.299   .     A
O134   Zn137   2.007   .     S
C135   C142    1.416   .     S
C136   C141    1.416   .     S
Zn137  N166    2.053   .     S
Zn138  N165    2.053   .     S
C139   H155    1.086   .     S
C139   C149    1.383   .     A
C139   C141    1.387   .     A
C140   H156    1.086   .     S
C140   C150    1.383   .     A
C140   C142    1.387   .     A
C141   C143    1.389   .     A
C142   C144    1.389   .     A
C143   H157    1.083   .     S
C143   C145    1.391   .     A
C144   H158    1.083   .     S
C144   C146    1.391   .     A
C145   C151    1.415   .     A
C145   C147    1.420   .     A
C146   C152    1.415   .     A
C146   C148    1.420   .     A
C147   C149    1.413   .     A
C147   C706    1.392   1_554 S
C148   C150    1.413   .     A
C148   C705    1.392   .     S
C149   C154    1.397   .     A
C150   C153    1.397   .     A
C151   N167    1.438   .     S
C151   C711    1.394   1_554 S
C152   N170    1.438   .     S
C152   C712    1.394   .     S
C153   H159    1.085   .     S
C153   C709    1.394   .     S
C154   H160    1.085   .     S
C154   C710    1.394   1_554 S
C161   C348    1.327   .     S
C161   H349    1.086   .     S
C162   C533    1.327   1_545 S
C162   H536    1.086   1_545 S
H163   C533    1.086   1_545 S
H164   C348    1.086   .     S
N165   N42     1.277   1_655 S
N165   C49     1.452   1_655 S
N167   O169    1.301   .     A
N167   O168    1.301   .     A
N170   O172    1.301   .     A
N170   O171    1.301   .     A
C173   H178    1.111   .     S
C173   H179    1.085   .     S
C174   H176    1.103   .     S
C174   H175    1.109   .     S
C174   H177    1.111   .     S
C174   C49     1.523   1_655 S
C180   H186    1.111   .     S
C180   H185    1.085   .     S
C180   N42     1.452   1_655 S
C180   C57     1.523   1_655 S
C181   H182    1.103   .     S
C181   H183    1.109   .     S
C181   H184    1.111   .     S
O187   C191    1.296   .     A
O187   Zn199   1.971   .     S
O188   C192    1.296   .     A
O188   Zn200   1.971   .     S
O189   Zn200   1.972   .     S
O189   C191    1.295   .     A
O190   C192    1.295   .     A
O190   Zn199   1.972   .     S
C191   C223    1.400   .     S
C192   C224    1.400   .     S
O193   C197    1.300   .     A
O193   Zn199   1.993   .     S
O194   C198    1.300   .     A
O194   Zn200   1.993   .     S
O195   Zn200   2.007   .     S
O195   C197    1.299   .     A
O196   C198    1.299   .     A
O196   Zn199   2.007   .     S
C197   C204    1.416   .     S
C198   C203    1.416   .     S
Zn199  N228    2.053   .     S
Zn200  N227    2.053   .     S
C201   H217    1.086   .     S
C201   C211    1.383   .     A
C201   C203    1.387   .     A
C202   H218    1.086   .     S
C202   C212    1.383   .     A
C202   C204    1.387   .     A
C203   C205    1.389   .     A
C204   C206    1.389   .     A
C205   H219    1.083   .     S
C205   C207    1.391   .     A
C206   H220    1.083   .     S
C206   C208    1.391   .     A
C207   C213    1.415   .     A
C207   C209    1.420   .     A
C208   C214    1.415   .     A
C208   C210    1.420   .     A
C209   C211    1.413   .     A
C209   C768    1.392   1_554 S
C210   C212    1.413   .     A
C210   C767    1.392   .     S
C211   C216    1.397   .     A
C212   C215    1.397   .     A
C213   N229    1.438   .     S
C213   C773    1.394   1_554 S
C214   N232    1.438   .     S
C214   C774    1.394   .     S
C215   H221    1.085   .     S
C215   C771    1.394   .     S
C216   H222    1.085   .     S
C216   C772    1.394   1_554 S
C223   C410    1.327   .     S
C223   H411    1.086   .     S
H226   C410    1.086   .     S
N227   N290    1.277   .     S
N227   C297    1.452   .     S
N228   N351    1.277   1_455 S
N228   C366    1.452   1_455 S
N229   O231    1.301   .     A
N229   O230    1.301   .     A
N232   O234    1.301   .     A
N232   O233    1.301   .     A
C235   H240    1.111   .     S
C235   H241    1.085   .     S
C235   N351    1.452   1_455 S
C235   C360    1.523   1_455 S
C236   H238    1.103   .     S
C236   H237    1.109   .     S
C236   H239    1.111   .     S
C236   C297    1.523   .     S
C242   H248    1.111   .     S
C242   H247    1.085   .     S
C242   N290    1.452   .     S
C242   C305    1.523   .     S
C243   H244    1.103   .     S
C243   H245    1.109   .     S
C243   H246    1.111   .     S
C243   C366    1.523   1_455 S
O249   C253    1.296   .     A
O249   Zn261   1.971   .     S
O250   C254    1.296   .     A
O250   Zn262   1.971   .     S
O251   Zn262   1.972   .     S
O251   C253    1.295   .     A
O252   C254    1.295   .     A
O252   Zn261   1.972   .     S
C253   C285    1.400   .     S
C254   C286    1.400   .     S
O255   C259    1.300   .     A
O255   Zn261   1.993   .     S
O256   C260    1.300   .     A
O256   Zn262   1.993   .     S
O257   Zn262   2.007   .     S
O257   C259    1.299   .     A
O258   C260    1.299   .     A
O258   Zn261   2.007   .     S
C259   C266    1.416   .     S
C260   C265    1.416   .     S
Zn261  N290    2.053   .     S
Zn262  N289    2.053   .     S
C263   H279    1.086   .     S
C263   C273    1.383   .     A
C263   C265    1.387   .     A
C264   H280    1.086   .     S
C264   C274    1.383   .     A
C264   C266    1.387   .     A
C265   C267    1.389   .     A
C266   C268    1.389   .     A
C267   H281    1.083   .     S
C267   C269    1.391   .     A
C268   H282    1.083   .     S
C268   C270    1.391   .     A
C269   C275    1.415   .     A
C269   C271    1.420   .     A
C270   C276    1.415   .     A
C270   C272    1.420   .     A
C271   C273    1.413   .     A
C271   C830    1.392   1_554 S
C272   C274    1.413   .     A
C272   C829    1.392   .     S
C273   C278    1.397   .     A
C274   C277    1.397   .     A
C275   N291    1.438   .     S
C275   C835    1.394   1_554 S
C276   N294    1.438   .     S
C276   C836    1.394   .     S
C277   H283    1.085   .     S
C277   C833    1.394   .     S
C278   H284    1.085   .     S
C278   C834    1.394   1_554 S
C285   C472    1.327   .     S
C285   H473    1.086   .     S
H288   C472    1.086   .     S
N289   N352    1.277   .     S
N289   C359    1.452   .     S
N291   O293    1.301   .     A
N291   O292    1.301   .     A
N294   O296    1.301   .     A
N294   O295    1.301   .     A
C297   H302    1.111   .     S
C297   H303    1.085   .     S
C298   H300    1.103   .     S
C298   H299    1.109   .     S
C298   H301    1.111   .     S
C298   C359    1.523   .     S
C304   H310    1.111   .     S
C304   H309    1.085   .     S
C304   N352    1.452   .     S
C304   C367    1.523   .     S
C305   H306    1.103   .     S
C305   H307    1.109   .     S
C305   H308    1.111   .     S
O311   C315    1.296   .     A
O311   Zn323   1.971   .     S
O312   C316    1.296   .     A
O312   Zn324   1.971   .     S
O313   Zn324   1.972   .     S
O313   C315    1.295   .     A
O314   C316    1.295   .     A
O314   Zn323   1.972   .     S
C315   C347    1.400   .     S
C316   C348    1.400   .     S
O317   C321    1.300   .     A
O317   Zn323   1.993   .     S
O318   C322    1.300   .     A
O318   Zn324   1.993   .     S
O319   Zn324   2.007   .     S
O319   C321    1.299   .     A
O320   C322    1.299   .     A
O320   Zn323   2.007   .     S
C321   C328    1.416   .     S
C322   C327    1.416   .     S
Zn323  N352    2.053   .     S
Zn324  N351    2.053   .     S
C325   H341    1.086   .     S
C325   C335    1.383   .     A
C325   C327    1.387   .     A
C326   H342    1.086   .     S
C326   C336    1.383   .     A
C326   C328    1.387   .     A
C327   C329    1.389   .     A
C328   C330    1.389   .     A
C329   H343    1.083   .     S
C329   C331    1.391   .     A
C330   H344    1.083   .     S
C330   C332    1.391   .     A
C331   C337    1.415   .     A
C331   C333    1.420   .     A
C332   C338    1.415   .     A
C332   C334    1.420   .     A
C333   C335    1.413   .     A
C333   C892    1.392   1_554 S
C334   C336    1.413   .     A
C334   C891    1.392   .     S
C335   C340    1.397   .     A
C336   C339    1.397   .     A
C337   N353    1.438   .     S
C337   C897    1.394   1_554 S
C338   N356    1.438   .     S
C338   C898    1.394   .     S
C339   H345    1.085   .     S
C339   C895    1.394   .     S
C340   H346    1.085   .     S
C340   C896    1.394   1_554 S
C347   C534    1.327   .     S
C347   H535    1.086   .     S
H350   C534    1.086   .     S
N351   N228    1.277   1_655 S
N351   C235    1.452   1_655 S
N353   O355    1.301   .     A
N353   O354    1.301   .     A
N356   O358    1.301   .     A
N356   O357    1.301   .     A
C359   H364    1.111   .     S
C359   H365    1.085   .     S
C360   H362    1.103   .     S
C360   H361    1.109   .     S
C360   H363    1.111   .     S
C360   C235    1.523   1_655 S
C366   H372    1.111   .     S
C366   H371    1.085   .     S
C366   N228    1.452   1_655 S
C366   C243    1.523   1_655 S
C367   H368    1.103   .     S
C367   H369    1.109   .     S
C367   H370    1.111   .     S
O373   C377    1.296   .     A
O373   Zn385   1.971   .     S
O374   C378    1.296   .     A
O374   Zn386   1.971   .     S
O375   Zn386   1.972   .     S
O375   C377    1.295   .     A
O376   C378    1.295   .     A
O376   Zn385   1.972   .     S
C377   C409    1.400   .     S
C378   C410    1.400   .     S
O379   C383    1.300   .     A
O379   Zn385   1.993   .     S
O380   C384    1.300   .     A
O380   Zn386   1.993   .     S
O381   Zn386   2.007   .     S
O381   C383    1.299   .     A
O382   C384    1.299   .     A
O382   Zn385   2.007   .     S
C383   C390    1.416   .     S
C384   C389    1.416   .     S
Zn385  N414    2.053   .     S
Zn386  N413    2.053   .     S
C387   H403    1.086   .     S
C387   C397    1.383   .     A
C387   C389    1.387   .     A
C388   H404    1.086   .     S
C388   C398    1.383   .     A
C388   C390    1.387   .     A
C389   C391    1.389   .     A
C390   C392    1.389   .     A
C391   H405    1.083   .     S
C391   C393    1.391   .     A
C392   H406    1.083   .     S
C392   C394    1.391   .     A
C393   C399    1.415   .     A
C393   C395    1.420   .     A
C394   C400    1.415   .     A
C394   C396    1.420   .     A
C395   C397    1.413   .     A
C395   C954    1.392   1_554 S
C396   C398    1.413   .     A
C396   C953    1.392   .     S
C397   C402    1.397   .     A
C398   C401    1.397   .     A
C399   N415    1.438   .     S
C399   C959    1.394   1_554 S
C400   N418    1.438   .     S
C400   C960    1.394   .     S
C401   H407    1.085   .     S
C401   C957    1.394   .     S
C402   H408    1.085   .     S
C402   C958    1.394   1_554 S
C409   C38     1.327   1_565 S
C409   H39     1.086   1_565 S
H412   C38     1.086   1_565 S
N413   N476    1.277   .     S
N413   C483    1.452   .     S
N414   N537    1.277   1_455 S
N414   C552    1.452   1_455 S
N415   O417    1.301   .     A
N415   O416    1.301   .     A
N418   O420    1.301   .     A
N418   O419    1.301   .     A
C421   H426    1.111   .     S
C421   H427    1.085   .     S
C421   N537    1.452   1_455 S
C421   C546    1.523   1_455 S
C422   H424    1.103   .     S
C422   H423    1.109   .     S
C422   H425    1.111   .     S
C422   C483    1.523   .     S
C428   H434    1.111   .     S
C428   H433    1.085   .     S
C428   N476    1.452   .     S
C428   C491    1.523   .     S
C429   H430    1.103   .     S
C429   H431    1.109   .     S
C429   H432    1.111   .     S
C429   C552    1.523   1_455 S
O435   C439    1.296   .     A
O435   Zn447   1.971   .     S
O436   C440    1.296   .     A
O436   Zn448   1.971   .     S
O437   Zn448   1.972   .     S
O437   C439    1.295   .     A
O438   C440    1.295   .     A
O438   Zn447   1.972   .     S
C439   C471    1.400   .     S
C440   C472    1.400   .     S
O441   C445    1.300   .     A
O441   Zn447   1.993   .     S
O442   C446    1.300   .     A
O442   Zn448   1.993   .     S
O443   Zn448   2.007   .     S
O443   C445    1.299   .     A
O444   C446    1.299   .     A
O444   Zn447   2.007   .     S
C445   C452    1.416   .     S
C446   C451    1.416   .     S
Zn447  N476    2.053   .     S
Zn448  N475    2.053   .     S
C449   H465    1.086   .     S
C449   C459    1.383   .     A
C449   C451    1.387   .     A
C450   H466    1.086   .     S
C450   C460    1.383   .     A
C450   C452    1.387   .     A
C451   C453    1.389   .     A
C452   C454    1.389   .     A
C453   H467    1.083   .     S
C453   C455    1.391   .     A
C454   H468    1.083   .     S
C454   C456    1.391   .     A
C455   C461    1.415   .     A
C455   C457    1.420   .     A
C456   C462    1.415   .     A
C456   C458    1.420   .     A
C457   C459    1.413   .     A
C457   C1016   1.392   1_554 S
C458   C460    1.413   .     A
C458   C1015   1.392   .     S
C459   C464    1.397   .     A
C460   C463    1.397   .     A
C461   N477    1.438   .     S
C461   C1021   1.394   1_554 S
C462   N480    1.438   .     S
C462   C1022   1.394   .     S
C463   H469    1.085   .     S
C463   C1019   1.394   .     S
C464   H470    1.085   .     S
C464   C1020   1.394   1_554 S
C471   C100    1.327   1_565 S
C471   H101    1.086   1_565 S
H474   C100    1.086   1_565 S
N475   N538    1.277   .     S
N475   C545    1.452   .     S
N477   O479    1.301   .     A
N477   O478    1.301   .     A
N480   O482    1.301   .     A
N480   O481    1.301   .     A
C483   H488    1.111   .     S
C483   H489    1.085   .     S
C484   H486    1.103   .     S
C484   H485    1.109   .     S
C484   H487    1.111   .     S
C484   C545    1.523   .     S
C490   H496    1.111   .     S
C490   H495    1.085   .     S
C490   N538    1.452   .     S
C490   C553    1.523   .     S
C491   H492    1.103   .     S
C491   H493    1.109   .     S
C491   H494    1.111   .     S
O497   C501    1.296   .     A
O497   Zn509   1.971   .     S
O498   C502    1.296   .     A
O498   Zn510   1.971   .     S
O499   Zn510   1.972   .     S
O499   C501    1.295   .     A
O500   C502    1.295   .     A
O500   Zn509   1.972   .     S
C501   C533    1.400   .     S
C502   C534    1.400   .     S
O503   C507    1.300   .     A
O503   Zn509   1.993   .     S
O504   C508    1.300   .     A
O504   Zn510   1.993   .     S
O505   Zn510   2.007   .     S
O505   C507    1.299   .     A
O506   C508    1.299   .     A
O506   Zn509   2.007   .     S
C507   C514    1.416   .     S
C508   C513    1.416   .     S
Zn509  N538    2.053   .     S
Zn510  N537    2.053   .     S
C511   H527    1.086   .     S
C511   C521    1.383   .     A
C511   C513    1.387   .     A
C512   H528    1.086   .     S
C512   C522    1.383   .     A
C512   C514    1.387   .     A
C513   C515    1.389   .     A
C514   C516    1.389   .     A
C515   H529    1.083   .     S
C515   C517    1.391   .     A
C516   H530    1.083   .     S
C516   C518    1.391   .     A
C517   C523    1.415   .     A
C517   C519    1.420   .     A
C518   C524    1.415   .     A
C518   C520    1.420   .     A
C519   C521    1.413   .     A
C519   C1078   1.392   1_554 S
C520   C522    1.413   .     A
C520   C1077   1.392   .     S
C521   C526    1.397   .     A
C522   C525    1.397   .     A
C523   N539    1.438   .     S
C523   C1083   1.394   1_554 S
C524   N542    1.438   .     S
C524   C1084   1.394   .     S
C525   H531    1.085   .     S
C525   C1081   1.394   .     S
C526   H532    1.085   .     S
C526   C1082   1.394   1_554 S
C533   C162    1.327   1_565 S
C533   H163    1.086   1_565 S
H536   C162    1.086   1_565 S
N537   N414    1.277   1_655 S
N537   C421    1.452   1_655 S
N539   O541    1.301   .     A
N539   O540    1.301   .     A
N542   O544    1.301   .     A
N542   O543    1.301   .     A
C545   H550    1.111   .     S
C545   H551    1.085   .     S
C546   H548    1.103   .     S
C546   H547    1.109   .     S
C546   H549    1.111   .     S
C546   C421    1.523   1_655 S
C552   H558    1.111   .     S
C552   H557    1.085   .     S
C552   N414    1.452   1_655 S
C552   C429    1.523   1_655 S
C553   H554    1.103   .     S
C553   H555    1.109   .     S
C553   H556    1.111   .     S
O559   C563    1.296   .     A
O559   Zn571   1.971   .     S
O560   C564    1.296   .     A
O560   Zn572   1.971   .     S
O561   Zn572   1.972   .     S
O561   C563    1.295   .     A
O562   C564    1.295   .     A
O562   Zn571   1.972   .     S
C563   C595    1.400   .     S
C564   C596    1.400   .     S
O565   C569    1.300   .     A
O565   Zn571   1.993   .     S
O566   C570    1.300   .     A
O566   Zn572   1.993   .     S
O567   Zn572   2.007   .     S
O567   C569    1.299   .     A
O568   C570    1.299   .     A
O568   Zn571   2.007   .     S
C569   C576    1.416   .     S
C570   C575    1.416   .     S
Zn571  N600    2.053   .     S
Zn572  N599    2.053   .     S
C573   H589    1.086   .     S
C573   C583    1.383   .     A
C573   C575    1.387   .     A
C574   H590    1.086   .     S
C574   C584    1.383   .     A
C574   C576    1.387   .     A
C575   C577    1.389   .     A
C576   C578    1.389   .     A
C577   H591    1.083   .     S
C577   C579    1.391   .     A
C578   H592    1.083   .     S
C578   C580    1.391   .     A
C579   C585    1.415   .     A
C579   C581    1.420   .     A
C580   C586    1.415   .     A
C580   C582    1.420   .     A
C581   C583    1.413   .     A
C582   C584    1.413   .     A
C582   C23     1.392   1_556 S
C583   C588    1.397   .     A
C584   C587    1.397   .     A
C585   N601    1.438   .     S
C586   N604    1.438   .     S
C586   C30     1.394   1_556 S
C587   H593    1.085   .     S
C587   C27     1.394   1_556 S
C588   H594    1.085   .     S
C595   C782    1.327   .     S
C595   H783    1.086   .     S
C596   C967    1.327   1_545 S
C596   H970    1.086   1_545 S
H597   C967    1.086   1_545 S
H598   C782    1.086   .     S
N599   N662    1.277   .     S
N599   C669    1.452   .     S
N600   N723    1.277   1_455 S
N600   C738    1.452   1_455 S
N601   O603    1.301   .     A
N601   O602    1.301   .     A
N604   O606    1.301   .     A
N604   O605    1.301   .     A
C607   H612    1.111   .     S
C607   H613    1.085   .     S
C607   N723    1.452   1_455 S
C607   C732    1.523   1_455 S
C608   H610    1.103   .     S
C608   H609    1.109   .     S
C608   H611    1.111   .     S
C608   C669    1.523   .     S
C614   H620    1.111   .     S
C614   H619    1.085   .     S
C614   N662    1.452   .     S
C614   C677    1.523   .     S
C615   H616    1.103   .     S
C615   H617    1.109   .     S
C615   H618    1.111   .     S
C615   C738    1.523   1_455 S
O621   C625    1.296   .     A
O621   Zn633   1.971   .     S
O622   C626    1.296   .     A
O622   Zn634   1.971   .     S
O623   Zn634   1.972   .     S
O623   C625    1.295   .     A
O624   C626    1.295   .     A
O624   Zn633   1.972   .     S
C625   C657    1.400   .     S
C626   C658    1.400   .     S
O627   C631    1.300   .     A
O627   Zn633   1.993   .     S
O628   C632    1.300   .     A
O628   Zn634   1.993   .     S
O629   Zn634   2.007   .     S
O629   C631    1.299   .     A
O630   C632    1.299   .     A
O630   Zn633   2.007   .     S
C631   C638    1.416   .     S
C632   C637    1.416   .     S
Zn633  N662    2.053   .     S
Zn634  N661    2.053   .     S
C635   H651    1.086   .     S
C635   C645    1.383   .     A
C635   C637    1.387   .     A
C636   H652    1.086   .     S
C636   C646    1.383   .     A
C636   C638    1.387   .     A
C637   C639    1.389   .     A
C638   C640    1.389   .     A
C639   H653    1.083   .     S
C639   C641    1.391   .     A
C640   H654    1.083   .     S
C640   C642    1.391   .     A
C641   C647    1.415   .     A
C641   C643    1.420   .     A
C642   C648    1.415   .     A
C642   C644    1.420   .     A
C643   C645    1.413   .     A
C644   C646    1.413   .     A
C644   C85     1.392   1_556 S
C645   C650    1.397   .     A
C646   C649    1.397   .     A
C647   N663    1.438   .     S
C648   N666    1.438   .     S
C648   C92     1.394   1_556 S
C649   H655    1.085   .     S
C649   C89     1.394   1_556 S
C650   H656    1.085   .     S
C657   C844    1.327   .     S
C657   H845    1.086   .     S
C658   C1029   1.327   1_545 S
C658   H1032   1.086   1_545 S
H659   C1029   1.086   1_545 S
H660   C844    1.086   .     S
N661   N724    1.277   .     S
N661   C731    1.452   .     S
N663   O665    1.301   .     A
N663   O664    1.301   .     A
N666   O668    1.301   .     A
N666   O667    1.301   .     A
C669   H674    1.111   .     S
C669   H675    1.085   .     S
C670   H672    1.103   .     S
C670   H671    1.109   .     S
C670   H673    1.111   .     S
C670   C731    1.523   .     S
C676   H682    1.111   .     S
C676   H681    1.085   .     S
C676   N724    1.452   .     S
C676   C739    1.523   .     S
C677   H678    1.103   .     S
C677   H679    1.109   .     S
C677   H680    1.111   .     S
O683   C687    1.296   .     A
O683   Zn695   1.971   .     S
O684   C688    1.296   .     A
O684   Zn696   1.971   .     S
O685   Zn696   1.972   .     S
O685   C687    1.295   .     A
O686   C688    1.295   .     A
O686   Zn695   1.972   .     S
C687   C719    1.400   .     S
C688   C720    1.400   .     S
O689   C693    1.300   .     A
O689   Zn695   1.993   .     S
O690   C694    1.300   .     A
O690   Zn696   1.993   .     S
O691   Zn696   2.007   .     S
O691   C693    1.299   .     A
O692   C694    1.299   .     A
O692   Zn695   2.007   .     S
C693   C700    1.416   .     S
C694   C699    1.416   .     S
Zn695  N724    2.053   .     S
Zn696  N723    2.053   .     S
C697   H713    1.086   .     S
C697   C707    1.383   .     A
C697   C699    1.387   .     A
C698   H714    1.086   .     S
C698   C708    1.383   .     A
C698   C700    1.387   .     A
C699   C701    1.389   .     A
C700   C702    1.389   .     A
C701   H715    1.083   .     S
C701   C703    1.391   .     A
C702   H716    1.083   .     S
C702   C704    1.391   .     A
C703   C709    1.415   .     A
C703   C705    1.420   .     A
C704   C710    1.415   .     A
C704   C706    1.420   .     A
C705   C707    1.413   .     A
C706   C708    1.413   .     A
C706   C147    1.392   1_556 S
C707   C712    1.397   .     A
C708   C711    1.397   .     A
C709   N725    1.438   .     S
C710   N728    1.438   .     S
C710   C154    1.394   1_556 S
C711   H717    1.085   .     S
C711   C151    1.394   1_556 S
C712   H718    1.085   .     S
C719   C906    1.327   .     S
C719   H907    1.086   .     S
C720   C1091   1.327   1_545 S
C720   H1094   1.086   1_545 S
H721   C1091   1.086   1_545 S
H722   C906    1.086   .     S
N723   N600    1.277   1_655 S
N723   C607    1.452   1_655 S
N725   O727    1.301   .     A
N725   O726    1.301   .     A
N728   O730    1.301   .     A
N728   O729    1.301   .     A
C731   H736    1.111   .     S
C731   H737    1.085   .     S
C732   H734    1.103   .     S
C732   H733    1.109   .     S
C732   H735    1.111   .     S
C732   C607    1.523   1_655 S
C738   H744    1.111   .     S
C738   H743    1.085   .     S
C738   N600    1.452   1_655 S
C738   C615    1.523   1_655 S
C739   H740    1.103   .     S
C739   H741    1.109   .     S
C739   H742    1.111   .     S
O745   C749    1.296   .     A
O745   Zn757   1.971   .     S
O746   C750    1.296   .     A
O746   Zn758   1.971   .     S
O747   Zn758   1.972   .     S
O747   C749    1.295   .     A
O748   C750    1.295   .     A
O748   Zn757   1.972   .     S
C749   C781    1.400   .     S
C750   C782    1.400   .     S
O751   C755    1.300   .     A
O751   Zn757   1.993   .     S
O752   C756    1.300   .     A
O752   Zn758   1.993   .     S
O753   Zn758   2.007   .     S
O753   C755    1.299   .     A
O754   C756    1.299   .     A
O754   Zn757   2.007   .     S
C755   C762    1.416   .     S
C756   C761    1.416   .     S
Zn757  N786    2.053   .     S
Zn758  N785    2.053   .     S
C759   H775    1.086   .     S
C759   C769    1.383   .     A
C759   C761    1.387   .     A
C760   H776    1.086   .     S
C760   C770    1.383   .     A
C760   C762    1.387   .     A
C761   C763    1.389   .     A
C762   C764    1.389   .     A
C763   H777    1.083   .     S
C763   C765    1.391   .     A
C764   H778    1.083   .     S
C764   C766    1.391   .     A
C765   C771    1.415   .     A
C765   C767    1.420   .     A
C766   C772    1.415   .     A
C766   C768    1.420   .     A
C767   C769    1.413   .     A
C768   C770    1.413   .     A
C768   C209    1.392   1_556 S
C769   C774    1.397   .     A
C770   C773    1.397   .     A
C771   N787    1.438   .     S
C772   N790    1.438   .     S
C772   C216    1.394   1_556 S
C773   H779    1.085   .     S
C773   C213    1.394   1_556 S
C774   H780    1.085   .     S
C781   C968    1.327   .     S
C781   H969    1.086   .     S
H784   C968    1.086   .     S
N785   N848    1.277   .     S
N785   C855    1.452   .     S
N786   N909    1.277   1_455 S
N786   C924    1.452   1_455 S
N787   O789    1.301   .     A
N787   O788    1.301   .     A
N790   O792    1.301   .     A
N790   O791    1.301   .     A
C793   H798    1.111   .     S
C793   H799    1.085   .     S
C793   N909    1.452   1_455 S
C793   C918    1.523   1_455 S
C794   H796    1.103   .     S
C794   H795    1.109   .     S
C794   H797    1.111   .     S
C794   C855    1.523   .     S
C800   H806    1.111   .     S
C800   H805    1.085   .     S
C800   N848    1.452   .     S
C800   C863    1.523   .     S
C801   H802    1.103   .     S
C801   H803    1.109   .     S
C801   H804    1.111   .     S
C801   C924    1.523   1_455 S
O807   C811    1.296   .     A
O807   Zn819   1.971   .     S
O808   C812    1.296   .     A
O808   Zn820   1.971   .     S
O809   Zn820   1.972   .     S
O809   C811    1.295   .     A
O810   C812    1.295   .     A
O810   Zn819   1.972   .     S
C811   C843    1.400   .     S
C812   C844    1.400   .     S
O813   C817    1.300   .     A
O813   Zn819   1.993   .     S
O814   C818    1.300   .     A
O814   Zn820   1.993   .     S
O815   Zn820   2.007   .     S
O815   C817    1.299   .     A
O816   C818    1.299   .     A
O816   Zn819   2.007   .     S
C817   C824    1.416   .     S
C818   C823    1.416   .     S
Zn819  N848    2.053   .     S
Zn820  N847    2.053   .     S
C821   H837    1.086   .     S
C821   C831    1.383   .     A
C821   C823    1.387   .     A
C822   H838    1.086   .     S
C822   C832    1.383   .     A
C822   C824    1.387   .     A
C823   C825    1.389   .     A
C824   C826    1.389   .     A
C825   H839    1.083   .     S
C825   C827    1.391   .     A
C826   H840    1.083   .     S
C826   C828    1.391   .     A
C827   C833    1.415   .     A
C827   C829    1.420   .     A
C828   C834    1.415   .     A
C828   C830    1.420   .     A
C829   C831    1.413   .     A
C830   C832    1.413   .     A
C830   C271    1.392   1_556 S
C831   C836    1.397   .     A
C832   C835    1.397   .     A
C833   N849    1.438   .     S
C834   N852    1.438   .     S
C834   C278    1.394   1_556 S
C835   H841    1.085   .     S
C835   C275    1.394   1_556 S
C836   H842    1.085   .     S
C843   C1030   1.327   .     S
C843   H1031   1.086   .     S
H846   C1030   1.086   .     S
N847   N910    1.277   .     S
N847   C917    1.452   .     S
N849   O851    1.301   .     A
N849   O850    1.301   .     A
N852   O854    1.301   .     A
N852   O853    1.301   .     A
C855   H860    1.111   .     S
C855   H861    1.085   .     S
C856   H858    1.103   .     S
C856   H857    1.109   .     S
C856   H859    1.111   .     S
C856   C917    1.523   .     S
C862   H868    1.111   .     S
C862   H867    1.085   .     S
C862   N910    1.452   .     S
C862   C925    1.523   .     S
C863   H864    1.103   .     S
C863   H865    1.109   .     S
C863   H866    1.111   .     S
O869   C873    1.296   .     A
O869   Zn881   1.971   .     S
O870   C874    1.296   .     A
O870   Zn882   1.971   .     S
O871   Zn882   1.972   .     S
O871   C873    1.295   .     A
O872   C874    1.295   .     A
O872   Zn881   1.972   .     S
C873   C905    1.400   .     S
C874   C906    1.400   .     S
O875   C879    1.300   .     A
O875   Zn881   1.993   .     S
O876   C880    1.300   .     A
O876   Zn882   1.993   .     S
O877   Zn882   2.007   .     S
O877   C879    1.299   .     A
O878   C880    1.299   .     A
O878   Zn881   2.007   .     S
C879   C886    1.416   .     S
C880   C885    1.416   .     S
Zn881  N910    2.053   .     S
Zn882  N909    2.053   .     S
C883   H899    1.086   .     S
C883   C893    1.383   .     A
C883   C885    1.387   .     A
C884   H900    1.086   .     S
C884   C894    1.383   .     A
C884   C886    1.387   .     A
C885   C887    1.389   .     A
C886   C888    1.389   .     A
C887   H901    1.083   .     S
C887   C889    1.391   .     A
C888   H902    1.083   .     S
C888   C890    1.391   .     A
C889   C895    1.415   .     A
C889   C891    1.420   .     A
C890   C896    1.415   .     A
C890   C892    1.420   .     A
C891   C893    1.413   .     A
C892   C894    1.413   .     A
C892   C333    1.392   1_556 S
C893   C898    1.397   .     A
C894   C897    1.397   .     A
C895   N911    1.438   .     S
C896   N914    1.438   .     S
C896   C340    1.394   1_556 S
C897   H903    1.085   .     S
C897   C337    1.394   1_556 S
C898   H904    1.085   .     S
C905   C1092   1.327   .     S
C905   H1093   1.086   .     S
H908   C1092   1.086   .     S
N909   N786    1.277   1_655 S
N909   C793    1.452   1_655 S
N911   O913    1.301   .     A
N911   O912    1.301   .     A
N914   O916    1.301   .     A
N914   O915    1.301   .     A
C917   H922    1.111   .     S
C917   H923    1.085   .     S
C918   H920    1.103   .     S
C918   H919    1.109   .     S
C918   H921    1.111   .     S
C918   C793    1.523   1_655 S
C924   H930    1.111   .     S
C924   H929    1.085   .     S
C924   N786    1.452   1_655 S
C924   C801    1.523   1_655 S
C925   H926    1.103   .     S
C925   H927    1.109   .     S
C925   H928    1.111   .     S
O931   C935    1.296   .     A
O931   Zn943   1.971   .     S
O932   C936    1.296   .     A
O932   Zn944   1.971   .     S
O933   Zn944   1.972   .     S
O933   C935    1.295   .     A
O934   C936    1.295   .     A
O934   Zn943   1.972   .     S
C935   C967    1.400   .     S
C936   C968    1.400   .     S
O937   C941    1.300   .     A
O937   Zn943   1.993   .     S
O938   C942    1.300   .     A
O938   Zn944   1.993   .     S
O939   Zn944   2.007   .     S
O939   C941    1.299   .     A
O940   C942    1.299   .     A
O940   Zn943   2.007   .     S
C941   C948    1.416   .     S
C942   C947    1.416   .     S
Zn943  N972    2.053   .     S
Zn944  N971    2.053   .     S
C945   H961    1.086   .     S
C945   C955    1.383   .     A
C945   C947    1.387   .     A
C946   H962    1.086   .     S
C946   C956    1.383   .     A
C946   C948    1.387   .     A
C947   C949    1.389   .     A
C948   C950    1.389   .     A
C949   H963    1.083   .     S
C949   C951    1.391   .     A
C950   H964    1.083   .     S
C950   C952    1.391   .     A
C951   C957    1.415   .     A
C951   C953    1.420   .     A
C952   C958    1.415   .     A
C952   C954    1.420   .     A
C953   C955    1.413   .     A
C954   C956    1.413   .     A
C954   C395    1.392   1_556 S
C955   C960    1.397   .     A
C956   C959    1.397   .     A
C957   N973    1.438   .     S
C958   N976    1.438   .     S
C958   C402    1.394   1_556 S
C959   H965    1.085   .     S
C959   C399    1.394   1_556 S
C960   H966    1.085   .     S
C967   C596    1.327   1_565 S
C967   H597    1.086   1_565 S
H970   C596    1.086   1_565 S
N971   N1034   1.277   .     S
N971   C1041   1.452   .     S
N972   N1095   1.277   1_455 S
N972   C1110   1.452   1_455 S
N973   O975    1.301   .     A
N973   O974    1.301   .     A
N976   O978    1.301   .     A
N976   O977    1.301   .     A
C979   H984    1.111   .     S
C979   H985    1.085   .     S
C979   N1095   1.452   1_455 S
C979   C1104   1.523   1_455 S
C980   H982    1.103   .     S
C980   H981    1.109   .     S
C980   H983    1.111   .     S
C980   C1041   1.523   .     S
C986   H992    1.111   .     S
C986   H991    1.085   .     S
C986   N1034   1.452   .     S
C986   C1049   1.523   .     S
C987   H988    1.103   .     S
C987   H989    1.109   .     S
C987   H990    1.111   .     S
C987   C1110   1.523   1_455 S
O993   C997    1.296   .     A
O993   Zn1005  1.971   .     S
O994   C998    1.296   .     A
O994   Zn1006  1.971   .     S
O995   Zn1006  1.972   .     S
O995   C997    1.295   .     A
O996   C998    1.295   .     A
O996   Zn1005  1.972   .     S
C997   C1029   1.400   .     S
C998   C1030   1.400   .     S
O999   C1003   1.300   .     A
O999   Zn1005  1.993   .     S
O1000  C1004   1.300   .     A
O1000  Zn1006  1.993   .     S
O1001  Zn1006  2.007   .     S
O1001  C1003   1.299   .     A
O1002  C1004   1.299   .     A
O1002  Zn1005  2.007   .     S
C1003  C1010   1.416   .     S
C1004  C1009   1.416   .     S
Zn1005 N1034   2.053   .     S
Zn1006 N1033   2.053   .     S
C1007  H1023   1.086   .     S
C1007  C1017   1.383   .     A
C1007  C1009   1.387   .     A
C1008  H1024   1.086   .     S
C1008  C1018   1.383   .     A
C1008  C1010   1.387   .     A
C1009  C1011   1.389   .     A
C1010  C1012   1.389   .     A
C1011  H1025   1.083   .     S
C1011  C1013   1.391   .     A
C1012  H1026   1.083   .     S
C1012  C1014   1.391   .     A
C1013  C1019   1.415   .     A
C1013  C1015   1.420   .     A
C1014  C1020   1.415   .     A
C1014  C1016   1.420   .     A
C1015  C1017   1.413   .     A
C1016  C1018   1.413   .     A
C1016  C457    1.392   1_556 S
C1017  C1022   1.397   .     A
C1018  C1021   1.397   .     A
C1019  N1035   1.438   .     S
C1020  N1038   1.438   .     S
C1020  C464    1.394   1_556 S
C1021  H1027   1.085   .     S
C1021  C461    1.394   1_556 S
C1022  H1028   1.085   .     S
C1029  C658    1.327   1_565 S
C1029  H659    1.086   1_565 S
H1032  C658    1.086   1_565 S
N1033  N1096   1.277   .     S
N1033  C1103   1.452   .     S
N1035  O1037   1.301   .     A
N1035  O1036   1.301   .     A
N1038  O1040   1.301   .     A
N1038  O1039   1.301   .     A
C1041  H1046   1.111   .     S
C1041  H1047   1.085   .     S
C1042  H1044   1.103   .     S
C1042  H1043   1.109   .     S
C1042  H1045   1.111   .     S
C1042  C1103   1.523   .     S
C1048  H1054   1.111   .     S
C1048  H1053   1.085   .     S
C1048  N1096   1.452   .     S
C1048  C1111   1.523   .     S
C1049  H1050   1.103   .     S
C1049  H1051   1.109   .     S
C1049  H1052   1.111   .     S
O1055  C1059   1.296   .     A
O1055  Zn1067  1.971   .     S
O1056  C1060   1.296   .     A
O1056  Zn1068  1.971   .     S
O1057  Zn1068  1.972   .     S
O1057  C1059   1.295   .     A
O1058  C1060   1.295   .     A
O1058  Zn1067  1.972   .     S
C1059  C1091   1.400   .     S
C1060  C1092   1.400   .     S
O1061  C1065   1.300   .     A
O1061  Zn1067  1.993   .     S
O1062  C1066   1.300   .     A
O1062  Zn1068  1.993   .     S
O1063  Zn1068  2.007   .     S
O1063  C1065   1.299   .     A
O1064  C1066   1.299   .     A
O1064  Zn1067  2.007   .     S
C1065  C1072   1.416   .     S
C1066  C1071   1.416   .     S
Zn1067 N1096   2.053   .     S
Zn1068 N1095   2.053   .     S
C1069  H1085   1.086   .     S
C1069  C1079   1.383   .     A
C1069  C1071   1.387   .     A
C1070  H1086   1.086   .     S
C1070  C1080   1.383   .     A
C1070  C1072   1.387   .     A
C1071  C1073   1.389   .     A
C1072  C1074   1.389   .     A
C1073  H1087   1.083   .     S
C1073  C1075   1.391   .     A
C1074  H1088   1.083   .     S
C1074  C1076   1.391   .     A
C1075  C1081   1.415   .     A
C1075  C1077   1.420   .     A
C1076  C1082   1.415   .     A
C1076  C1078   1.420   .     A
C1077  C1079   1.413   .     A
C1078  C1080   1.413   .     A
C1078  C519    1.392   1_556 S
C1079  C1084   1.397   .     A
C1080  C1083   1.397   .     A
C1081  N1097   1.438   .     S
C1082  N1100   1.438   .     S
C1082  C526    1.394   1_556 S
C1083  H1089   1.085   .     S
C1083  C523    1.394   1_556 S
C1084  H1090   1.085   .     S
C1091  C720    1.327   1_565 S
C1091  H721    1.086   1_565 S
H1094  C720    1.086   1_565 S
N1095  N972    1.277   1_655 S
N1095  C979    1.452   1_655 S
N1097  O1099   1.301   .     A
N1097  O1098   1.301   .     A
N1100  O1102   1.301   .     A
N1100  O1101   1.301   .     A
C1103  H1108   1.111   .     S
C1103  H1109   1.085   .     S
C1104  H1106   1.103   .     S
C1104  H1105   1.109   .     S
C1104  H1107   1.111   .     S
C1104  C979    1.523   1_655 S
C1110  H1116   1.111   .     S
C1110  H1115   1.085   .     S
C1110  N972    1.452   1_655 S
C1110  C987    1.523   1_655 S
C1111  H1112   1.103   .     S
C1111  H1113   1.109   .     S
C1111  H1114   1.111   .     S
