data_str_m3_o1_o18_pcu_sym.121
_audit_creation_date              2020-01-03
_audit_creation_method            'Materials Studio'
_symmetry_space_group_name_H-M    'P1'
_symmetry_Int_Tables_number       1
_symmetry_cell_setting            triclinic
loop_
_symmetry_equiv_pos_as_xyz
  x,y,z
_cell_length_a                    29.5035
_cell_length_b                    32.1546
_cell_length_c                    30.9400
_cell_angle_alpha                 90.0648
_cell_angle_beta                  66.7344
_cell_angle_gamma                 89.9453
loop_
_atom_site_label
_atom_site_type_symbol
_atom_site_fract_x
_atom_site_fract_y
_atom_site_fract_z
_atom_site_U_iso_or_equiv
_atom_site_adp_type
_atom_site_occupancy
C1     C     0.16659   0.24672   0.25019   0.00000  Uiso   1.00
C2     C     0.16670   0.08661   0.24993   0.00000  Uiso   1.00
C3     C     0.10636   0.16051   0.05517   0.00000  Uiso   1.00
C4     C     0.20648   0.21403   0.45713   0.00000  Uiso   1.00
C5     C     0.07303   0.15138   0.03513   0.00000  Uiso   1.00
C6     C     0.24051   0.22168   0.47686   0.00000  Uiso   1.00
C7     C     0.20452   0.31200   0.25709   0.00000  Uiso   1.00
C8     C     0.12898   0.02131   0.24265   0.00000  Uiso   1.00
C9     C     0.20460   0.02126   0.25694   0.00000  Uiso   1.00
C10    C     0.12893   0.31205   0.24273   0.00000  Uiso   1.00
C11    C     0.16678   0.04246   0.24982   0.00000  Uiso   1.00
C12    C     0.16666   0.29085   0.25002   0.00000  Uiso   1.00
C13    C     0.32034   0.13857   0.22351   0.00000  Uiso   1.00
C14    C     0.01310   0.19498   0.27621   0.00000  Uiso   1.00
C15    C     0.03495   0.13853   0.22358   0.00000  Uiso   1.00
C16    C     0.29842   0.19489   0.27631   0.00000  Uiso   1.00
C17    C     0.13547   0.16556   0.33836   0.00000  Uiso   1.00
C18    C     0.19787   0.16788   0.16154   0.00000  Uiso   1.00
C19    C     0.11451   0.16443   0.38995   0.00000  Uiso   1.00
C20    C     0.21755   0.17503   0.11039   0.00000  Uiso   1.00
C21    C     0.05454   0.14343   0.46639   0.00000  Uiso   1.00
C22    C     0.26923   0.21141   0.03921   0.00000  Uiso   1.00
C23    C     0.06919   0.14484   0.41750   0.00000  Uiso   1.00
C24    C     0.26134   0.19761   0.08464   0.00000  Uiso   1.00
C25    C     0.14343   0.18180   0.41172   0.00000  Uiso   1.00
C26    C     0.18547   0.16478   0.08890   0.00000  Uiso   1.00
C27    C     0.13066   0.17804   0.46010   0.00000  Uiso   1.00
C28    C     0.19030   0.18230   0.04607   0.00000  Uiso   1.00
C29    C     0.08562   0.15817   0.48741   0.00000  Uiso   1.00
C30    C     0.23357   0.20504   0.02053   0.00000  Uiso   1.00
C31    C     0.16347   0.19024   0.48123   0.00000  Uiso   1.00
C32    C     0.15334   0.17736   0.02794   0.00000  Uiso   1.00
H33    H     0.03802   0.13726   0.05674   0.00000  Uiso   1.00
H34    H     0.27302   0.23997   0.45730   0.00000  Uiso   1.00
H35    H     0.15547   0.14393   0.10746   0.00000  Uiso   1.00
H36    H     0.17783   0.19580   0.38937   0.00000  Uiso   1.00
H37    H     0.02009   0.12835   0.48785   0.00000  Uiso   1.00
H38    H     0.30230   0.22890   0.01916   0.00000  Uiso   1.00
H39    H     0.09395   0.15451   0.09235   0.00000  Uiso   1.00
H40    H     0.21442   0.22812   0.42334   0.00000  Uiso   1.00
H41    H     0.23378   0.29578   0.26299   0.00000  Uiso   1.00
H42    H     0.09968   0.03752   0.23680   0.00000  Uiso   1.00
H43    H     0.23394   0.03744   0.26271   0.00000  Uiso   1.00
H44    H     0.09961   0.29586   0.23694   0.00000  Uiso   1.00
H45    H     0.31095   0.11615   0.20229   0.00000  Uiso   1.00
H46    H     0.02256   0.21756   0.29721   0.00000  Uiso   1.00
H47    H     0.06191   0.11604   0.20244   0.00000  Uiso   1.00
H48    H     0.27148   0.21740   0.29742   0.00000  Uiso   1.00
N49    N     0.04759   0.16668   0.25001   0.00000  Uiso   1.00
N50    N     0.28574   0.16666   0.24999   0.00000  Uiso   1.00
O51    O     0.12846   0.22775   0.25000   0.00000  Uiso   1.00
O52    O     0.20488   0.10558   0.24999   0.00000  Uiso   1.00
O53    O     0.20490   0.22774   0.25000   0.00000  Uiso   1.00
O54    O     0.12843   0.10559   0.25000   0.00000  Uiso   1.00
O55    O     0.10661   0.16667   0.31612   0.00000  Uiso   1.00
O56    O     0.22672   0.16666   0.18387   0.00000  Uiso   1.00
O57    O     0.18305   0.16666   0.31612   0.00000  Uiso   1.00
O58    O     0.15028   0.16667   0.18388   0.00000  Uiso   1.00
Zn59   Zn    0.11562   0.16667   0.25000   0.00000  Uiso   1.00
Zn60   Zn    0.21771   0.16666   0.25000   0.00000  Uiso   1.00
C61    C     0.29900   0.20960   0.10435   0.00000  Uiso   1.00
C62    C     0.28392   0.24983   0.13316   0.00000  Uiso   1.00
C63    C     0.31869   0.25951   0.15751   0.00000  Uiso   1.00
H64    H     0.31734   0.23424   0.18240   0.00000  Uiso   1.00
H65    H     0.02380   0.26288   0.13111   0.00000  Uiso   1.00
H66    H     0.30731   0.28906   0.17750   0.00000  Uiso   1.00
H67    H     0.28480   0.27608   0.10948   0.00000  Uiso   1.00
H68    H     0.24575   0.24727   0.16004   0.00000  Uiso   1.00
H69    H     0.30519   0.18373   0.12507   0.00000  Uiso   1.00
H70    H     0.00209   0.21494   0.07507   0.00000  Uiso   1.00
C71    C     0.03749   0.12213   0.39670   0.00000  Uiso   1.00
C72    C     0.32949   0.15039   0.39560   0.00000  Uiso   1.00
C73    C     0.29729   0.12807   0.37458   0.00000  Uiso   1.00
H74    H     0.26800   0.14951   0.37399   0.00000  Uiso   1.00
H75    H     0.31985   0.11793   0.33801   0.00000  Uiso   1.00
H76    H     0.27946   0.10049   0.39615   0.00000  Uiso   1.00
H77    H     0.30598   0.16000   0.43208   0.00000  Uiso   1.00
H78    H     0.01204   0.17876   0.37466   0.00000  Uiso   1.00
H79    H     0.05985   0.10959   0.36121   0.00000  Uiso   1.00
H80    H     0.02073   0.09432   0.41851   0.00000  Uiso   1.00
C81    C     0.49992   0.24672   0.25019   0.00000  Uiso   1.00
C82    C     0.50003   0.08661   0.24993   0.00000  Uiso   1.00
C83    C     0.43969   0.16051   0.05517   0.00000  Uiso   1.00
C84    C     0.53981   0.21403   0.45713   0.00000  Uiso   1.00
C85    C     0.40636   0.15138   0.03513   0.00000  Uiso   1.00
C86    C     0.57384   0.22168   0.47686   0.00000  Uiso   1.00
C87    C     0.53785   0.31200   0.25709   0.00000  Uiso   1.00
C88    C     0.46231   0.02131   0.24265   0.00000  Uiso   1.00
C89    C     0.53794   0.02126   0.25694   0.00000  Uiso   1.00
C90    C     0.46226   0.31205   0.24273   0.00000  Uiso   1.00
C91    C     0.50011   0.04246   0.24982   0.00000  Uiso   1.00
C92    C     0.49999   0.29085   0.25002   0.00000  Uiso   1.00
C93    C     0.65367   0.13857   0.22351   0.00000  Uiso   1.00
C94    C     0.34644   0.19498   0.27621   0.00000  Uiso   1.00
C95    C     0.36828   0.13853   0.22358   0.00000  Uiso   1.00
C96    C     0.63176   0.19489   0.27631   0.00000  Uiso   1.00
C97    C     0.46880   0.16556   0.33836   0.00000  Uiso   1.00
C98    C     0.53120   0.16788   0.16154   0.00000  Uiso   1.00
C99    C     0.44784   0.16443   0.38995   0.00000  Uiso   1.00
C100   C     0.55088   0.17503   0.11039   0.00000  Uiso   1.00
C101   C     0.38788   0.14343   0.46639   0.00000  Uiso   1.00
C102   C     0.60256   0.21141   0.03921   0.00000  Uiso   1.00
C103   C     0.40252   0.14484   0.41750   0.00000  Uiso   1.00
C104   C     0.59468   0.19761   0.08464   0.00000  Uiso   1.00
C105   C     0.47676   0.18180   0.41172   0.00000  Uiso   1.00
C106   C     0.51880   0.16478   0.08890   0.00000  Uiso   1.00
C107   C     0.46399   0.17804   0.46010   0.00000  Uiso   1.00
C108   C     0.52364   0.18230   0.04607   0.00000  Uiso   1.00
C109   C     0.41895   0.15817   0.48741   0.00000  Uiso   1.00
C110   C     0.56691   0.20504   0.02053   0.00000  Uiso   1.00
C111   C     0.49681   0.19024   0.48123   0.00000  Uiso   1.00
C112   C     0.48668   0.17736   0.02794   0.00000  Uiso   1.00
H113   H     0.37136   0.13726   0.05674   0.00000  Uiso   1.00
H114   H     0.60635   0.23997   0.45730   0.00000  Uiso   1.00
H115   H     0.48881   0.14393   0.10746   0.00000  Uiso   1.00
H116   H     0.51116   0.19580   0.38937   0.00000  Uiso   1.00
H117   H     0.35343   0.12835   0.48785   0.00000  Uiso   1.00
H118   H     0.63563   0.22890   0.01916   0.00000  Uiso   1.00
H119   H     0.42728   0.15451   0.09235   0.00000  Uiso   1.00
H120   H     0.54775   0.22812   0.42334   0.00000  Uiso   1.00
H121   H     0.56711   0.29578   0.26299   0.00000  Uiso   1.00
H122   H     0.43302   0.03752   0.23680   0.00000  Uiso   1.00
H123   H     0.56728   0.03744   0.26271   0.00000  Uiso   1.00
H124   H     0.43294   0.29586   0.23694   0.00000  Uiso   1.00
H125   H     0.64429   0.11615   0.20229   0.00000  Uiso   1.00
H126   H     0.35590   0.21756   0.29721   0.00000  Uiso   1.00
H127   H     0.39524   0.11604   0.20244   0.00000  Uiso   1.00
H128   H     0.60481   0.21740   0.29742   0.00000  Uiso   1.00
N129   N     0.38093   0.16668   0.25001   0.00000  Uiso   1.00
N130   N     0.61907   0.16666   0.24999   0.00000  Uiso   1.00
O131   O     0.46179   0.22775   0.25000   0.00000  Uiso   1.00
O132   O     0.53821   0.10558   0.24999   0.00000  Uiso   1.00
O133   O     0.53823   0.22774   0.25000   0.00000  Uiso   1.00
O134   O     0.46177   0.10559   0.25000   0.00000  Uiso   1.00
O135   O     0.43994   0.16667   0.31612   0.00000  Uiso   1.00
O136   O     0.56006   0.16666   0.18387   0.00000  Uiso   1.00
O137   O     0.51639   0.16666   0.31612   0.00000  Uiso   1.00
O138   O     0.48361   0.16667   0.18388   0.00000  Uiso   1.00
Zn139  Zn    0.44896   0.16667   0.25000   0.00000  Uiso   1.00
Zn140  Zn    0.55104   0.16666   0.25000   0.00000  Uiso   1.00
C141   C     0.63233   0.20960   0.10435   0.00000  Uiso   1.00
C142   C     0.61725   0.24983   0.13316   0.00000  Uiso   1.00
C143   C     0.65202   0.25951   0.15751   0.00000  Uiso   1.00
H144   H     0.65067   0.23424   0.18240   0.00000  Uiso   1.00
H145   H     0.35713   0.26288   0.13111   0.00000  Uiso   1.00
H146   H     0.64064   0.28906   0.17750   0.00000  Uiso   1.00
H147   H     0.61813   0.27608   0.10948   0.00000  Uiso   1.00
H148   H     0.57908   0.24727   0.16004   0.00000  Uiso   1.00
H149   H     0.63852   0.18373   0.12507   0.00000  Uiso   1.00
H150   H     0.33542   0.21494   0.07507   0.00000  Uiso   1.00
C151   C     0.37082   0.12213   0.39670   0.00000  Uiso   1.00
C152   C     0.66282   0.15039   0.39560   0.00000  Uiso   1.00
C153   C     0.63063   0.12807   0.37458   0.00000  Uiso   1.00
H154   H     0.60134   0.14951   0.37399   0.00000  Uiso   1.00
H155   H     0.65318   0.11793   0.33801   0.00000  Uiso   1.00
H156   H     0.61280   0.10049   0.39615   0.00000  Uiso   1.00
H157   H     0.63932   0.16000   0.43208   0.00000  Uiso   1.00
H158   H     0.34538   0.17876   0.37466   0.00000  Uiso   1.00
H159   H     0.39318   0.10959   0.36121   0.00000  Uiso   1.00
H160   H     0.35406   0.09432   0.41851   0.00000  Uiso   1.00
C161   C     0.83325   0.24672   0.25019   0.00000  Uiso   1.00
C162   C     0.83336   0.08661   0.24993   0.00000  Uiso   1.00
C163   C     0.77303   0.16051   0.05517   0.00000  Uiso   1.00
C164   C     0.87315   0.21403   0.45713   0.00000  Uiso   1.00
C165   C     0.73969   0.15138   0.03513   0.00000  Uiso   1.00
C166   C     0.90718   0.22168   0.47686   0.00000  Uiso   1.00
C167   C     0.87118   0.31200   0.25709   0.00000  Uiso   1.00
C168   C     0.79564   0.02131   0.24265   0.00000  Uiso   1.00
C169   C     0.87127   0.02126   0.25694   0.00000  Uiso   1.00
C170   C     0.79559   0.31205   0.24273   0.00000  Uiso   1.00
C171   C     0.83344   0.04246   0.24982   0.00000  Uiso   1.00
C172   C     0.83333   0.29085   0.25002   0.00000  Uiso   1.00
C173   C     0.98701   0.13857   0.22351   0.00000  Uiso   1.00
C174   C     0.67977   0.19498   0.27621   0.00000  Uiso   1.00
C175   C     0.70162   0.13853   0.22358   0.00000  Uiso   1.00
C176   C     0.96509   0.19489   0.27631   0.00000  Uiso   1.00
C177   C     0.80214   0.16556   0.33836   0.00000  Uiso   1.00
C178   C     0.86454   0.16788   0.16154   0.00000  Uiso   1.00
C179   C     0.78117   0.16443   0.38995   0.00000  Uiso   1.00
C180   C     0.88422   0.17503   0.11039   0.00000  Uiso   1.00
C181   C     0.72121   0.14343   0.46639   0.00000  Uiso   1.00
C182   C     0.93589   0.21141   0.03921   0.00000  Uiso   1.00
C183   C     0.73585   0.14484   0.41750   0.00000  Uiso   1.00
C184   C     0.92801   0.19761   0.08464   0.00000  Uiso   1.00
C185   C     0.81009   0.18180   0.41172   0.00000  Uiso   1.00
C186   C     0.85213   0.16478   0.08890   0.00000  Uiso   1.00
C187   C     0.79733   0.17804   0.46010   0.00000  Uiso   1.00
C188   C     0.85697   0.18230   0.04607   0.00000  Uiso   1.00
C189   C     0.75228   0.15817   0.48741   0.00000  Uiso   1.00
C190   C     0.90024   0.20504   0.02053   0.00000  Uiso   1.00
C191   C     0.83014   0.19024   0.48123   0.00000  Uiso   1.00
C192   C     0.82001   0.17736   0.02794   0.00000  Uiso   1.00
H193   H     0.70469   0.13726   0.05674   0.00000  Uiso   1.00
H194   H     0.93969   0.23997   0.45730   0.00000  Uiso   1.00
H195   H     0.82214   0.14393   0.10746   0.00000  Uiso   1.00
H196   H     0.84449   0.19580   0.38937   0.00000  Uiso   1.00
H197   H     0.68676   0.12835   0.48785   0.00000  Uiso   1.00
H198   H     0.96897   0.22890   0.01916   0.00000  Uiso   1.00
H199   H     0.76061   0.15451   0.09235   0.00000  Uiso   1.00
H200   H     0.88108   0.22812   0.42334   0.00000  Uiso   1.00
H201   H     0.90044   0.29578   0.26299   0.00000  Uiso   1.00
H202   H     0.76635   0.03752   0.23680   0.00000  Uiso   1.00
H203   H     0.90061   0.03744   0.26271   0.00000  Uiso   1.00
H204   H     0.76628   0.29586   0.23694   0.00000  Uiso   1.00
H205   H     0.97762   0.11615   0.20229   0.00000  Uiso   1.00
H206   H     0.68923   0.21756   0.29721   0.00000  Uiso   1.00
H207   H     0.72857   0.11604   0.20244   0.00000  Uiso   1.00
H208   H     0.93815   0.21740   0.29742   0.00000  Uiso   1.00
N209   N     0.71426   0.16668   0.25001   0.00000  Uiso   1.00
N210   N     0.95241   0.16666   0.24999   0.00000  Uiso   1.00
O211   O     0.79512   0.22775   0.25000   0.00000  Uiso   1.00
O212   O     0.87154   0.10558   0.24999   0.00000  Uiso   1.00
O213   O     0.87157   0.22774   0.25000   0.00000  Uiso   1.00
O214   O     0.79510   0.10559   0.25000   0.00000  Uiso   1.00
O215   O     0.77328   0.16667   0.31612   0.00000  Uiso   1.00
O216   O     0.89339   0.16666   0.18387   0.00000  Uiso   1.00
O217   O     0.84972   0.16666   0.31612   0.00000  Uiso   1.00
O218   O     0.81695   0.16667   0.18388   0.00000  Uiso   1.00
Zn219  Zn    0.78229   0.16667   0.25000   0.00000  Uiso   1.00
Zn220  Zn    0.88438   0.16666   0.25000   0.00000  Uiso   1.00
C221   C     0.96567   0.20960   0.10435   0.00000  Uiso   1.00
C222   C     0.95058   0.24983   0.13316   0.00000  Uiso   1.00
C223   C     0.98535   0.25951   0.15751   0.00000  Uiso   1.00
H224   H     0.98401   0.23424   0.18240   0.00000  Uiso   1.00
H225   H     0.69046   0.26288   0.13111   0.00000  Uiso   1.00
H226   H     0.97398   0.28906   0.17750   0.00000  Uiso   1.00
H227   H     0.95146   0.27608   0.10948   0.00000  Uiso   1.00
H228   H     0.91241   0.24727   0.16004   0.00000  Uiso   1.00
H229   H     0.97186   0.18373   0.12507   0.00000  Uiso   1.00
H230   H     0.66875   0.21494   0.07507   0.00000  Uiso   1.00
C231   C     0.70416   0.12213   0.39670   0.00000  Uiso   1.00
C232   C     0.99615   0.15039   0.39560   0.00000  Uiso   1.00
C233   C     0.96396   0.12807   0.37458   0.00000  Uiso   1.00
H234   H     0.93467   0.14951   0.37399   0.00000  Uiso   1.00
H235   H     0.98651   0.11793   0.33801   0.00000  Uiso   1.00
H236   H     0.94613   0.10049   0.39615   0.00000  Uiso   1.00
H237   H     0.97265   0.16000   0.43208   0.00000  Uiso   1.00
H238   H     0.67871   0.17876   0.37466   0.00000  Uiso   1.00
H239   H     0.72652   0.10959   0.36121   0.00000  Uiso   1.00
H240   H     0.68739   0.09432   0.41851   0.00000  Uiso   1.00
C241   C     0.16659   0.58005   0.25019   0.00000  Uiso   1.00
C242   C     0.16670   0.41994   0.24993   0.00000  Uiso   1.00
C243   C     0.10636   0.49384   0.05517   0.00000  Uiso   1.00
C244   C     0.20648   0.54736   0.45713   0.00000  Uiso   1.00
C245   C     0.07303   0.48471   0.03513   0.00000  Uiso   1.00
C246   C     0.24051   0.55501   0.47686   0.00000  Uiso   1.00
C247   C     0.20452   0.64534   0.25709   0.00000  Uiso   1.00
C248   C     0.12898   0.35464   0.24265   0.00000  Uiso   1.00
C249   C     0.20460   0.35459   0.25694   0.00000  Uiso   1.00
C250   C     0.12893   0.64538   0.24273   0.00000  Uiso   1.00
C251   C     0.16678   0.37579   0.24982   0.00000  Uiso   1.00
C252   C     0.16666   0.62419   0.25002   0.00000  Uiso   1.00
C253   C     0.32034   0.47190   0.22351   0.00000  Uiso   1.00
C254   C     0.01310   0.52831   0.27621   0.00000  Uiso   1.00
C255   C     0.03495   0.47187   0.22358   0.00000  Uiso   1.00
C256   C     0.29842   0.52822   0.27631   0.00000  Uiso   1.00
C257   C     0.13547   0.49889   0.33836   0.00000  Uiso   1.00
C258   C     0.19787   0.50121   0.16154   0.00000  Uiso   1.00
C259   C     0.11451   0.49777   0.38995   0.00000  Uiso   1.00
C260   C     0.21755   0.50836   0.11039   0.00000  Uiso   1.00
C261   C     0.05454   0.47677   0.46639   0.00000  Uiso   1.00
C262   C     0.26923   0.54474   0.03921   0.00000  Uiso   1.00
C263   C     0.06919   0.47817   0.41750   0.00000  Uiso   1.00
C264   C     0.26134   0.53094   0.08464   0.00000  Uiso   1.00
C265   C     0.14343   0.51513   0.41172   0.00000  Uiso   1.00
C266   C     0.18547   0.49812   0.08890   0.00000  Uiso   1.00
C267   C     0.13066   0.51137   0.46010   0.00000  Uiso   1.00
C268   C     0.19030   0.51563   0.04607   0.00000  Uiso   1.00
C269   C     0.08562   0.49151   0.48741   0.00000  Uiso   1.00
C270   C     0.23357   0.53838   0.02053   0.00000  Uiso   1.00
C271   C     0.16347   0.52357   0.48123   0.00000  Uiso   1.00
C272   C     0.15334   0.51069   0.02794   0.00000  Uiso   1.00
H273   H     0.03802   0.47060   0.05674   0.00000  Uiso   1.00
H274   H     0.27302   0.57331   0.45730   0.00000  Uiso   1.00
H275   H     0.15547   0.47726   0.10746   0.00000  Uiso   1.00
H276   H     0.17783   0.52914   0.38937   0.00000  Uiso   1.00
H277   H     0.02009   0.46168   0.48785   0.00000  Uiso   1.00
H278   H     0.30230   0.56224   0.01916   0.00000  Uiso   1.00
H279   H     0.09395   0.48785   0.09235   0.00000  Uiso   1.00
H280   H     0.21442   0.56146   0.42334   0.00000  Uiso   1.00
H281   H     0.23378   0.62911   0.26299   0.00000  Uiso   1.00
H282   H     0.09968   0.37086   0.23680   0.00000  Uiso   1.00
H283   H     0.23394   0.37077   0.26271   0.00000  Uiso   1.00
H284   H     0.09961   0.62919   0.23694   0.00000  Uiso   1.00
H285   H     0.31095   0.44948   0.20229   0.00000  Uiso   1.00
H286   H     0.02256   0.55089   0.29721   0.00000  Uiso   1.00
H287   H     0.06191   0.44937   0.20244   0.00000  Uiso   1.00
H288   H     0.27148   0.55074   0.29742   0.00000  Uiso   1.00
N289   N     0.04759   0.50001   0.25001   0.00000  Uiso   1.00
N290   N     0.28574   0.49999   0.24999   0.00000  Uiso   1.00
O291   O     0.12846   0.56108   0.25000   0.00000  Uiso   1.00
O292   O     0.20488   0.43892   0.24999   0.00000  Uiso   1.00
O293   O     0.20490   0.56107   0.25000   0.00000  Uiso   1.00
O294   O     0.12843   0.43893   0.25000   0.00000  Uiso   1.00
O295   O     0.10661   0.50001   0.31612   0.00000  Uiso   1.00
O296   O     0.22672   0.49999   0.18387   0.00000  Uiso   1.00
O297   O     0.18305   0.50000   0.31612   0.00000  Uiso   1.00
O298   O     0.15028   0.50000   0.18388   0.00000  Uiso   1.00
Zn299  Zn    0.11562   0.50001   0.25000   0.00000  Uiso   1.00
Zn300  Zn    0.21771   0.49999   0.25000   0.00000  Uiso   1.00
C301   C     0.29900   0.54293   0.10435   0.00000  Uiso   1.00
C302   C     0.28392   0.58316   0.13316   0.00000  Uiso   1.00
C303   C     0.31869   0.59284   0.15751   0.00000  Uiso   1.00
H304   H     0.31734   0.56757   0.18240   0.00000  Uiso   1.00
H305   H     0.02380   0.59621   0.13111   0.00000  Uiso   1.00
H306   H     0.30731   0.62240   0.17750   0.00000  Uiso   1.00
H307   H     0.28480   0.60941   0.10948   0.00000  Uiso   1.00
H308   H     0.24575   0.58060   0.16004   0.00000  Uiso   1.00
H309   H     0.30519   0.51706   0.12507   0.00000  Uiso   1.00
H310   H     0.00209   0.54827   0.07507   0.00000  Uiso   1.00
C311   C     0.03749   0.45546   0.39670   0.00000  Uiso   1.00
C312   C     0.32949   0.48372   0.39560   0.00000  Uiso   1.00
C313   C     0.29729   0.46141   0.37458   0.00000  Uiso   1.00
H314   H     0.26800   0.48284   0.37399   0.00000  Uiso   1.00
H315   H     0.31985   0.45126   0.33801   0.00000  Uiso   1.00
H316   H     0.27946   0.43382   0.39615   0.00000  Uiso   1.00
H317   H     0.30598   0.49333   0.43208   0.00000  Uiso   1.00
H318   H     0.01204   0.51209   0.37466   0.00000  Uiso   1.00
H319   H     0.05985   0.44293   0.36121   0.00000  Uiso   1.00
H320   H     0.02073   0.42765   0.41851   0.00000  Uiso   1.00
C321   C     0.49992   0.58005   0.25019   0.00000  Uiso   1.00
C322   C     0.50003   0.41994   0.24993   0.00000  Uiso   1.00
C323   C     0.43969   0.49384   0.05517   0.00000  Uiso   1.00
C324   C     0.53981   0.54736   0.45713   0.00000  Uiso   1.00
C325   C     0.40636   0.48471   0.03513   0.00000  Uiso   1.00
C326   C     0.57384   0.55501   0.47686   0.00000  Uiso   1.00
C327   C     0.53785   0.64534   0.25709   0.00000  Uiso   1.00
C328   C     0.46231   0.35464   0.24265   0.00000  Uiso   1.00
C329   C     0.53794   0.35459   0.25694   0.00000  Uiso   1.00
C330   C     0.46226   0.64538   0.24273   0.00000  Uiso   1.00
C331   C     0.50011   0.37579   0.24982   0.00000  Uiso   1.00
C332   C     0.49999   0.62419   0.25002   0.00000  Uiso   1.00
C333   C     0.65367   0.47190   0.22351   0.00000  Uiso   1.00
C334   C     0.34644   0.52831   0.27621   0.00000  Uiso   1.00
C335   C     0.36828   0.47187   0.22358   0.00000  Uiso   1.00
C336   C     0.63176   0.52822   0.27631   0.00000  Uiso   1.00
C337   C     0.46880   0.49889   0.33836   0.00000  Uiso   1.00
C338   C     0.53120   0.50121   0.16154   0.00000  Uiso   1.00
C339   C     0.44784   0.49777   0.38995   0.00000  Uiso   1.00
C340   C     0.55088   0.50836   0.11039   0.00000  Uiso   1.00
C341   C     0.38788   0.47677   0.46639   0.00000  Uiso   1.00
C342   C     0.60256   0.54474   0.03921   0.00000  Uiso   1.00
C343   C     0.40252   0.47817   0.41750   0.00000  Uiso   1.00
C344   C     0.59468   0.53094   0.08464   0.00000  Uiso   1.00
C345   C     0.47676   0.51513   0.41172   0.00000  Uiso   1.00
C346   C     0.51880   0.49812   0.08890   0.00000  Uiso   1.00
C347   C     0.46399   0.51137   0.46010   0.00000  Uiso   1.00
C348   C     0.52364   0.51563   0.04607   0.00000  Uiso   1.00
C349   C     0.41895   0.49151   0.48741   0.00000  Uiso   1.00
C350   C     0.56691   0.53838   0.02053   0.00000  Uiso   1.00
C351   C     0.49681   0.52357   0.48123   0.00000  Uiso   1.00
C352   C     0.48668   0.51069   0.02794   0.00000  Uiso   1.00
H353   H     0.37136   0.47060   0.05674   0.00000  Uiso   1.00
H354   H     0.60635   0.57331   0.45730   0.00000  Uiso   1.00
H355   H     0.48881   0.47726   0.10746   0.00000  Uiso   1.00
H356   H     0.51116   0.52914   0.38937   0.00000  Uiso   1.00
H357   H     0.35343   0.46168   0.48785   0.00000  Uiso   1.00
H358   H     0.63563   0.56224   0.01916   0.00000  Uiso   1.00
H359   H     0.42728   0.48785   0.09235   0.00000  Uiso   1.00
H360   H     0.54775   0.56146   0.42334   0.00000  Uiso   1.00
H361   H     0.56711   0.62911   0.26299   0.00000  Uiso   1.00
H362   H     0.43302   0.37086   0.23680   0.00000  Uiso   1.00
H363   H     0.56728   0.37077   0.26271   0.00000  Uiso   1.00
H364   H     0.43294   0.62919   0.23694   0.00000  Uiso   1.00
H365   H     0.64429   0.44948   0.20229   0.00000  Uiso   1.00
H366   H     0.35590   0.55089   0.29721   0.00000  Uiso   1.00
H367   H     0.39524   0.44937   0.20244   0.00000  Uiso   1.00
H368   H     0.60481   0.55074   0.29742   0.00000  Uiso   1.00
N369   N     0.38093   0.50001   0.25001   0.00000  Uiso   1.00
N370   N     0.61907   0.49999   0.24999   0.00000  Uiso   1.00
O371   O     0.46179   0.56108   0.25000   0.00000  Uiso   1.00
O372   O     0.53821   0.43892   0.24999   0.00000  Uiso   1.00
O373   O     0.53823   0.56107   0.25000   0.00000  Uiso   1.00
O374   O     0.46177   0.43893   0.25000   0.00000  Uiso   1.00
O375   O     0.43994   0.50001   0.31612   0.00000  Uiso   1.00
O376   O     0.56006   0.49999   0.18387   0.00000  Uiso   1.00
O377   O     0.51639   0.50000   0.31612   0.00000  Uiso   1.00
O378   O     0.48361   0.50000   0.18388   0.00000  Uiso   1.00
Zn379  Zn    0.44896   0.50001   0.25000   0.00000  Uiso   1.00
Zn380  Zn    0.55104   0.49999   0.25000   0.00000  Uiso   1.00
C381   C     0.63233   0.54293   0.10435   0.00000  Uiso   1.00
C382   C     0.61725   0.58316   0.13316   0.00000  Uiso   1.00
C383   C     0.65202   0.59284   0.15751   0.00000  Uiso   1.00
H384   H     0.65067   0.56757   0.18240   0.00000  Uiso   1.00
H385   H     0.35713   0.59621   0.13111   0.00000  Uiso   1.00
H386   H     0.64064   0.62240   0.17750   0.00000  Uiso   1.00
H387   H     0.61813   0.60941   0.10948   0.00000  Uiso   1.00
H388   H     0.57908   0.58060   0.16004   0.00000  Uiso   1.00
H389   H     0.63852   0.51706   0.12507   0.00000  Uiso   1.00
H390   H     0.33542   0.54827   0.07507   0.00000  Uiso   1.00
C391   C     0.37082   0.45546   0.39670   0.00000  Uiso   1.00
C392   C     0.66282   0.48372   0.39560   0.00000  Uiso   1.00
C393   C     0.63063   0.46141   0.37458   0.00000  Uiso   1.00
H394   H     0.60134   0.48284   0.37399   0.00000  Uiso   1.00
H395   H     0.65318   0.45126   0.33801   0.00000  Uiso   1.00
H396   H     0.61280   0.43382   0.39615   0.00000  Uiso   1.00
H397   H     0.63932   0.49333   0.43208   0.00000  Uiso   1.00
H398   H     0.34538   0.51209   0.37466   0.00000  Uiso   1.00
H399   H     0.39318   0.44293   0.36121   0.00000  Uiso   1.00
H400   H     0.35406   0.42765   0.41851   0.00000  Uiso   1.00
C401   C     0.83325   0.58005   0.25019   0.00000  Uiso   1.00
C402   C     0.83336   0.41994   0.24993   0.00000  Uiso   1.00
C403   C     0.77303   0.49384   0.05517   0.00000  Uiso   1.00
C404   C     0.87315   0.54736   0.45713   0.00000  Uiso   1.00
C405   C     0.73969   0.48471   0.03513   0.00000  Uiso   1.00
C406   C     0.90718   0.55501   0.47686   0.00000  Uiso   1.00
C407   C     0.87118   0.64534   0.25709   0.00000  Uiso   1.00
C408   C     0.79564   0.35464   0.24265   0.00000  Uiso   1.00
C409   C     0.87127   0.35459   0.25694   0.00000  Uiso   1.00
C410   C     0.79559   0.64538   0.24273   0.00000  Uiso   1.00
C411   C     0.83344   0.37579   0.24982   0.00000  Uiso   1.00
C412   C     0.83333   0.62419   0.25002   0.00000  Uiso   1.00
C413   C     0.98701   0.47190   0.22351   0.00000  Uiso   1.00
C414   C     0.67977   0.52831   0.27621   0.00000  Uiso   1.00
C415   C     0.70162   0.47187   0.22358   0.00000  Uiso   1.00
C416   C     0.96509   0.52822   0.27631   0.00000  Uiso   1.00
C417   C     0.80214   0.49889   0.33836   0.00000  Uiso   1.00
C418   C     0.86454   0.50121   0.16154   0.00000  Uiso   1.00
C419   C     0.78117   0.49777   0.38995   0.00000  Uiso   1.00
C420   C     0.88422   0.50836   0.11039   0.00000  Uiso   1.00
C421   C     0.72121   0.47677   0.46639   0.00000  Uiso   1.00
C422   C     0.93589   0.54474   0.03921   0.00000  Uiso   1.00
C423   C     0.73585   0.47817   0.41750   0.00000  Uiso   1.00
C424   C     0.92801   0.53094   0.08464   0.00000  Uiso   1.00
C425   C     0.81009   0.51513   0.41172   0.00000  Uiso   1.00
C426   C     0.85213   0.49812   0.08890   0.00000  Uiso   1.00
C427   C     0.79733   0.51137   0.46010   0.00000  Uiso   1.00
C428   C     0.85697   0.51563   0.04607   0.00000  Uiso   1.00
C429   C     0.75228   0.49151   0.48741   0.00000  Uiso   1.00
C430   C     0.90024   0.53838   0.02053   0.00000  Uiso   1.00
C431   C     0.83014   0.52357   0.48123   0.00000  Uiso   1.00
C432   C     0.82001   0.51069   0.02794   0.00000  Uiso   1.00
H433   H     0.70469   0.47060   0.05674   0.00000  Uiso   1.00
H434   H     0.93969   0.57331   0.45730   0.00000  Uiso   1.00
H435   H     0.82214   0.47726   0.10746   0.00000  Uiso   1.00
H436   H     0.84449   0.52914   0.38937   0.00000  Uiso   1.00
H437   H     0.68676   0.46168   0.48785   0.00000  Uiso   1.00
H438   H     0.96897   0.56224   0.01916   0.00000  Uiso   1.00
H439   H     0.76061   0.48785   0.09235   0.00000  Uiso   1.00
H440   H     0.88108   0.56146   0.42334   0.00000  Uiso   1.00
H441   H     0.90044   0.62911   0.26299   0.00000  Uiso   1.00
H442   H     0.76635   0.37086   0.23680   0.00000  Uiso   1.00
H443   H     0.90061   0.37077   0.26271   0.00000  Uiso   1.00
H444   H     0.76628   0.62919   0.23694   0.00000  Uiso   1.00
H445   H     0.97762   0.44948   0.20229   0.00000  Uiso   1.00
H446   H     0.68923   0.55089   0.29721   0.00000  Uiso   1.00
H447   H     0.72857   0.44937   0.20244   0.00000  Uiso   1.00
H448   H     0.93815   0.55074   0.29742   0.00000  Uiso   1.00
N449   N     0.71426   0.50001   0.25001   0.00000  Uiso   1.00
N450   N     0.95241   0.49999   0.24999   0.00000  Uiso   1.00
O451   O     0.79512   0.56108   0.25000   0.00000  Uiso   1.00
O452   O     0.87154   0.43892   0.24999   0.00000  Uiso   1.00
O453   O     0.87157   0.56107   0.25000   0.00000  Uiso   1.00
O454   O     0.79510   0.43893   0.25000   0.00000  Uiso   1.00
O455   O     0.77328   0.50001   0.31612   0.00000  Uiso   1.00
O456   O     0.89339   0.49999   0.18387   0.00000  Uiso   1.00
O457   O     0.84972   0.50000   0.31612   0.00000  Uiso   1.00
O458   O     0.81695   0.50000   0.18388   0.00000  Uiso   1.00
Zn459  Zn    0.78229   0.50001   0.25000   0.00000  Uiso   1.00
Zn460  Zn    0.88438   0.49999   0.25000   0.00000  Uiso   1.00
C461   C     0.96567   0.54293   0.10435   0.00000  Uiso   1.00
C462   C     0.95058   0.58316   0.13316   0.00000  Uiso   1.00
C463   C     0.98535   0.59284   0.15751   0.00000  Uiso   1.00
H464   H     0.98401   0.56757   0.18240   0.00000  Uiso   1.00
H465   H     0.69046   0.59621   0.13111   0.00000  Uiso   1.00
H466   H     0.97398   0.62240   0.17750   0.00000  Uiso   1.00
H467   H     0.95146   0.60941   0.10948   0.00000  Uiso   1.00
H468   H     0.91241   0.58060   0.16004   0.00000  Uiso   1.00
H469   H     0.97186   0.51706   0.12507   0.00000  Uiso   1.00
H470   H     0.66875   0.54827   0.07507   0.00000  Uiso   1.00
C471   C     0.70416   0.45546   0.39670   0.00000  Uiso   1.00
C472   C     0.99615   0.48372   0.39560   0.00000  Uiso   1.00
C473   C     0.96396   0.46141   0.37458   0.00000  Uiso   1.00
H474   H     0.93467   0.48284   0.37399   0.00000  Uiso   1.00
H475   H     0.98651   0.45126   0.33801   0.00000  Uiso   1.00
H476   H     0.94613   0.43382   0.39615   0.00000  Uiso   1.00
H477   H     0.97265   0.49333   0.43208   0.00000  Uiso   1.00
H478   H     0.67871   0.51209   0.37466   0.00000  Uiso   1.00
H479   H     0.72652   0.44293   0.36121   0.00000  Uiso   1.00
H480   H     0.68739   0.42765   0.41851   0.00000  Uiso   1.00
C481   C     0.16659   0.91338   0.25019   0.00000  Uiso   1.00
C482   C     0.16670   0.75328   0.24993   0.00000  Uiso   1.00
C483   C     0.10636   0.82718   0.05517   0.00000  Uiso   1.00
C484   C     0.20648   0.88070   0.45713   0.00000  Uiso   1.00
C485   C     0.07303   0.81804   0.03513   0.00000  Uiso   1.00
C486   C     0.24051   0.88835   0.47686   0.00000  Uiso   1.00
C487   C     0.20452   0.97867   0.25709   0.00000  Uiso   1.00
C488   C     0.12898   0.68797   0.24265   0.00000  Uiso   1.00
C489   C     0.20460   0.68793   0.25694   0.00000  Uiso   1.00
C490   C     0.12893   0.97871   0.24273   0.00000  Uiso   1.00
C491   C     0.16678   0.70913   0.24982   0.00000  Uiso   1.00
C492   C     0.16666   0.95752   0.25002   0.00000  Uiso   1.00
C493   C     0.32034   0.80524   0.22351   0.00000  Uiso   1.00
C494   C     0.01310   0.86164   0.27621   0.00000  Uiso   1.00
C495   C     0.03495   0.80520   0.22358   0.00000  Uiso   1.00
C496   C     0.29842   0.86156   0.27631   0.00000  Uiso   1.00
C497   C     0.13547   0.83223   0.33836   0.00000  Uiso   1.00
C498   C     0.19787   0.83454   0.16154   0.00000  Uiso   1.00
C499   C     0.11451   0.83110   0.38995   0.00000  Uiso   1.00
C500   C     0.21755   0.84170   0.11039   0.00000  Uiso   1.00
C501   C     0.05454   0.81010   0.46639   0.00000  Uiso   1.00
C502   C     0.26923   0.87808   0.03921   0.00000  Uiso   1.00
C503   C     0.06919   0.81150   0.41750   0.00000  Uiso   1.00
C504   C     0.26134   0.86427   0.08464   0.00000  Uiso   1.00
C505   C     0.14343   0.84847   0.41172   0.00000  Uiso   1.00
C506   C     0.18547   0.83145   0.08890   0.00000  Uiso   1.00
C507   C     0.13066   0.84470   0.46010   0.00000  Uiso   1.00
C508   C     0.19030   0.84896   0.04607   0.00000  Uiso   1.00
C509   C     0.08562   0.82484   0.48741   0.00000  Uiso   1.00
C510   C     0.23357   0.87171   0.02053   0.00000  Uiso   1.00
C511   C     0.16347   0.85691   0.48123   0.00000  Uiso   1.00
C512   C     0.15334   0.84402   0.02794   0.00000  Uiso   1.00
H513   H     0.03802   0.80393   0.05674   0.00000  Uiso   1.00
H514   H     0.27302   0.90664   0.45730   0.00000  Uiso   1.00
H515   H     0.15547   0.81059   0.10746   0.00000  Uiso   1.00
H516   H     0.17783   0.86247   0.38937   0.00000  Uiso   1.00
H517   H     0.02009   0.79502   0.48785   0.00000  Uiso   1.00
H518   H     0.30230   0.89557   0.01916   0.00000  Uiso   1.00
H519   H     0.09395   0.82118   0.09235   0.00000  Uiso   1.00
H520   H     0.21442   0.89479   0.42334   0.00000  Uiso   1.00
H521   H     0.23378   0.96245   0.26299   0.00000  Uiso   1.00
H522   H     0.09968   0.70419   0.23680   0.00000  Uiso   1.00
H523   H     0.23394   0.70410   0.26271   0.00000  Uiso   1.00
H524   H     0.09961   0.96253   0.23694   0.00000  Uiso   1.00
H525   H     0.31095   0.78282   0.20229   0.00000  Uiso   1.00
H526   H     0.02256   0.88422   0.29721   0.00000  Uiso   1.00
H527   H     0.06191   0.78271   0.20244   0.00000  Uiso   1.00
H528   H     0.27148   0.88407   0.29742   0.00000  Uiso   1.00
N529   N     0.04759   0.83334   0.25001   0.00000  Uiso   1.00
N530   N     0.28574   0.83332   0.24999   0.00000  Uiso   1.00
O531   O     0.12846   0.89442   0.25000   0.00000  Uiso   1.00
O532   O     0.20488   0.77225   0.24999   0.00000  Uiso   1.00
O533   O     0.20490   0.89441   0.25000   0.00000  Uiso   1.00
O534   O     0.12843   0.77226   0.25000   0.00000  Uiso   1.00
O535   O     0.10661   0.83334   0.31612   0.00000  Uiso   1.00
O536   O     0.22672   0.83333   0.18387   0.00000  Uiso   1.00
O537   O     0.18305   0.83333   0.31612   0.00000  Uiso   1.00
O538   O     0.15028   0.83334   0.18388   0.00000  Uiso   1.00
Zn539  Zn    0.11562   0.83334   0.25000   0.00000  Uiso   1.00
Zn540  Zn    0.21771   0.83333   0.25000   0.00000  Uiso   1.00
C541   C     0.29900   0.87627   0.10435   0.00000  Uiso   1.00
C542   C     0.28392   0.91650   0.13316   0.00000  Uiso   1.00
C543   C     0.31869   0.92617   0.15751   0.00000  Uiso   1.00
H544   H     0.31734   0.90091   0.18240   0.00000  Uiso   1.00
H545   H     0.02380   0.92955   0.13111   0.00000  Uiso   1.00
H546   H     0.30731   0.95573   0.17750   0.00000  Uiso   1.00
H547   H     0.28480   0.94275   0.10948   0.00000  Uiso   1.00
H548   H     0.24575   0.91393   0.16004   0.00000  Uiso   1.00
H549   H     0.30519   0.85040   0.12507   0.00000  Uiso   1.00
H550   H     0.00209   0.88161   0.07507   0.00000  Uiso   1.00
C551   C     0.03749   0.78880   0.39670   0.00000  Uiso   1.00
C552   C     0.32949   0.81705   0.39560   0.00000  Uiso   1.00
C553   C     0.29729   0.79474   0.37458   0.00000  Uiso   1.00
H554   H     0.26800   0.81618   0.37399   0.00000  Uiso   1.00
H555   H     0.31985   0.78460   0.33801   0.00000  Uiso   1.00
H556   H     0.27946   0.76716   0.39615   0.00000  Uiso   1.00
H557   H     0.30598   0.82666   0.43208   0.00000  Uiso   1.00
H558   H     0.01204   0.84542   0.37466   0.00000  Uiso   1.00
H559   H     0.05985   0.77626   0.36121   0.00000  Uiso   1.00
H560   H     0.02073   0.76098   0.41851   0.00000  Uiso   1.00
C561   C     0.49992   0.91338   0.25019   0.00000  Uiso   1.00
C562   C     0.50003   0.75328   0.24993   0.00000  Uiso   1.00
C563   C     0.43969   0.82718   0.05517   0.00000  Uiso   1.00
C564   C     0.53981   0.88070   0.45713   0.00000  Uiso   1.00
C565   C     0.40636   0.81804   0.03513   0.00000  Uiso   1.00
C566   C     0.57384   0.88835   0.47686   0.00000  Uiso   1.00
C567   C     0.53785   0.97867   0.25709   0.00000  Uiso   1.00
C568   C     0.46231   0.68797   0.24265   0.00000  Uiso   1.00
C569   C     0.53794   0.68793   0.25694   0.00000  Uiso   1.00
C570   C     0.46226   0.97871   0.24273   0.00000  Uiso   1.00
C571   C     0.50011   0.70913   0.24982   0.00000  Uiso   1.00
C572   C     0.49999   0.95752   0.25002   0.00000  Uiso   1.00
C573   C     0.65367   0.80524   0.22351   0.00000  Uiso   1.00
C574   C     0.34644   0.86164   0.27621   0.00000  Uiso   1.00
C575   C     0.36828   0.80520   0.22358   0.00000  Uiso   1.00
C576   C     0.63176   0.86156   0.27631   0.00000  Uiso   1.00
C577   C     0.46880   0.83223   0.33836   0.00000  Uiso   1.00
C578   C     0.53120   0.83454   0.16154   0.00000  Uiso   1.00
C579   C     0.44784   0.83110   0.38995   0.00000  Uiso   1.00
C580   C     0.55088   0.84170   0.11039   0.00000  Uiso   1.00
C581   C     0.38788   0.81010   0.46639   0.00000  Uiso   1.00
C582   C     0.60256   0.87808   0.03921   0.00000  Uiso   1.00
C583   C     0.40252   0.81150   0.41750   0.00000  Uiso   1.00
C584   C     0.59468   0.86427   0.08464   0.00000  Uiso   1.00
C585   C     0.47676   0.84847   0.41172   0.00000  Uiso   1.00
C586   C     0.51880   0.83145   0.08890   0.00000  Uiso   1.00
C587   C     0.46399   0.84470   0.46010   0.00000  Uiso   1.00
C588   C     0.52364   0.84896   0.04607   0.00000  Uiso   1.00
C589   C     0.41895   0.82484   0.48741   0.00000  Uiso   1.00
C590   C     0.56691   0.87171   0.02053   0.00000  Uiso   1.00
C591   C     0.49681   0.85691   0.48123   0.00000  Uiso   1.00
C592   C     0.48668   0.84402   0.02794   0.00000  Uiso   1.00
H593   H     0.37136   0.80393   0.05674   0.00000  Uiso   1.00
H594   H     0.60635   0.90664   0.45730   0.00000  Uiso   1.00
H595   H     0.48881   0.81059   0.10746   0.00000  Uiso   1.00
H596   H     0.51116   0.86247   0.38937   0.00000  Uiso   1.00
H597   H     0.35343   0.79502   0.48785   0.00000  Uiso   1.00
H598   H     0.63563   0.89557   0.01916   0.00000  Uiso   1.00
H599   H     0.42728   0.82118   0.09235   0.00000  Uiso   1.00
H600   H     0.54775   0.89479   0.42334   0.00000  Uiso   1.00
H601   H     0.56711   0.96245   0.26299   0.00000  Uiso   1.00
H602   H     0.43302   0.70419   0.23680   0.00000  Uiso   1.00
H603   H     0.56728   0.70410   0.26271   0.00000  Uiso   1.00
H604   H     0.43294   0.96253   0.23694   0.00000  Uiso   1.00
H605   H     0.64429   0.78282   0.20229   0.00000  Uiso   1.00
H606   H     0.35590   0.88422   0.29721   0.00000  Uiso   1.00
H607   H     0.39524   0.78271   0.20244   0.00000  Uiso   1.00
H608   H     0.60481   0.88407   0.29742   0.00000  Uiso   1.00
N609   N     0.38093   0.83334   0.25001   0.00000  Uiso   1.00
N610   N     0.61907   0.83332   0.24999   0.00000  Uiso   1.00
O611   O     0.46179   0.89442   0.25000   0.00000  Uiso   1.00
O612   O     0.53821   0.77225   0.24999   0.00000  Uiso   1.00
O613   O     0.53823   0.89441   0.25000   0.00000  Uiso   1.00
O614   O     0.46177   0.77226   0.25000   0.00000  Uiso   1.00
O615   O     0.43994   0.83334   0.31612   0.00000  Uiso   1.00
O616   O     0.56006   0.83333   0.18387   0.00000  Uiso   1.00
O617   O     0.51639   0.83333   0.31612   0.00000  Uiso   1.00
O618   O     0.48361   0.83334   0.18388   0.00000  Uiso   1.00
Zn619  Zn    0.44896   0.83334   0.25000   0.00000  Uiso   1.00
Zn620  Zn    0.55104   0.83333   0.25000   0.00000  Uiso   1.00
C621   C     0.63233   0.87627   0.10435   0.00000  Uiso   1.00
C622   C     0.61725   0.91650   0.13316   0.00000  Uiso   1.00
C623   C     0.65202   0.92617   0.15751   0.00000  Uiso   1.00
H624   H     0.65067   0.90091   0.18240   0.00000  Uiso   1.00
H625   H     0.35713   0.92955   0.13111   0.00000  Uiso   1.00
H626   H     0.64064   0.95573   0.17750   0.00000  Uiso   1.00
H627   H     0.61813   0.94275   0.10948   0.00000  Uiso   1.00
H628   H     0.57908   0.91393   0.16004   0.00000  Uiso   1.00
H629   H     0.63852   0.85040   0.12507   0.00000  Uiso   1.00
H630   H     0.33542   0.88161   0.07507   0.00000  Uiso   1.00
C631   C     0.37082   0.78880   0.39670   0.00000  Uiso   1.00
C632   C     0.66282   0.81705   0.39560   0.00000  Uiso   1.00
C633   C     0.63063   0.79474   0.37458   0.00000  Uiso   1.00
H634   H     0.60134   0.81618   0.37399   0.00000  Uiso   1.00
H635   H     0.65318   0.78460   0.33801   0.00000  Uiso   1.00
H636   H     0.61280   0.76716   0.39615   0.00000  Uiso   1.00
H637   H     0.63932   0.82666   0.43208   0.00000  Uiso   1.00
H638   H     0.34538   0.84542   0.37466   0.00000  Uiso   1.00
H639   H     0.39318   0.77626   0.36121   0.00000  Uiso   1.00
H640   H     0.35406   0.76098   0.41851   0.00000  Uiso   1.00
C641   C     0.83325   0.91338   0.25019   0.00000  Uiso   1.00
C642   C     0.83336   0.75328   0.24993   0.00000  Uiso   1.00
C643   C     0.77303   0.82718   0.05517   0.00000  Uiso   1.00
C644   C     0.87315   0.88070   0.45713   0.00000  Uiso   1.00
C645   C     0.73969   0.81804   0.03513   0.00000  Uiso   1.00
C646   C     0.90718   0.88835   0.47686   0.00000  Uiso   1.00
C647   C     0.87118   0.97867   0.25709   0.00000  Uiso   1.00
C648   C     0.79564   0.68797   0.24265   0.00000  Uiso   1.00
C649   C     0.87127   0.68793   0.25694   0.00000  Uiso   1.00
C650   C     0.79559   0.97871   0.24273   0.00000  Uiso   1.00
C651   C     0.83344   0.70913   0.24982   0.00000  Uiso   1.00
C652   C     0.83333   0.95752   0.25002   0.00000  Uiso   1.00
C653   C     0.98701   0.80524   0.22351   0.00000  Uiso   1.00
C654   C     0.67977   0.86164   0.27621   0.00000  Uiso   1.00
C655   C     0.70162   0.80520   0.22358   0.00000  Uiso   1.00
C656   C     0.96509   0.86156   0.27631   0.00000  Uiso   1.00
C657   C     0.80214   0.83223   0.33836   0.00000  Uiso   1.00
C658   C     0.86454   0.83454   0.16154   0.00000  Uiso   1.00
C659   C     0.78117   0.83110   0.38995   0.00000  Uiso   1.00
C660   C     0.88422   0.84170   0.11039   0.00000  Uiso   1.00
C661   C     0.72121   0.81010   0.46639   0.00000  Uiso   1.00
C662   C     0.93589   0.87808   0.03921   0.00000  Uiso   1.00
C663   C     0.73585   0.81150   0.41750   0.00000  Uiso   1.00
C664   C     0.92801   0.86427   0.08464   0.00000  Uiso   1.00
C665   C     0.81009   0.84847   0.41172   0.00000  Uiso   1.00
C666   C     0.85213   0.83145   0.08890   0.00000  Uiso   1.00
C667   C     0.79733   0.84470   0.46010   0.00000  Uiso   1.00
C668   C     0.85697   0.84896   0.04607   0.00000  Uiso   1.00
C669   C     0.75228   0.82484   0.48741   0.00000  Uiso   1.00
C670   C     0.90024   0.87171   0.02053   0.00000  Uiso   1.00
C671   C     0.83014   0.85691   0.48123   0.00000  Uiso   1.00
C672   C     0.82001   0.84402   0.02794   0.00000  Uiso   1.00
H673   H     0.70469   0.80393   0.05674   0.00000  Uiso   1.00
H674   H     0.93969   0.90664   0.45730   0.00000  Uiso   1.00
H675   H     0.82214   0.81059   0.10746   0.00000  Uiso   1.00
H676   H     0.84449   0.86247   0.38937   0.00000  Uiso   1.00
H677   H     0.68676   0.79502   0.48785   0.00000  Uiso   1.00
H678   H     0.96897   0.89557   0.01916   0.00000  Uiso   1.00
H679   H     0.76061   0.82118   0.09235   0.00000  Uiso   1.00
H680   H     0.88108   0.89479   0.42334   0.00000  Uiso   1.00
H681   H     0.90044   0.96245   0.26299   0.00000  Uiso   1.00
H682   H     0.76635   0.70419   0.23680   0.00000  Uiso   1.00
H683   H     0.90061   0.70410   0.26271   0.00000  Uiso   1.00
H684   H     0.76628   0.96253   0.23694   0.00000  Uiso   1.00
H685   H     0.97762   0.78282   0.20229   0.00000  Uiso   1.00
H686   H     0.68923   0.88422   0.29721   0.00000  Uiso   1.00
H687   H     0.72857   0.78271   0.20244   0.00000  Uiso   1.00
H688   H     0.93815   0.88407   0.29742   0.00000  Uiso   1.00
N689   N     0.71426   0.83334   0.25001   0.00000  Uiso   1.00
N690   N     0.95241   0.83332   0.24999   0.00000  Uiso   1.00
O691   O     0.79512   0.89442   0.25000   0.00000  Uiso   1.00
O692   O     0.87154   0.77225   0.24999   0.00000  Uiso   1.00
O693   O     0.87157   0.89441   0.25000   0.00000  Uiso   1.00
O694   O     0.79510   0.77226   0.25000   0.00000  Uiso   1.00
O695   O     0.77328   0.83334   0.31612   0.00000  Uiso   1.00
O696   O     0.89339   0.83333   0.18387   0.00000  Uiso   1.00
O697   O     0.84972   0.83333   0.31612   0.00000  Uiso   1.00
O698   O     0.81695   0.83334   0.18388   0.00000  Uiso   1.00
Zn699  Zn    0.78229   0.83334   0.25000   0.00000  Uiso   1.00
Zn700  Zn    0.88438   0.83333   0.25000   0.00000  Uiso   1.00
C701   C     0.96567   0.87627   0.10435   0.00000  Uiso   1.00
C702   C     0.95058   0.91650   0.13316   0.00000  Uiso   1.00
C703   C     0.98535   0.92617   0.15751   0.00000  Uiso   1.00
H704   H     0.98401   0.90091   0.18240   0.00000  Uiso   1.00
H705   H     0.69046   0.92955   0.13111   0.00000  Uiso   1.00
H706   H     0.97398   0.95573   0.17750   0.00000  Uiso   1.00
H707   H     0.95146   0.94275   0.10948   0.00000  Uiso   1.00
H708   H     0.91241   0.91393   0.16004   0.00000  Uiso   1.00
H709   H     0.97186   0.85040   0.12507   0.00000  Uiso   1.00
H710   H     0.66875   0.88161   0.07507   0.00000  Uiso   1.00
C711   C     0.70416   0.78880   0.39670   0.00000  Uiso   1.00
C712   C     0.99615   0.81705   0.39560   0.00000  Uiso   1.00
C713   C     0.96396   0.79474   0.37458   0.00000  Uiso   1.00
H714   H     0.93467   0.81618   0.37399   0.00000  Uiso   1.00
H715   H     0.98651   0.78460   0.33801   0.00000  Uiso   1.00
H716   H     0.94613   0.76716   0.39615   0.00000  Uiso   1.00
H717   H     0.97265   0.82666   0.43208   0.00000  Uiso   1.00
H718   H     0.67871   0.84542   0.37466   0.00000  Uiso   1.00
H719   H     0.72652   0.77626   0.36121   0.00000  Uiso   1.00
H720   H     0.68739   0.76098   0.41851   0.00000  Uiso   1.00
C721   C     0.16659   0.24672   0.75019   0.00000  Uiso   1.00
C722   C     0.16670   0.08661   0.74993   0.00000  Uiso   1.00
C723   C     0.10636   0.16051   0.55517   0.00000  Uiso   1.00
C724   C     0.20648   0.21403   0.95713   0.00000  Uiso   1.00
C725   C     0.07303   0.15138   0.53513   0.00000  Uiso   1.00
C726   C     0.24051   0.22168   0.97686   0.00000  Uiso   1.00
C727   C     0.20452   0.31200   0.75709   0.00000  Uiso   1.00
C728   C     0.12898   0.02131   0.74265   0.00000  Uiso   1.00
C729   C     0.20460   0.02126   0.75694   0.00000  Uiso   1.00
C730   C     0.12893   0.31205   0.74273   0.00000  Uiso   1.00
C731   C     0.16678   0.04246   0.74982   0.00000  Uiso   1.00
C732   C     0.16666   0.29085   0.75002   0.00000  Uiso   1.00
C733   C     0.32034   0.13857   0.72351   0.00000  Uiso   1.00
C734   C     0.01310   0.19498   0.77621   0.00000  Uiso   1.00
C735   C     0.03495   0.13853   0.72358   0.00000  Uiso   1.00
C736   C     0.29842   0.19489   0.77631   0.00000  Uiso   1.00
C737   C     0.13547   0.16556   0.83836   0.00000  Uiso   1.00
C738   C     0.19787   0.16788   0.66154   0.00000  Uiso   1.00
C739   C     0.11451   0.16443   0.88995   0.00000  Uiso   1.00
C740   C     0.21755   0.17503   0.61039   0.00000  Uiso   1.00
C741   C     0.05454   0.14343   0.96639   0.00000  Uiso   1.00
C742   C     0.26923   0.21141   0.53921   0.00000  Uiso   1.00
C743   C     0.06919   0.14484   0.91750   0.00000  Uiso   1.00
C744   C     0.26134   0.19761   0.58464   0.00000  Uiso   1.00
C745   C     0.14343   0.18180   0.91172   0.00000  Uiso   1.00
C746   C     0.18547   0.16478   0.58890   0.00000  Uiso   1.00
C747   C     0.13066   0.17804   0.96010   0.00000  Uiso   1.00
C748   C     0.19030   0.18230   0.54607   0.00000  Uiso   1.00
C749   C     0.08562   0.15817   0.98741   0.00000  Uiso   1.00
C750   C     0.23357   0.20504   0.52053   0.00000  Uiso   1.00
C751   C     0.16347   0.19024   0.98123   0.00000  Uiso   1.00
C752   C     0.15334   0.17736   0.52794   0.00000  Uiso   1.00
H753   H     0.03802   0.13726   0.55674   0.00000  Uiso   1.00
H754   H     0.27302   0.23997   0.95730   0.00000  Uiso   1.00
H755   H     0.15547   0.14393   0.60746   0.00000  Uiso   1.00
H756   H     0.17783   0.19580   0.88937   0.00000  Uiso   1.00
H757   H     0.02009   0.12835   0.98785   0.00000  Uiso   1.00
H758   H     0.30230   0.22890   0.51916   0.00000  Uiso   1.00
H759   H     0.09395   0.15451   0.59235   0.00000  Uiso   1.00
H760   H     0.21442   0.22812   0.92334   0.00000  Uiso   1.00
H761   H     0.23378   0.29578   0.76299   0.00000  Uiso   1.00
H762   H     0.09968   0.03752   0.73680   0.00000  Uiso   1.00
H763   H     0.23394   0.03744   0.76271   0.00000  Uiso   1.00
H764   H     0.09961   0.29586   0.73694   0.00000  Uiso   1.00
H765   H     0.31095   0.11615   0.70229   0.00000  Uiso   1.00
H766   H     0.02256   0.21756   0.79721   0.00000  Uiso   1.00
H767   H     0.06191   0.11604   0.70244   0.00000  Uiso   1.00
H768   H     0.27148   0.21740   0.79742   0.00000  Uiso   1.00
N769   N     0.04759   0.16668   0.75001   0.00000  Uiso   1.00
N770   N     0.28574   0.16666   0.74999   0.00000  Uiso   1.00
O771   O     0.12846   0.22775   0.75000   0.00000  Uiso   1.00
O772   O     0.20488   0.10558   0.74999   0.00000  Uiso   1.00
O773   O     0.20490   0.22774   0.75000   0.00000  Uiso   1.00
O774   O     0.12843   0.10559   0.75000   0.00000  Uiso   1.00
O775   O     0.10661   0.16667   0.81612   0.00000  Uiso   1.00
O776   O     0.22672   0.16666   0.68387   0.00000  Uiso   1.00
O777   O     0.18305   0.16666   0.81612   0.00000  Uiso   1.00
O778   O     0.15028   0.16667   0.68388   0.00000  Uiso   1.00
Zn779  Zn    0.11562   0.16667   0.75000   0.00000  Uiso   1.00
Zn780  Zn    0.21771   0.16666   0.75000   0.00000  Uiso   1.00
C781   C     0.29900   0.20960   0.60435   0.00000  Uiso   1.00
C782   C     0.28392   0.24983   0.63316   0.00000  Uiso   1.00
C783   C     0.31869   0.25951   0.65751   0.00000  Uiso   1.00
H784   H     0.31734   0.23424   0.68240   0.00000  Uiso   1.00
H785   H     0.02380   0.26288   0.63111   0.00000  Uiso   1.00
H786   H     0.30731   0.28906   0.67750   0.00000  Uiso   1.00
H787   H     0.28480   0.27608   0.60948   0.00000  Uiso   1.00
H788   H     0.24575   0.24727   0.66004   0.00000  Uiso   1.00
H789   H     0.30519   0.18373   0.62507   0.00000  Uiso   1.00
H790   H     0.00209   0.21494   0.57507   0.00000  Uiso   1.00
C791   C     0.03749   0.12213   0.89670   0.00000  Uiso   1.00
C792   C     0.32949   0.15039   0.89560   0.00000  Uiso   1.00
C793   C     0.29729   0.12807   0.87458   0.00000  Uiso   1.00
H794   H     0.26800   0.14951   0.87399   0.00000  Uiso   1.00
H795   H     0.31985   0.11793   0.83801   0.00000  Uiso   1.00
H796   H     0.27946   0.10049   0.89615   0.00000  Uiso   1.00
H797   H     0.30598   0.16000   0.93208   0.00000  Uiso   1.00
H798   H     0.01204   0.17876   0.87466   0.00000  Uiso   1.00
H799   H     0.05985   0.10959   0.86121   0.00000  Uiso   1.00
H800   H     0.02073   0.09432   0.91851   0.00000  Uiso   1.00
C801   C     0.49992   0.24672   0.75019   0.00000  Uiso   1.00
C802   C     0.50003   0.08661   0.74993   0.00000  Uiso   1.00
C803   C     0.43969   0.16051   0.55517   0.00000  Uiso   1.00
C804   C     0.53981   0.21403   0.95713   0.00000  Uiso   1.00
C805   C     0.40636   0.15138   0.53513   0.00000  Uiso   1.00
C806   C     0.57384   0.22168   0.97686   0.00000  Uiso   1.00
C807   C     0.53785   0.31200   0.75709   0.00000  Uiso   1.00
C808   C     0.46231   0.02131   0.74265   0.00000  Uiso   1.00
C809   C     0.53794   0.02126   0.75694   0.00000  Uiso   1.00
C810   C     0.46226   0.31205   0.74273   0.00000  Uiso   1.00
C811   C     0.50011   0.04246   0.74982   0.00000  Uiso   1.00
C812   C     0.49999   0.29085   0.75002   0.00000  Uiso   1.00
C813   C     0.65367   0.13857   0.72351   0.00000  Uiso   1.00
C814   C     0.34644   0.19498   0.77621   0.00000  Uiso   1.00
C815   C     0.36828   0.13853   0.72358   0.00000  Uiso   1.00
C816   C     0.63176   0.19489   0.77631   0.00000  Uiso   1.00
C817   C     0.46880   0.16556   0.83836   0.00000  Uiso   1.00
C818   C     0.53120   0.16788   0.66154   0.00000  Uiso   1.00
C819   C     0.44784   0.16443   0.88995   0.00000  Uiso   1.00
C820   C     0.55088   0.17503   0.61039   0.00000  Uiso   1.00
C821   C     0.38788   0.14343   0.96639   0.00000  Uiso   1.00
C822   C     0.60256   0.21141   0.53921   0.00000  Uiso   1.00
C823   C     0.40252   0.14484   0.91750   0.00000  Uiso   1.00
C824   C     0.59468   0.19761   0.58464   0.00000  Uiso   1.00
C825   C     0.47676   0.18180   0.91172   0.00000  Uiso   1.00
C826   C     0.51880   0.16478   0.58890   0.00000  Uiso   1.00
C827   C     0.46399   0.17804   0.96010   0.00000  Uiso   1.00
C828   C     0.52364   0.18230   0.54607   0.00000  Uiso   1.00
C829   C     0.41895   0.15817   0.98741   0.00000  Uiso   1.00
C830   C     0.56691   0.20504   0.52053   0.00000  Uiso   1.00
C831   C     0.49681   0.19024   0.98123   0.00000  Uiso   1.00
C832   C     0.48668   0.17736   0.52794   0.00000  Uiso   1.00
H833   H     0.37136   0.13726   0.55674   0.00000  Uiso   1.00
H834   H     0.60635   0.23997   0.95730   0.00000  Uiso   1.00
H835   H     0.48881   0.14393   0.60746   0.00000  Uiso   1.00
H836   H     0.51116   0.19580   0.88937   0.00000  Uiso   1.00
H837   H     0.35343   0.12835   0.98785   0.00000  Uiso   1.00
H838   H     0.63563   0.22890   0.51916   0.00000  Uiso   1.00
H839   H     0.42728   0.15451   0.59235   0.00000  Uiso   1.00
H840   H     0.54775   0.22812   0.92334   0.00000  Uiso   1.00
H841   H     0.56711   0.29578   0.76299   0.00000  Uiso   1.00
H842   H     0.43302   0.03752   0.73680   0.00000  Uiso   1.00
H843   H     0.56728   0.03744   0.76271   0.00000  Uiso   1.00
H844   H     0.43294   0.29586   0.73694   0.00000  Uiso   1.00
H845   H     0.64429   0.11615   0.70229   0.00000  Uiso   1.00
H846   H     0.35590   0.21756   0.79721   0.00000  Uiso   1.00
H847   H     0.39524   0.11604   0.70244   0.00000  Uiso   1.00
H848   H     0.60481   0.21740   0.79742   0.00000  Uiso   1.00
N849   N     0.38093   0.16668   0.75001   0.00000  Uiso   1.00
N850   N     0.61907   0.16666   0.74999   0.00000  Uiso   1.00
O851   O     0.46179   0.22775   0.75000   0.00000  Uiso   1.00
O852   O     0.53821   0.10558   0.74999   0.00000  Uiso   1.00
O853   O     0.53823   0.22774   0.75000   0.00000  Uiso   1.00
O854   O     0.46177   0.10559   0.75000   0.00000  Uiso   1.00
O855   O     0.43994   0.16667   0.81612   0.00000  Uiso   1.00
O856   O     0.56006   0.16666   0.68387   0.00000  Uiso   1.00
O857   O     0.51639   0.16666   0.81612   0.00000  Uiso   1.00
O858   O     0.48361   0.16667   0.68388   0.00000  Uiso   1.00
Zn859  Zn    0.44896   0.16667   0.75000   0.00000  Uiso   1.00
Zn860  Zn    0.55104   0.16666   0.75000   0.00000  Uiso   1.00
C861   C     0.63233   0.20960   0.60435   0.00000  Uiso   1.00
C862   C     0.61725   0.24983   0.63316   0.00000  Uiso   1.00
C863   C     0.65202   0.25951   0.65751   0.00000  Uiso   1.00
H864   H     0.65067   0.23424   0.68240   0.00000  Uiso   1.00
H865   H     0.35713   0.26288   0.63111   0.00000  Uiso   1.00
H866   H     0.64064   0.28906   0.67750   0.00000  Uiso   1.00
H867   H     0.61813   0.27608   0.60948   0.00000  Uiso   1.00
H868   H     0.57908   0.24727   0.66004   0.00000  Uiso   1.00
H869   H     0.63852   0.18373   0.62507   0.00000  Uiso   1.00
H870   H     0.33542   0.21494   0.57507   0.00000  Uiso   1.00
C871   C     0.37082   0.12213   0.89670   0.00000  Uiso   1.00
C872   C     0.66282   0.15039   0.89560   0.00000  Uiso   1.00
C873   C     0.63063   0.12807   0.87458   0.00000  Uiso   1.00
H874   H     0.60134   0.14951   0.87399   0.00000  Uiso   1.00
H875   H     0.65318   0.11793   0.83801   0.00000  Uiso   1.00
H876   H     0.61280   0.10049   0.89615   0.00000  Uiso   1.00
H877   H     0.63932   0.16000   0.93208   0.00000  Uiso   1.00
H878   H     0.34538   0.17876   0.87466   0.00000  Uiso   1.00
H879   H     0.39318   0.10959   0.86121   0.00000  Uiso   1.00
H880   H     0.35406   0.09432   0.91851   0.00000  Uiso   1.00
C881   C     0.83325   0.24672   0.75019   0.00000  Uiso   1.00
C882   C     0.83336   0.08661   0.74993   0.00000  Uiso   1.00
C883   C     0.77303   0.16051   0.55517   0.00000  Uiso   1.00
C884   C     0.87315   0.21403   0.95713   0.00000  Uiso   1.00
C885   C     0.73969   0.15138   0.53513   0.00000  Uiso   1.00
C886   C     0.90718   0.22168   0.97686   0.00000  Uiso   1.00
C887   C     0.87118   0.31200   0.75709   0.00000  Uiso   1.00
C888   C     0.79564   0.02131   0.74265   0.00000  Uiso   1.00
C889   C     0.87127   0.02126   0.75694   0.00000  Uiso   1.00
C890   C     0.79559   0.31205   0.74273   0.00000  Uiso   1.00
C891   C     0.83344   0.04246   0.74982   0.00000  Uiso   1.00
C892   C     0.83333   0.29085   0.75002   0.00000  Uiso   1.00
C893   C     0.98701   0.13857   0.72351   0.00000  Uiso   1.00
C894   C     0.67977   0.19498   0.77621   0.00000  Uiso   1.00
C895   C     0.70162   0.13853   0.72358   0.00000  Uiso   1.00
C896   C     0.96509   0.19489   0.77631   0.00000  Uiso   1.00
C897   C     0.80214   0.16556   0.83836   0.00000  Uiso   1.00
C898   C     0.86454   0.16788   0.66154   0.00000  Uiso   1.00
C899   C     0.78117   0.16443   0.88995   0.00000  Uiso   1.00
C900   C     0.88422   0.17503   0.61039   0.00000  Uiso   1.00
C901   C     0.72121   0.14343   0.96639   0.00000  Uiso   1.00
C902   C     0.93589   0.21141   0.53921   0.00000  Uiso   1.00
C903   C     0.73585   0.14484   0.91750   0.00000  Uiso   1.00
C904   C     0.92801   0.19761   0.58464   0.00000  Uiso   1.00
C905   C     0.81009   0.18180   0.91172   0.00000  Uiso   1.00
C906   C     0.85213   0.16478   0.58890   0.00000  Uiso   1.00
C907   C     0.79733   0.17804   0.96010   0.00000  Uiso   1.00
C908   C     0.85697   0.18230   0.54607   0.00000  Uiso   1.00
C909   C     0.75228   0.15817   0.98741   0.00000  Uiso   1.00
C910   C     0.90024   0.20504   0.52053   0.00000  Uiso   1.00
C911   C     0.83014   0.19024   0.98123   0.00000  Uiso   1.00
C912   C     0.82001   0.17736   0.52794   0.00000  Uiso   1.00
H913   H     0.70469   0.13726   0.55674   0.00000  Uiso   1.00
H914   H     0.93969   0.23997   0.95730   0.00000  Uiso   1.00
H915   H     0.82214   0.14393   0.60746   0.00000  Uiso   1.00
H916   H     0.84449   0.19580   0.88937   0.00000  Uiso   1.00
H917   H     0.68676   0.12835   0.98785   0.00000  Uiso   1.00
H918   H     0.96897   0.22890   0.51916   0.00000  Uiso   1.00
H919   H     0.76061   0.15451   0.59235   0.00000  Uiso   1.00
H920   H     0.88108   0.22812   0.92334   0.00000  Uiso   1.00
H921   H     0.90044   0.29578   0.76299   0.00000  Uiso   1.00
H922   H     0.76635   0.03752   0.73680   0.00000  Uiso   1.00
H923   H     0.90061   0.03744   0.76271   0.00000  Uiso   1.00
H924   H     0.76628   0.29586   0.73694   0.00000  Uiso   1.00
H925   H     0.97762   0.11615   0.70229   0.00000  Uiso   1.00
H926   H     0.68923   0.21756   0.79721   0.00000  Uiso   1.00
H927   H     0.72857   0.11604   0.70244   0.00000  Uiso   1.00
H928   H     0.93815   0.21740   0.79742   0.00000  Uiso   1.00
N929   N     0.71426   0.16668   0.75001   0.00000  Uiso   1.00
N930   N     0.95241   0.16666   0.74999   0.00000  Uiso   1.00
O931   O     0.79512   0.22775   0.75000   0.00000  Uiso   1.00
O932   O     0.87154   0.10558   0.74999   0.00000  Uiso   1.00
O933   O     0.87157   0.22774   0.75000   0.00000  Uiso   1.00
O934   O     0.79510   0.10559   0.75000   0.00000  Uiso   1.00
O935   O     0.77328   0.16667   0.81612   0.00000  Uiso   1.00
O936   O     0.89339   0.16666   0.68387   0.00000  Uiso   1.00
O937   O     0.84972   0.16666   0.81612   0.00000  Uiso   1.00
O938   O     0.81695   0.16667   0.68388   0.00000  Uiso   1.00
Zn939  Zn    0.78229   0.16667   0.75000   0.00000  Uiso   1.00
Zn940  Zn    0.88438   0.16666   0.75000   0.00000  Uiso   1.00
C941   C     0.96567   0.20960   0.60435   0.00000  Uiso   1.00
C942   C     0.95058   0.24983   0.63316   0.00000  Uiso   1.00
C943   C     0.98535   0.25951   0.65751   0.00000  Uiso   1.00
H944   H     0.98401   0.23424   0.68240   0.00000  Uiso   1.00
H945   H     0.69046   0.26288   0.63111   0.00000  Uiso   1.00
H946   H     0.97398   0.28906   0.67750   0.00000  Uiso   1.00
H947   H     0.95146   0.27608   0.60948   0.00000  Uiso   1.00
H948   H     0.91241   0.24727   0.66004   0.00000  Uiso   1.00
H949   H     0.97186   0.18373   0.62507   0.00000  Uiso   1.00
H950   H     0.66875   0.21494   0.57507   0.00000  Uiso   1.00
C951   C     0.70416   0.12213   0.89670   0.00000  Uiso   1.00
C952   C     0.99615   0.15039   0.89560   0.00000  Uiso   1.00
C953   C     0.96396   0.12807   0.87458   0.00000  Uiso   1.00
H954   H     0.93467   0.14951   0.87399   0.00000  Uiso   1.00
H955   H     0.98651   0.11793   0.83801   0.00000  Uiso   1.00
H956   H     0.94613   0.10049   0.89615   0.00000  Uiso   1.00
H957   H     0.97265   0.16000   0.93208   0.00000  Uiso   1.00
H958   H     0.67871   0.17876   0.87466   0.00000  Uiso   1.00
H959   H     0.72652   0.10959   0.86121   0.00000  Uiso   1.00
H960   H     0.68739   0.09432   0.91851   0.00000  Uiso   1.00
C961   C     0.16659   0.58005   0.75019   0.00000  Uiso   1.00
C962   C     0.16670   0.41994   0.74993   0.00000  Uiso   1.00
C963   C     0.10636   0.49384   0.55517   0.00000  Uiso   1.00
C964   C     0.20648   0.54736   0.95713   0.00000  Uiso   1.00
C965   C     0.07303   0.48471   0.53513   0.00000  Uiso   1.00
C966   C     0.24051   0.55501   0.97686   0.00000  Uiso   1.00
C967   C     0.20452   0.64534   0.75709   0.00000  Uiso   1.00
C968   C     0.12898   0.35464   0.74265   0.00000  Uiso   1.00
C969   C     0.20460   0.35459   0.75694   0.00000  Uiso   1.00
C970   C     0.12893   0.64538   0.74273   0.00000  Uiso   1.00
C971   C     0.16678   0.37579   0.74982   0.00000  Uiso   1.00
C972   C     0.16666   0.62419   0.75002   0.00000  Uiso   1.00
C973   C     0.32034   0.47190   0.72351   0.00000  Uiso   1.00
C974   C     0.01310   0.52831   0.77621   0.00000  Uiso   1.00
C975   C     0.03495   0.47187   0.72358   0.00000  Uiso   1.00
C976   C     0.29842   0.52822   0.77631   0.00000  Uiso   1.00
C977   C     0.13547   0.49889   0.83836   0.00000  Uiso   1.00
C978   C     0.19787   0.50121   0.66154   0.00000  Uiso   1.00
C979   C     0.11451   0.49777   0.88995   0.00000  Uiso   1.00
C980   C     0.21755   0.50836   0.61039   0.00000  Uiso   1.00
C981   C     0.05454   0.47677   0.96639   0.00000  Uiso   1.00
C982   C     0.26923   0.54474   0.53921   0.00000  Uiso   1.00
C983   C     0.06919   0.47817   0.91750   0.00000  Uiso   1.00
C984   C     0.26134   0.53094   0.58464   0.00000  Uiso   1.00
C985   C     0.14343   0.51513   0.91172   0.00000  Uiso   1.00
C986   C     0.18547   0.49812   0.58890   0.00000  Uiso   1.00
C987   C     0.13066   0.51137   0.96010   0.00000  Uiso   1.00
C988   C     0.19030   0.51563   0.54607   0.00000  Uiso   1.00
C989   C     0.08562   0.49151   0.98741   0.00000  Uiso   1.00
C990   C     0.23357   0.53838   0.52053   0.00000  Uiso   1.00
C991   C     0.16347   0.52357   0.98123   0.00000  Uiso   1.00
C992   C     0.15334   0.51069   0.52794   0.00000  Uiso   1.00
H993   H     0.03802   0.47060   0.55674   0.00000  Uiso   1.00
H994   H     0.27302   0.57331   0.95730   0.00000  Uiso   1.00
H995   H     0.15547   0.47726   0.60746   0.00000  Uiso   1.00
H996   H     0.17783   0.52914   0.88937   0.00000  Uiso   1.00
H997   H     0.02009   0.46168   0.98785   0.00000  Uiso   1.00
H998   H     0.30230   0.56224   0.51916   0.00000  Uiso   1.00
H999   H     0.09395   0.48785   0.59235   0.00000  Uiso   1.00
H1000  H     0.21442   0.56146   0.92334   0.00000  Uiso   1.00
H1001  H     0.23378   0.62911   0.76299   0.00000  Uiso   1.00
H1002  H     0.09968   0.37086   0.73680   0.00000  Uiso   1.00
H1003  H     0.23394   0.37077   0.76271   0.00000  Uiso   1.00
H1004  H     0.09961   0.62919   0.73694   0.00000  Uiso   1.00
H1005  H     0.31095   0.44948   0.70229   0.00000  Uiso   1.00
H1006  H     0.02256   0.55089   0.79721   0.00000  Uiso   1.00
H1007  H     0.06191   0.44937   0.70244   0.00000  Uiso   1.00
H1008  H     0.27148   0.55074   0.79742   0.00000  Uiso   1.00
N1009  N     0.04759   0.50001   0.75001   0.00000  Uiso   1.00
N1010  N     0.28574   0.49999   0.74999   0.00000  Uiso   1.00
O1011  O     0.12846   0.56108   0.75000   0.00000  Uiso   1.00
O1012  O     0.20488   0.43892   0.74999   0.00000  Uiso   1.00
O1013  O     0.20490   0.56107   0.75000   0.00000  Uiso   1.00
O1014  O     0.12843   0.43893   0.75000   0.00000  Uiso   1.00
O1015  O     0.10661   0.50001   0.81612   0.00000  Uiso   1.00
O1016  O     0.22672   0.49999   0.68387   0.00000  Uiso   1.00
O1017  O     0.18305   0.50000   0.81612   0.00000  Uiso   1.00
O1018  O     0.15028   0.50000   0.68388   0.00000  Uiso   1.00
Zn1019 Zn    0.11562   0.50001   0.75000   0.00000  Uiso   1.00
Zn1020 Zn    0.21771   0.49999   0.75000   0.00000  Uiso   1.00
C1021  C     0.29900   0.54293   0.60435   0.00000  Uiso   1.00
C1022  C     0.28392   0.58316   0.63316   0.00000  Uiso   1.00
C1023  C     0.31869   0.59284   0.65751   0.00000  Uiso   1.00
H1024  H     0.31734   0.56757   0.68240   0.00000  Uiso   1.00
H1025  H     0.02380   0.59621   0.63111   0.00000  Uiso   1.00
H1026  H     0.30731   0.62240   0.67750   0.00000  Uiso   1.00
H1027  H     0.28480   0.60941   0.60948   0.00000  Uiso   1.00
H1028  H     0.24575   0.58060   0.66004   0.00000  Uiso   1.00
H1029  H     0.30519   0.51706   0.62507   0.00000  Uiso   1.00
H1030  H     0.00209   0.54827   0.57507   0.00000  Uiso   1.00
C1031  C     0.03749   0.45546   0.89670   0.00000  Uiso   1.00
C1032  C     0.32949   0.48372   0.89560   0.00000  Uiso   1.00
C1033  C     0.29729   0.46141   0.87458   0.00000  Uiso   1.00
H1034  H     0.26800   0.48284   0.87399   0.00000  Uiso   1.00
H1035  H     0.31985   0.45126   0.83801   0.00000  Uiso   1.00
H1036  H     0.27946   0.43382   0.89615   0.00000  Uiso   1.00
H1037  H     0.30598   0.49333   0.93208   0.00000  Uiso   1.00
H1038  H     0.01204   0.51209   0.87466   0.00000  Uiso   1.00
H1039  H     0.05985   0.44293   0.86121   0.00000  Uiso   1.00
H1040  H     0.02073   0.42765   0.91851   0.00000  Uiso   1.00
C1041  C     0.49992   0.58005   0.75019   0.00000  Uiso   1.00
C1042  C     0.50003   0.41994   0.74993   0.00000  Uiso   1.00
C1043  C     0.43969   0.49384   0.55517   0.00000  Uiso   1.00
C1044  C     0.53981   0.54736   0.95713   0.00000  Uiso   1.00
C1045  C     0.40636   0.48471   0.53513   0.00000  Uiso   1.00
C1046  C     0.57384   0.55501   0.97686   0.00000  Uiso   1.00
C1047  C     0.53785   0.64534   0.75709   0.00000  Uiso   1.00
C1048  C     0.46231   0.35464   0.74265   0.00000  Uiso   1.00
C1049  C     0.53794   0.35459   0.75694   0.00000  Uiso   1.00
C1050  C     0.46226   0.64538   0.74273   0.00000  Uiso   1.00
C1051  C     0.50011   0.37579   0.74982   0.00000  Uiso   1.00
C1052  C     0.49999   0.62419   0.75002   0.00000  Uiso   1.00
C1053  C     0.65367   0.47190   0.72351   0.00000  Uiso   1.00
C1054  C     0.34644   0.52831   0.77621   0.00000  Uiso   1.00
C1055  C     0.36828   0.47187   0.72358   0.00000  Uiso   1.00
C1056  C     0.63176   0.52822   0.77631   0.00000  Uiso   1.00
C1057  C     0.46880   0.49889   0.83836   0.00000  Uiso   1.00
C1058  C     0.53120   0.50121   0.66154   0.00000  Uiso   1.00
C1059  C     0.44784   0.49777   0.88995   0.00000  Uiso   1.00
C1060  C     0.55088   0.50836   0.61039   0.00000  Uiso   1.00
C1061  C     0.38788   0.47677   0.96639   0.00000  Uiso   1.00
C1062  C     0.60256   0.54474   0.53921   0.00000  Uiso   1.00
C1063  C     0.40252   0.47817   0.91750   0.00000  Uiso   1.00
C1064  C     0.59468   0.53094   0.58464   0.00000  Uiso   1.00
C1065  C     0.47676   0.51513   0.91172   0.00000  Uiso   1.00
C1066  C     0.51880   0.49812   0.58890   0.00000  Uiso   1.00
C1067  C     0.46399   0.51137   0.96010   0.00000  Uiso   1.00
C1068  C     0.52364   0.51563   0.54607   0.00000  Uiso   1.00
C1069  C     0.41895   0.49151   0.98741   0.00000  Uiso   1.00
C1070  C     0.56691   0.53838   0.52053   0.00000  Uiso   1.00
C1071  C     0.49681   0.52357   0.98123   0.00000  Uiso   1.00
C1072  C     0.48668   0.51069   0.52794   0.00000  Uiso   1.00
H1073  H     0.37136   0.47060   0.55674   0.00000  Uiso   1.00
H1074  H     0.60635   0.57331   0.95730   0.00000  Uiso   1.00
H1075  H     0.48881   0.47726   0.60746   0.00000  Uiso   1.00
H1076  H     0.51116   0.52914   0.88937   0.00000  Uiso   1.00
H1077  H     0.35343   0.46168   0.98785   0.00000  Uiso   1.00
H1078  H     0.63563   0.56224   0.51916   0.00000  Uiso   1.00
H1079  H     0.42728   0.48785   0.59235   0.00000  Uiso   1.00
H1080  H     0.54775   0.56146   0.92334   0.00000  Uiso   1.00
H1081  H     0.56711   0.62911   0.76299   0.00000  Uiso   1.00
H1082  H     0.43302   0.37086   0.73680   0.00000  Uiso   1.00
H1083  H     0.56728   0.37077   0.76271   0.00000  Uiso   1.00
H1084  H     0.43294   0.62919   0.73694   0.00000  Uiso   1.00
H1085  H     0.64429   0.44948   0.70229   0.00000  Uiso   1.00
H1086  H     0.35590   0.55089   0.79721   0.00000  Uiso   1.00
H1087  H     0.39524   0.44937   0.70244   0.00000  Uiso   1.00
H1088  H     0.60481   0.55074   0.79742   0.00000  Uiso   1.00
N1089  N     0.38093   0.50001   0.75001   0.00000  Uiso   1.00
N1090  N     0.61907   0.49999   0.74999   0.00000  Uiso   1.00
O1091  O     0.46179   0.56108   0.75000   0.00000  Uiso   1.00
O1092  O     0.53821   0.43892   0.74999   0.00000  Uiso   1.00
O1093  O     0.53823   0.56107   0.75000   0.00000  Uiso   1.00
O1094  O     0.46177   0.43893   0.75000   0.00000  Uiso   1.00
O1095  O     0.43994   0.50001   0.81612   0.00000  Uiso   1.00
O1096  O     0.56006   0.49999   0.68387   0.00000  Uiso   1.00
O1097  O     0.51639   0.50000   0.81612   0.00000  Uiso   1.00
O1098  O     0.48361   0.50000   0.68388   0.00000  Uiso   1.00
Zn1099 Zn    0.44896   0.50001   0.75000   0.00000  Uiso   1.00
Zn1100 Zn    0.55104   0.49999   0.75000   0.00000  Uiso   1.00
C1101  C     0.63233   0.54293   0.60435   0.00000  Uiso   1.00
C1102  C     0.61725   0.58316   0.63316   0.00000  Uiso   1.00
C1103  C     0.65202   0.59284   0.65751   0.00000  Uiso   1.00
H1104  H     0.65067   0.56757   0.68240   0.00000  Uiso   1.00
H1105  H     0.35713   0.59621   0.63111   0.00000  Uiso   1.00
H1106  H     0.64064   0.62240   0.67750   0.00000  Uiso   1.00
H1107  H     0.61813   0.60941   0.60948   0.00000  Uiso   1.00
H1108  H     0.57908   0.58060   0.66004   0.00000  Uiso   1.00
H1109  H     0.63852   0.51706   0.62507   0.00000  Uiso   1.00
H1110  H     0.33542   0.54827   0.57507   0.00000  Uiso   1.00
C1111  C     0.37082   0.45546   0.89670   0.00000  Uiso   1.00
C1112  C     0.66282   0.48372   0.89560   0.00000  Uiso   1.00
C1113  C     0.63063   0.46141   0.87458   0.00000  Uiso   1.00
H1114  H     0.60134   0.48284   0.87399   0.00000  Uiso   1.00
H1115  H     0.65318   0.45126   0.83801   0.00000  Uiso   1.00
H1116  H     0.61280   0.43382   0.89615   0.00000  Uiso   1.00
H1117  H     0.63932   0.49333   0.93208   0.00000  Uiso   1.00
H1118  H     0.34538   0.51209   0.87466   0.00000  Uiso   1.00
H1119  H     0.39318   0.44293   0.86121   0.00000  Uiso   1.00
H1120  H     0.35406   0.42765   0.91851   0.00000  Uiso   1.00
C1121  C     0.83325   0.58005   0.75019   0.00000  Uiso   1.00
C1122  C     0.83336   0.41994   0.74993   0.00000  Uiso   1.00
C1123  C     0.77303   0.49384   0.55517   0.00000  Uiso   1.00
C1124  C     0.87315   0.54736   0.95713   0.00000  Uiso   1.00
C1125  C     0.73969   0.48471   0.53513   0.00000  Uiso   1.00
C1126  C     0.90718   0.55501   0.97686   0.00000  Uiso   1.00
C1127  C     0.87118   0.64534   0.75709   0.00000  Uiso   1.00
C1128  C     0.79564   0.35464   0.74265   0.00000  Uiso   1.00
C1129  C     0.87127   0.35459   0.75694   0.00000  Uiso   1.00
C1130  C     0.79559   0.64538   0.74273   0.00000  Uiso   1.00
C1131  C     0.83344   0.37579   0.74982   0.00000  Uiso   1.00
C1132  C     0.83333   0.62419   0.75002   0.00000  Uiso   1.00
C1133  C     0.98701   0.47190   0.72351   0.00000  Uiso   1.00
C1134  C     0.67977   0.52831   0.77621   0.00000  Uiso   1.00
C1135  C     0.70162   0.47187   0.72358   0.00000  Uiso   1.00
C1136  C     0.96509   0.52822   0.77631   0.00000  Uiso   1.00
C1137  C     0.80214   0.49889   0.83836   0.00000  Uiso   1.00
C1138  C     0.86454   0.50121   0.66154   0.00000  Uiso   1.00
C1139  C     0.78117   0.49777   0.88995   0.00000  Uiso   1.00
C1140  C     0.88422   0.50836   0.61039   0.00000  Uiso   1.00
C1141  C     0.72121   0.47677   0.96639   0.00000  Uiso   1.00
C1142  C     0.93589   0.54474   0.53921   0.00000  Uiso   1.00
C1143  C     0.73585   0.47817   0.91750   0.00000  Uiso   1.00
C1144  C     0.92801   0.53094   0.58464   0.00000  Uiso   1.00
C1145  C     0.81009   0.51513   0.91172   0.00000  Uiso   1.00
C1146  C     0.85213   0.49812   0.58890   0.00000  Uiso   1.00
C1147  C     0.79733   0.51137   0.96010   0.00000  Uiso   1.00
C1148  C     0.85697   0.51563   0.54607   0.00000  Uiso   1.00
C1149  C     0.75228   0.49151   0.98741   0.00000  Uiso   1.00
C1150  C     0.90024   0.53838   0.52053   0.00000  Uiso   1.00
C1151  C     0.83014   0.52357   0.98123   0.00000  Uiso   1.00
C1152  C     0.82001   0.51069   0.52794   0.00000  Uiso   1.00
H1153  H     0.70469   0.47060   0.55674   0.00000  Uiso   1.00
H1154  H     0.93969   0.57331   0.95730   0.00000  Uiso   1.00
H1155  H     0.82214   0.47726   0.60746   0.00000  Uiso   1.00
H1156  H     0.84449   0.52914   0.88937   0.00000  Uiso   1.00
H1157  H     0.68676   0.46168   0.98785   0.00000  Uiso   1.00
H1158  H     0.96897   0.56224   0.51916   0.00000  Uiso   1.00
H1159  H     0.76061   0.48785   0.59235   0.00000  Uiso   1.00
H1160  H     0.88108   0.56146   0.92334   0.00000  Uiso   1.00
H1161  H     0.90044   0.62911   0.76299   0.00000  Uiso   1.00
H1162  H     0.76635   0.37086   0.73680   0.00000  Uiso   1.00
H1163  H     0.90061   0.37077   0.76271   0.00000  Uiso   1.00
H1164  H     0.76628   0.62919   0.73694   0.00000  Uiso   1.00
H1165  H     0.97762   0.44948   0.70229   0.00000  Uiso   1.00
H1166  H     0.68923   0.55089   0.79721   0.00000  Uiso   1.00
H1167  H     0.72857   0.44937   0.70244   0.00000  Uiso   1.00
H1168  H     0.93815   0.55074   0.79742   0.00000  Uiso   1.00
N1169  N     0.71426   0.50001   0.75001   0.00000  Uiso   1.00
N1170  N     0.95241   0.49999   0.74999   0.00000  Uiso   1.00
O1171  O     0.79512   0.56108   0.75000   0.00000  Uiso   1.00
O1172  O     0.87154   0.43892   0.74999   0.00000  Uiso   1.00
O1173  O     0.87157   0.56107   0.75000   0.00000  Uiso   1.00
O1174  O     0.79510   0.43893   0.75000   0.00000  Uiso   1.00
O1175  O     0.77328   0.50001   0.81612   0.00000  Uiso   1.00
O1176  O     0.89339   0.49999   0.68387   0.00000  Uiso   1.00
O1177  O     0.84972   0.50000   0.81612   0.00000  Uiso   1.00
O1178  O     0.81695   0.50000   0.68388   0.00000  Uiso   1.00
Zn1179 Zn    0.78229   0.50001   0.75000   0.00000  Uiso   1.00
Zn1180 Zn    0.88438   0.49999   0.75000   0.00000  Uiso   1.00
C1181  C     0.96567   0.54293   0.60435   0.00000  Uiso   1.00
C1182  C     0.95058   0.58316   0.63316   0.00000  Uiso   1.00
C1183  C     0.98535   0.59284   0.65751   0.00000  Uiso   1.00
H1184  H     0.98401   0.56757   0.68240   0.00000  Uiso   1.00
H1185  H     0.69046   0.59621   0.63111   0.00000  Uiso   1.00
H1186  H     0.97398   0.62240   0.67750   0.00000  Uiso   1.00
H1187  H     0.95146   0.60941   0.60948   0.00000  Uiso   1.00
H1188  H     0.91241   0.58060   0.66004   0.00000  Uiso   1.00
H1189  H     0.97186   0.51706   0.62507   0.00000  Uiso   1.00
H1190  H     0.66875   0.54827   0.57507   0.00000  Uiso   1.00
C1191  C     0.70416   0.45546   0.89670   0.00000  Uiso   1.00
C1192  C     0.99615   0.48372   0.89560   0.00000  Uiso   1.00
C1193  C     0.96396   0.46141   0.87458   0.00000  Uiso   1.00
H1194  H     0.93467   0.48284   0.87399   0.00000  Uiso   1.00
H1195  H     0.98651   0.45126   0.83801   0.00000  Uiso   1.00
H1196  H     0.94613   0.43382   0.89615   0.00000  Uiso   1.00
H1197  H     0.97265   0.49333   0.93208   0.00000  Uiso   1.00
H1198  H     0.67871   0.51209   0.87466   0.00000  Uiso   1.00
H1199  H     0.72652   0.44293   0.86121   0.00000  Uiso   1.00
H1200  H     0.68739   0.42765   0.91851   0.00000  Uiso   1.00
C1201  C     0.16659   0.91338   0.75019   0.00000  Uiso   1.00
C1202  C     0.16670   0.75328   0.74993   0.00000  Uiso   1.00
C1203  C     0.10636   0.82718   0.55517   0.00000  Uiso   1.00
C1204  C     0.20648   0.88070   0.95713   0.00000  Uiso   1.00
C1205  C     0.07303   0.81804   0.53513   0.00000  Uiso   1.00
C1206  C     0.24051   0.88835   0.97686   0.00000  Uiso   1.00
C1207  C     0.20452   0.97867   0.75709   0.00000  Uiso   1.00
C1208  C     0.12898   0.68797   0.74265   0.00000  Uiso   1.00
C1209  C     0.20460   0.68793   0.75694   0.00000  Uiso   1.00
C1210  C     0.12893   0.97871   0.74273   0.00000  Uiso   1.00
C1211  C     0.16678   0.70913   0.74982   0.00000  Uiso   1.00
C1212  C     0.16666   0.95752   0.75002   0.00000  Uiso   1.00
C1213  C     0.32034   0.80524   0.72351   0.00000  Uiso   1.00
C1214  C     0.01310   0.86164   0.77621   0.00000  Uiso   1.00
C1215  C     0.03495   0.80520   0.72358   0.00000  Uiso   1.00
C1216  C     0.29842   0.86156   0.77631   0.00000  Uiso   1.00
C1217  C     0.13547   0.83223   0.83836   0.00000  Uiso   1.00
C1218  C     0.19787   0.83454   0.66154   0.00000  Uiso   1.00
C1219  C     0.11451   0.83110   0.88995   0.00000  Uiso   1.00
C1220  C     0.21755   0.84170   0.61039   0.00000  Uiso   1.00
C1221  C     0.05454   0.81010   0.96639   0.00000  Uiso   1.00
C1222  C     0.26923   0.87808   0.53921   0.00000  Uiso   1.00
C1223  C     0.06919   0.81150   0.91750   0.00000  Uiso   1.00
C1224  C     0.26134   0.86427   0.58464   0.00000  Uiso   1.00
C1225  C     0.14343   0.84847   0.91172   0.00000  Uiso   1.00
C1226  C     0.18547   0.83145   0.58890   0.00000  Uiso   1.00
C1227  C     0.13066   0.84470   0.96010   0.00000  Uiso   1.00
C1228  C     0.19030   0.84896   0.54607   0.00000  Uiso   1.00
C1229  C     0.08562   0.82484   0.98741   0.00000  Uiso   1.00
C1230  C     0.23357   0.87171   0.52053   0.00000  Uiso   1.00
C1231  C     0.16347   0.85691   0.98123   0.00000  Uiso   1.00
C1232  C     0.15334   0.84402   0.52794   0.00000  Uiso   1.00
H1233  H     0.03802   0.80393   0.55674   0.00000  Uiso   1.00
H1234  H     0.27302   0.90664   0.95730   0.00000  Uiso   1.00
H1235  H     0.15547   0.81059   0.60746   0.00000  Uiso   1.00
H1236  H     0.17783   0.86247   0.88937   0.00000  Uiso   1.00
H1237  H     0.02009   0.79502   0.98785   0.00000  Uiso   1.00
H1238  H     0.30230   0.89557   0.51916   0.00000  Uiso   1.00
H1239  H     0.09395   0.82118   0.59235   0.00000  Uiso   1.00
H1240  H     0.21442   0.89479   0.92334   0.00000  Uiso   1.00
H1241  H     0.23378   0.96245   0.76299   0.00000  Uiso   1.00
H1242  H     0.09968   0.70419   0.73680   0.00000  Uiso   1.00
H1243  H     0.23394   0.70410   0.76271   0.00000  Uiso   1.00
H1244  H     0.09961   0.96253   0.73694   0.00000  Uiso   1.00
H1245  H     0.31095   0.78282   0.70229   0.00000  Uiso   1.00
H1246  H     0.02256   0.88422   0.79721   0.00000  Uiso   1.00
H1247  H     0.06191   0.78271   0.70244   0.00000  Uiso   1.00
H1248  H     0.27148   0.88407   0.79742   0.00000  Uiso   1.00
N1249  N     0.04759   0.83334   0.75001   0.00000  Uiso   1.00
N1250  N     0.28574   0.83332   0.74999   0.00000  Uiso   1.00
O1251  O     0.12846   0.89442   0.75000   0.00000  Uiso   1.00
O1252  O     0.20488   0.77225   0.74999   0.00000  Uiso   1.00
O1253  O     0.20490   0.89441   0.75000   0.00000  Uiso   1.00
O1254  O     0.12843   0.77226   0.75000   0.00000  Uiso   1.00
O1255  O     0.10661   0.83334   0.81612   0.00000  Uiso   1.00
O1256  O     0.22672   0.83333   0.68387   0.00000  Uiso   1.00
O1257  O     0.18305   0.83333   0.81612   0.00000  Uiso   1.00
O1258  O     0.15028   0.83334   0.68388   0.00000  Uiso   1.00
Zn1259 Zn    0.11562   0.83334   0.75000   0.00000  Uiso   1.00
Zn1260 Zn    0.21771   0.83333   0.75000   0.00000  Uiso   1.00
C1261  C     0.29900   0.87627   0.60435   0.00000  Uiso   1.00
C1262  C     0.28392   0.91650   0.63316   0.00000  Uiso   1.00
C1263  C     0.31869   0.92617   0.65751   0.00000  Uiso   1.00
H1264  H     0.31734   0.90091   0.68240   0.00000  Uiso   1.00
H1265  H     0.02380   0.92955   0.63111   0.00000  Uiso   1.00
H1266  H     0.30731   0.95573   0.67750   0.00000  Uiso   1.00
H1267  H     0.28480   0.94275   0.60948   0.00000  Uiso   1.00
H1268  H     0.24575   0.91393   0.66004   0.00000  Uiso   1.00
H1269  H     0.30519   0.85040   0.62507   0.00000  Uiso   1.00
H1270  H     0.00209   0.88161   0.57507   0.00000  Uiso   1.00
C1271  C     0.03749   0.78880   0.89670   0.00000  Uiso   1.00
C1272  C     0.32949   0.81705   0.89560   0.00000  Uiso   1.00
C1273  C     0.29729   0.79474   0.87458   0.00000  Uiso   1.00
H1274  H     0.26800   0.81618   0.87399   0.00000  Uiso   1.00
H1275  H     0.31985   0.78460   0.83801   0.00000  Uiso   1.00
H1276  H     0.27946   0.76716   0.89615   0.00000  Uiso   1.00
H1277  H     0.30598   0.82666   0.93208   0.00000  Uiso   1.00
H1278  H     0.01204   0.84542   0.87466   0.00000  Uiso   1.00
H1279  H     0.05985   0.77626   0.86121   0.00000  Uiso   1.00
H1280  H     0.02073   0.76098   0.91851   0.00000  Uiso   1.00
C1281  C     0.49992   0.91338   0.75019   0.00000  Uiso   1.00
C1282  C     0.50003   0.75328   0.74993   0.00000  Uiso   1.00
C1283  C     0.43969   0.82718   0.55517   0.00000  Uiso   1.00
C1284  C     0.53981   0.88070   0.95713   0.00000  Uiso   1.00
C1285  C     0.40636   0.81804   0.53513   0.00000  Uiso   1.00
C1286  C     0.57384   0.88835   0.97686   0.00000  Uiso   1.00
C1287  C     0.53785   0.97867   0.75709   0.00000  Uiso   1.00
C1288  C     0.46231   0.68797   0.74265   0.00000  Uiso   1.00
C1289  C     0.53794   0.68793   0.75694   0.00000  Uiso   1.00
C1290  C     0.46226   0.97871   0.74273   0.00000  Uiso   1.00
C1291  C     0.50011   0.70913   0.74982   0.00000  Uiso   1.00
C1292  C     0.49999   0.95752   0.75002   0.00000  Uiso   1.00
C1293  C     0.65367   0.80524   0.72351   0.00000  Uiso   1.00
C1294  C     0.34644   0.86164   0.77621   0.00000  Uiso   1.00
C1295  C     0.36828   0.80520   0.72358   0.00000  Uiso   1.00
C1296  C     0.63176   0.86156   0.77631   0.00000  Uiso   1.00
C1297  C     0.46880   0.83223   0.83836   0.00000  Uiso   1.00
C1298  C     0.53120   0.83454   0.66154   0.00000  Uiso   1.00
C1299  C     0.44784   0.83110   0.88995   0.00000  Uiso   1.00
C1300  C     0.55088   0.84170   0.61039   0.00000  Uiso   1.00
C1301  C     0.38788   0.81010   0.96639   0.00000  Uiso   1.00
C1302  C     0.60256   0.87808   0.53921   0.00000  Uiso   1.00
C1303  C     0.40252   0.81150   0.91750   0.00000  Uiso   1.00
C1304  C     0.59468   0.86427   0.58464   0.00000  Uiso   1.00
C1305  C     0.47676   0.84847   0.91172   0.00000  Uiso   1.00
C1306  C     0.51880   0.83145   0.58890   0.00000  Uiso   1.00
C1307  C     0.46399   0.84470   0.96010   0.00000  Uiso   1.00
C1308  C     0.52364   0.84896   0.54607   0.00000  Uiso   1.00
C1309  C     0.41895   0.82484   0.98741   0.00000  Uiso   1.00
C1310  C     0.56691   0.87171   0.52053   0.00000  Uiso   1.00
C1311  C     0.49681   0.85691   0.98123   0.00000  Uiso   1.00
C1312  C     0.48668   0.84402   0.52794   0.00000  Uiso   1.00
H1313  H     0.37136   0.80393   0.55674   0.00000  Uiso   1.00
H1314  H     0.60635   0.90664   0.95730   0.00000  Uiso   1.00
H1315  H     0.48881   0.81059   0.60746   0.00000  Uiso   1.00
H1316  H     0.51116   0.86247   0.88937   0.00000  Uiso   1.00
H1317  H     0.35343   0.79502   0.98785   0.00000  Uiso   1.00
H1318  H     0.63563   0.89557   0.51916   0.00000  Uiso   1.00
H1319  H     0.42728   0.82118   0.59235   0.00000  Uiso   1.00
H1320  H     0.54775   0.89479   0.92334   0.00000  Uiso   1.00
H1321  H     0.56711   0.96245   0.76299   0.00000  Uiso   1.00
H1322  H     0.43302   0.70419   0.73680   0.00000  Uiso   1.00
H1323  H     0.56728   0.70410   0.76271   0.00000  Uiso   1.00
H1324  H     0.43294   0.96253   0.73694   0.00000  Uiso   1.00
H1325  H     0.64429   0.78282   0.70229   0.00000  Uiso   1.00
H1326  H     0.35590   0.88422   0.79721   0.00000  Uiso   1.00
H1327  H     0.39524   0.78271   0.70244   0.00000  Uiso   1.00
H1328  H     0.60481   0.88407   0.79742   0.00000  Uiso   1.00
N1329  N     0.38093   0.83334   0.75001   0.00000  Uiso   1.00
N1330  N     0.61907   0.83332   0.74999   0.00000  Uiso   1.00
O1331  O     0.46179   0.89442   0.75000   0.00000  Uiso   1.00
O1332  O     0.53821   0.77225   0.74999   0.00000  Uiso   1.00
O1333  O     0.53823   0.89441   0.75000   0.00000  Uiso   1.00
O1334  O     0.46177   0.77226   0.75000   0.00000  Uiso   1.00
O1335  O     0.43994   0.83334   0.81612   0.00000  Uiso   1.00
O1336  O     0.56006   0.83333   0.68387   0.00000  Uiso   1.00
O1337  O     0.51639   0.83333   0.81612   0.00000  Uiso   1.00
O1338  O     0.48361   0.83334   0.68388   0.00000  Uiso   1.00
Zn1339 Zn    0.44896   0.83334   0.75000   0.00000  Uiso   1.00
Zn1340 Zn    0.55104   0.83333   0.75000   0.00000  Uiso   1.00
C1341  C     0.63233   0.87627   0.60435   0.00000  Uiso   1.00
C1342  C     0.61725   0.91650   0.63316   0.00000  Uiso   1.00
C1343  C     0.65202   0.92617   0.65751   0.00000  Uiso   1.00
H1344  H     0.65067   0.90091   0.68240   0.00000  Uiso   1.00
H1345  H     0.35713   0.92955   0.63111   0.00000  Uiso   1.00
H1346  H     0.64064   0.95573   0.67750   0.00000  Uiso   1.00
H1347  H     0.61813   0.94275   0.60948   0.00000  Uiso   1.00
H1348  H     0.57908   0.91393   0.66004   0.00000  Uiso   1.00
H1349  H     0.63852   0.85040   0.62507   0.00000  Uiso   1.00
H1350  H     0.33542   0.88161   0.57507   0.00000  Uiso   1.00
C1351  C     0.37082   0.78880   0.89670   0.00000  Uiso   1.00
C1352  C     0.66282   0.81705   0.89560   0.00000  Uiso   1.00
C1353  C     0.63063   0.79474   0.87458   0.00000  Uiso   1.00
H1354  H     0.60134   0.81618   0.87399   0.00000  Uiso   1.00
H1355  H     0.65318   0.78460   0.83801   0.00000  Uiso   1.00
H1356  H     0.61280   0.76716   0.89615   0.00000  Uiso   1.00
H1357  H     0.63932   0.82666   0.93208   0.00000  Uiso   1.00
H1358  H     0.34538   0.84542   0.87466   0.00000  Uiso   1.00
H1359  H     0.39318   0.77626   0.86121   0.00000  Uiso   1.00
H1360  H     0.35406   0.76098   0.91851   0.00000  Uiso   1.00
C1361  C     0.83325   0.91338   0.75019   0.00000  Uiso   1.00
C1362  C     0.83336   0.75328   0.74993   0.00000  Uiso   1.00
C1363  C     0.77303   0.82718   0.55517   0.00000  Uiso   1.00
C1364  C     0.87315   0.88070   0.95713   0.00000  Uiso   1.00
C1365  C     0.73969   0.81804   0.53513   0.00000  Uiso   1.00
C1366  C     0.90718   0.88835   0.97686   0.00000  Uiso   1.00
C1367  C     0.87118   0.97867   0.75709   0.00000  Uiso   1.00
C1368  C     0.79564   0.68797   0.74265   0.00000  Uiso   1.00
C1369  C     0.87127   0.68793   0.75694   0.00000  Uiso   1.00
C1370  C     0.79559   0.97871   0.74273   0.00000  Uiso   1.00
C1371  C     0.83344   0.70913   0.74982   0.00000  Uiso   1.00
C1372  C     0.83333   0.95752   0.75002   0.00000  Uiso   1.00
C1373  C     0.98701   0.80524   0.72351   0.00000  Uiso   1.00
C1374  C     0.67977   0.86164   0.77621   0.00000  Uiso   1.00
C1375  C     0.70162   0.80520   0.72358   0.00000  Uiso   1.00
C1376  C     0.96509   0.86156   0.77631   0.00000  Uiso   1.00
C1377  C     0.80214   0.83223   0.83836   0.00000  Uiso   1.00
C1378  C     0.86454   0.83454   0.66154   0.00000  Uiso   1.00
C1379  C     0.78117   0.83110   0.88995   0.00000  Uiso   1.00
C1380  C     0.88422   0.84170   0.61039   0.00000  Uiso   1.00
C1381  C     0.72121   0.81010   0.96639   0.00000  Uiso   1.00
C1382  C     0.93589   0.87808   0.53921   0.00000  Uiso   1.00
C1383  C     0.73585   0.81150   0.91750   0.00000  Uiso   1.00
C1384  C     0.92801   0.86427   0.58464   0.00000  Uiso   1.00
C1385  C     0.81009   0.84847   0.91172   0.00000  Uiso   1.00
C1386  C     0.85213   0.83145   0.58890   0.00000  Uiso   1.00
C1387  C     0.79733   0.84470   0.96010   0.00000  Uiso   1.00
C1388  C     0.85697   0.84896   0.54607   0.00000  Uiso   1.00
C1389  C     0.75228   0.82484   0.98741   0.00000  Uiso   1.00
C1390  C     0.90024   0.87171   0.52053   0.00000  Uiso   1.00
C1391  C     0.83014   0.85691   0.98123   0.00000  Uiso   1.00
C1392  C     0.82001   0.84402   0.52794   0.00000  Uiso   1.00
H1393  H     0.70469   0.80393   0.55674   0.00000  Uiso   1.00
H1394  H     0.93969   0.90664   0.95730   0.00000  Uiso   1.00
H1395  H     0.82214   0.81059   0.60746   0.00000  Uiso   1.00
H1396  H     0.84449   0.86247   0.88937   0.00000  Uiso   1.00
H1397  H     0.68676   0.79502   0.98785   0.00000  Uiso   1.00
H1398  H     0.96897   0.89557   0.51916   0.00000  Uiso   1.00
H1399  H     0.76061   0.82118   0.59235   0.00000  Uiso   1.00
H1400  H     0.88108   0.89479   0.92334   0.00000  Uiso   1.00
H1401  H     0.90044   0.96245   0.76299   0.00000  Uiso   1.00
H1402  H     0.76635   0.70419   0.73680   0.00000  Uiso   1.00
H1403  H     0.90061   0.70410   0.76271   0.00000  Uiso   1.00
H1404  H     0.76628   0.96253   0.73694   0.00000  Uiso   1.00
H1405  H     0.97762   0.78282   0.70229   0.00000  Uiso   1.00
H1406  H     0.68923   0.88422   0.79721   0.00000  Uiso   1.00
H1407  H     0.72857   0.78271   0.70244   0.00000  Uiso   1.00
H1408  H     0.93815   0.88407   0.79742   0.00000  Uiso   1.00
N1409  N     0.71426   0.83334   0.75001   0.00000  Uiso   1.00
N1410  N     0.95241   0.83332   0.74999   0.00000  Uiso   1.00
O1411  O     0.79512   0.89442   0.75000   0.00000  Uiso   1.00
O1412  O     0.87154   0.77225   0.74999   0.00000  Uiso   1.00
O1413  O     0.87157   0.89441   0.75000   0.00000  Uiso   1.00
O1414  O     0.79510   0.77226   0.75000   0.00000  Uiso   1.00
O1415  O     0.77328   0.83334   0.81612   0.00000  Uiso   1.00
O1416  O     0.89339   0.83333   0.68387   0.00000  Uiso   1.00
O1417  O     0.84972   0.83333   0.81612   0.00000  Uiso   1.00
O1418  O     0.81695   0.83334   0.68388   0.00000  Uiso   1.00
Zn1419 Zn    0.78229   0.83334   0.75000   0.00000  Uiso   1.00
Zn1420 Zn    0.88438   0.83333   0.75000   0.00000  Uiso   1.00
C1421  C     0.96567   0.87627   0.60435   0.00000  Uiso   1.00
C1422  C     0.95058   0.91650   0.63316   0.00000  Uiso   1.00
C1423  C     0.98535   0.92617   0.65751   0.00000  Uiso   1.00
H1424  H     0.98401   0.90091   0.68240   0.00000  Uiso   1.00
H1425  H     0.69046   0.92955   0.63111   0.00000  Uiso   1.00
H1426  H     0.97398   0.95573   0.67750   0.00000  Uiso   1.00
H1427  H     0.95146   0.94275   0.60948   0.00000  Uiso   1.00
H1428  H     0.91241   0.91393   0.66004   0.00000  Uiso   1.00
H1429  H     0.97186   0.85040   0.62507   0.00000  Uiso   1.00
H1430  H     0.66875   0.88161   0.57507   0.00000  Uiso   1.00
C1431  C     0.70416   0.78880   0.89670   0.00000  Uiso   1.00
C1432  C     0.99615   0.81705   0.89560   0.00000  Uiso   1.00
C1433  C     0.96396   0.79474   0.87458   0.00000  Uiso   1.00
H1434  H     0.93467   0.81618   0.87399   0.00000  Uiso   1.00
H1435  H     0.98651   0.78460   0.83801   0.00000  Uiso   1.00
H1436  H     0.94613   0.76716   0.89615   0.00000  Uiso   1.00
H1437  H     0.97265   0.82666   0.93208   0.00000  Uiso   1.00
H1438  H     0.67871   0.84542   0.87466   0.00000  Uiso   1.00
H1439  H     0.72652   0.77626   0.86121   0.00000  Uiso   1.00
H1440  H     0.68739   0.76098   0.91851   0.00000  Uiso   1.00
loop_
_geom_bond_atom_site_label_1
_geom_bond_atom_site_label_2
_geom_bond_distance
_geom_bond_site_symmetry_2
_ccdc_geom_bond_type
C1     O53     1.282   .     A
C1     C12     1.419   .     S
C1     O51     1.282   .     A
C2     C11     1.420   .     S
C2     O54     1.282   .     A
C2     O52     1.282   .     A
C3     H39     1.078   .     S
C3     C5      1.385   .     A
C3     C32     1.416   .     A
C4     C6      1.388   .     A
C4     H40     1.077   .     S
C4     C31     1.417   .     A
C5     H33     1.084   .     S
C5     C749    1.391   1_554 S
C6     H34     1.084   .     S
C6     C750    1.392   .     S
C7     H41     1.084   .     S
C7     C12     1.397   .     A
C7     C249    1.370   .     S
C8     H42     1.084   .     S
C8     C11     1.397   .     A
C8     C490    1.370   1_545 S
C9     H43     1.084   .     S
C9     C11     1.397   .     A
C9     C487    1.370   1_545 S
C10    C12     1.397   .     A
C10    H44     1.084   .     S
C10    C248    1.370   .     S
C13    H45     1.082   .     S
C13    N50     1.366   .     A
C13    C95     1.415   .     S
C14    H46     1.082   .     S
C14    N49     1.366   .     A
C14    C176    1.415   1_455 S
C15    H47     1.082   .     S
C15    N49     1.366   .     A
C15    C173    1.415   1_455 S
C16    H48     1.082   .     S
C16    N50     1.366   .     A
C16    C94     1.415   .     S
C17    O55     1.289   .     A
C17    C19     1.467   .     S
C17    O57     1.297   .     A
C18    O58     1.298   .     A
C18    O56     1.292   .     A
C18    C20     1.473   .     S
C19    C23     1.419   .     A
C19    C25     1.396   .     A
C20    C24     1.422   .     A
C20    C26     1.394   .     A
C21    C23     1.400   .     A
C21    C29     1.400   .     A
C21    H37     1.085   .     S
C22    H38     1.085   .     S
C22    C24     1.404   .     A
C22    C30     1.401   .     A
C23    C71     1.516   .     S
C24    C61     1.513   .     S
C25    C27     1.397   .     A
C25    H36     1.076   .     S
C26    C28     1.395   .     A
C26    H35     1.078   .     S
C27    C29     1.416   .     A
C27    C31     1.421   .     A
C28    C32     1.419   .     A
C28    C30     1.413   .     A
C29    C725    1.391   .     S
C30    C726    1.392   1_554 S
C31    C752    1.418   .     S
C32    C751    1.418   1_554 S
N49    Zn59    2.007   .     S
N50    Zn60    2.007   .     S
O51    Zn59    2.000   .     S
O52    Zn60    2.000   .     S
O53    Zn60    2.000   .     S
O54    Zn59    2.000   .     S
O55    Zn59    1.956   .     S
O56    Zn60    1.956   .     S
O57    Zn60    1.892   .     S
O58    Zn59    1.892   .     S
C61    C62     1.533   .     S
C61    H69     1.109   .     S
C61    H150    1.112   .     S
C62    H67     1.112   .     S
C62    C63     1.526   .     S
C62    H68     1.108   .     S
C63    H66     1.110   .     S
C63    H64     1.110   .     S
C63    H145    1.111   .     S
H65    C223    1.111   1_455 S
H70    C221    1.112   1_455 S
C71    H79     1.109   .     S
C71    H80     1.113   .     S
C71    C232    1.531   1_455 S
C72    H77     1.109   .     S
C72    C73     1.526   .     S
C72    C151    1.531   .     S
C72    H158    1.111   .     S
C73    H74     1.111   .     S
C73    H75     1.111   .     S
C73    H76     1.111   .     S
H78    C232    1.111   1_455 S
C81    O133    1.282   .     A
C81    C92     1.419   .     S
C81    O131    1.282   .     A
C82    C91     1.420   .     S
C82    O134    1.282   .     A
C82    O132    1.282   .     A
C83    H119    1.078   .     S
C83    C85     1.385   .     A
C83    C112    1.416   .     A
C84    C86     1.388   .     A
C84    H120    1.077   .     S
C84    C111    1.417   .     A
C85    H113    1.084   .     S
C85    C829    1.391   1_554 S
C86    H114    1.084   .     S
C86    C830    1.392   .     S
C87    H121    1.084   .     S
C87    C92     1.397   .     A
C87    C329    1.370   .     S
C88    H122    1.084   .     S
C88    C91     1.397   .     A
C88    C570    1.370   1_545 S
C89    H123    1.084   .     S
C89    C91     1.397   .     A
C89    C567    1.370   1_545 S
C90    C92     1.397   .     A
C90    H124    1.084   .     S
C90    C328    1.370   .     S
C93    H125    1.082   .     S
C93    N130    1.366   .     A
C93    C175    1.415   .     S
C94    H126    1.082   .     S
C94    N129    1.366   .     A
C95    H127    1.082   .     S
C95    N129    1.366   .     A
C96    H128    1.082   .     S
C96    N130    1.366   .     A
C96    C174    1.415   .     S
C97    O135    1.289   .     A
C97    C99     1.467   .     S
C97    O137    1.297   .     A
C98    O138    1.298   .     A
C98    O136    1.292   .     A
C98    C100    1.473   .     S
C99    C103    1.419   .     A
C99    C105    1.396   .     A
C100   C104    1.422   .     A
C100   C106    1.394   .     A
C101   C103    1.400   .     A
C101   C109    1.400   .     A
C101   H117    1.085   .     S
C102   H118    1.085   .     S
C102   C104    1.404   .     A
C102   C110    1.401   .     A
C103   C151    1.516   .     S
C104   C141    1.513   .     S
C105   C107    1.397   .     A
C105   H116    1.076   .     S
C106   C108    1.395   .     A
C106   H115    1.078   .     S
C107   C109    1.416   .     A
C107   C111    1.421   .     A
C108   C112    1.419   .     A
C108   C110    1.413   .     A
C109   C805    1.391   .     S
C110   C806    1.392   1_554 S
C111   C832    1.418   .     S
C112   C831    1.418   1_554 S
N129   Zn139   2.007   .     S
N130   Zn140   2.007   .     S
O131   Zn139   2.000   .     S
O132   Zn140   2.000   .     S
O133   Zn140   2.000   .     S
O134   Zn139   2.000   .     S
O135   Zn139   1.956   .     S
O136   Zn140   1.956   .     S
O137   Zn140   1.892   .     S
O138   Zn139   1.892   .     S
C141   C142    1.533   .     S
C141   H149    1.109   .     S
C141   H230    1.112   .     S
C142   H147    1.112   .     S
C142   C143    1.526   .     S
C142   H148    1.108   .     S
C143   H146    1.110   .     S
C143   H144    1.110   .     S
C143   H225    1.111   .     S
C151   H159    1.109   .     S
C151   H160    1.113   .     S
C152   H157    1.109   .     S
C152   C153    1.526   .     S
C152   C231    1.531   .     S
C152   H238    1.111   .     S
C153   H154    1.111   .     S
C153   H155    1.111   .     S
C153   H156    1.111   .     S
C161   O213    1.282   .     A
C161   C172    1.419   .     S
C161   O211    1.282   .     A
C162   C171    1.420   .     S
C162   O214    1.282   .     A
C162   O212    1.282   .     A
C163   H199    1.078   .     S
C163   C165    1.385   .     A
C163   C192    1.416   .     A
C164   C166    1.388   .     A
C164   H200    1.077   .     S
C164   C191    1.417   .     A
C165   H193    1.084   .     S
C165   C909    1.391   1_554 S
C166   H194    1.084   .     S
C166   C910    1.392   .     S
C167   H201    1.084   .     S
C167   C172    1.397   .     A
C167   C409    1.370   .     S
C168   H202    1.084   .     S
C168   C171    1.397   .     A
C168   C650    1.370   1_545 S
C169   H203    1.084   .     S
C169   C171    1.397   .     A
C169   C647    1.370   1_545 S
C170   C172    1.397   .     A
C170   H204    1.084   .     S
C170   C408    1.370   .     S
C173   H205    1.082   .     S
C173   N210    1.366   .     A
C173   C15     1.415   1_655 S
C174   H206    1.082   .     S
C174   N209    1.366   .     A
C175   H207    1.082   .     S
C175   N209    1.366   .     A
C176   H208    1.082   .     S
C176   N210    1.366   .     A
C176   C14     1.415   1_655 S
C177   O215    1.289   .     A
C177   C179    1.467   .     S
C177   O217    1.297   .     A
C178   O218    1.298   .     A
C178   O216    1.292   .     A
C178   C180    1.473   .     S
C179   C183    1.419   .     A
C179   C185    1.396   .     A
C180   C184    1.422   .     A
C180   C186    1.394   .     A
C181   C183    1.400   .     A
C181   C189    1.400   .     A
C181   H197    1.085   .     S
C182   H198    1.085   .     S
C182   C184    1.404   .     A
C182   C190    1.401   .     A
C183   C231    1.516   .     S
C184   C221    1.513   .     S
C185   C187    1.397   .     A
C185   H196    1.076   .     S
C186   C188    1.395   .     A
C186   H195    1.078   .     S
C187   C189    1.416   .     A
C187   C191    1.421   .     A
C188   C192    1.419   .     A
C188   C190    1.413   .     A
C189   C885    1.391   .     S
C190   C886    1.392   1_554 S
C191   C912    1.418   .     S
C192   C911    1.418   1_554 S
N209   Zn219   2.007   .     S
N210   Zn220   2.007   .     S
O211   Zn219   2.000   .     S
O212   Zn220   2.000   .     S
O213   Zn220   2.000   .     S
O214   Zn219   2.000   .     S
O215   Zn219   1.956   .     S
O216   Zn220   1.956   .     S
O217   Zn220   1.892   .     S
O218   Zn219   1.892   .     S
C221   C222    1.533   .     S
C221   H229    1.109   .     S
C221   H70     1.112   1_655 S
C222   H227    1.112   .     S
C222   C223    1.526   .     S
C222   H228    1.108   .     S
C223   H226    1.110   .     S
C223   H224    1.110   .     S
C223   H65     1.111   1_655 S
C231   H239    1.109   .     S
C231   H240    1.113   .     S
C232   H237    1.109   .     S
C232   C233    1.526   .     S
C232   C71     1.531   1_655 S
C232   H78     1.111   1_655 S
C233   H234    1.111   .     S
C233   H235    1.111   .     S
C233   H236    1.111   .     S
C241   O293    1.282   .     A
C241   C252    1.419   .     S
C241   O291    1.282   .     A
C242   C251    1.420   .     S
C242   O294    1.282   .     A
C242   O292    1.282   .     A
C243   H279    1.078   .     S
C243   C245    1.385   .     A
C243   C272    1.416   .     A
C244   C246    1.388   .     A
C244   H280    1.077   .     S
C244   C271    1.417   .     A
C245   H273    1.084   .     S
C245   C989    1.391   1_554 S
C246   H274    1.084   .     S
C246   C990    1.392   .     S
C247   H281    1.084   .     S
C247   C252    1.397   .     A
C247   C489    1.370   .     S
C248   H282    1.084   .     S
C248   C251    1.397   .     A
C249   H283    1.084   .     S
C249   C251    1.397   .     A
C250   C252    1.397   .     A
C250   H284    1.084   .     S
C250   C488    1.370   .     S
C253   H285    1.082   .     S
C253   N290    1.366   .     A
C253   C335    1.415   .     S
C254   H286    1.082   .     S
C254   N289    1.366   .     A
C254   C416    1.415   1_455 S
C255   H287    1.082   .     S
C255   N289    1.366   .     A
C255   C413    1.415   1_455 S
C256   H288    1.082   .     S
C256   N290    1.366   .     A
C256   C334    1.415   .     S
C257   O295    1.289   .     A
C257   C259    1.467   .     S
C257   O297    1.297   .     A
C258   O298    1.298   .     A
C258   O296    1.292   .     A
C258   C260    1.473   .     S
C259   C263    1.419   .     A
C259   C265    1.396   .     A
C260   C264    1.422   .     A
C260   C266    1.394   .     A
C261   C263    1.400   .     A
C261   C269    1.400   .     A
C261   H277    1.085   .     S
C262   H278    1.085   .     S
C262   C264    1.404   .     A
C262   C270    1.401   .     A
C263   C311    1.516   .     S
C264   C301    1.513   .     S
C265   C267    1.397   .     A
C265   H276    1.076   .     S
C266   C268    1.395   .     A
C266   H275    1.078   .     S
C267   C269    1.416   .     A
C267   C271    1.421   .     A
C268   C272    1.419   .     A
C268   C270    1.413   .     A
C269   C965    1.391   .     S
C270   C966    1.392   1_554 S
C271   C992    1.418   .     S
C272   C991    1.418   1_554 S
N289   Zn299   2.007   .     S
N290   Zn300   2.007   .     S
O291   Zn299   2.000   .     S
O292   Zn300   2.000   .     S
O293   Zn300   2.000   .     S
O294   Zn299   2.000   .     S
O295   Zn299   1.956   .     S
O296   Zn300   1.956   .     S
O297   Zn300   1.892   .     S
O298   Zn299   1.892   .     S
C301   C302    1.533   .     S
C301   H309    1.109   .     S
C301   H390    1.112   .     S
C302   H307    1.112   .     S
C302   C303    1.526   .     S
C302   H308    1.108   .     S
C303   H306    1.110   .     S
C303   H304    1.110   .     S
C303   H385    1.111   .     S
H305   C463    1.111   1_455 S
H310   C461    1.112   1_455 S
C311   H319    1.109   .     S
C311   H320    1.113   .     S
C311   C472    1.531   1_455 S
C312   H317    1.109   .     S
C312   C313    1.526   .     S
C312   C391    1.531   .     S
C312   H398    1.111   .     S
C313   H314    1.111   .     S
C313   H315    1.111   .     S
C313   H316    1.111   .     S
H318   C472    1.111   1_455 S
C321   O373    1.282   .     A
C321   C332    1.419   .     S
C321   O371    1.282   .     A
C322   C331    1.420   .     S
C322   O374    1.282   .     A
C322   O372    1.282   .     A
C323   H359    1.078   .     S
C323   C325    1.385   .     A
C323   C352    1.416   .     A
C324   C326    1.388   .     A
C324   H360    1.077   .     S
C324   C351    1.417   .     A
C325   H353    1.084   .     S
C325   C1069   1.391   1_554 S
C326   H354    1.084   .     S
C326   C1070   1.392   .     S
C327   H361    1.084   .     S
C327   C332    1.397   .     A
C327   C569    1.370   .     S
C328   H362    1.084   .     S
C328   C331    1.397   .     A
C329   H363    1.084   .     S
C329   C331    1.397   .     A
C330   C332    1.397   .     A
C330   H364    1.084   .     S
C330   C568    1.370   .     S
C333   H365    1.082   .     S
C333   N370    1.366   .     A
C333   C415    1.415   .     S
C334   H366    1.082   .     S
C334   N369    1.366   .     A
C335   H367    1.082   .     S
C335   N369    1.366   .     A
C336   H368    1.082   .     S
C336   N370    1.366   .     A
C336   C414    1.415   .     S
C337   O375    1.289   .     A
C337   C339    1.467   .     S
C337   O377    1.297   .     A
C338   O378    1.298   .     A
C338   O376    1.292   .     A
C338   C340    1.473   .     S
C339   C343    1.419   .     A
C339   C345    1.396   .     A
C340   C344    1.422   .     A
C340   C346    1.394   .     A
C341   C343    1.400   .     A
C341   C349    1.400   .     A
C341   H357    1.085   .     S
C342   H358    1.085   .     S
C342   C344    1.404   .     A
C342   C350    1.401   .     A
C343   C391    1.516   .     S
C344   C381    1.513   .     S
C345   C347    1.397   .     A
C345   H356    1.076   .     S
C346   C348    1.395   .     A
C346   H355    1.078   .     S
C347   C349    1.416   .     A
C347   C351    1.421   .     A
C348   C352    1.419   .     A
C348   C350    1.413   .     A
C349   C1045   1.391   .     S
C350   C1046   1.392   1_554 S
C351   C1072   1.418   .     S
C352   C1071   1.418   1_554 S
N369   Zn379   2.007   .     S
N370   Zn380   2.007   .     S
O371   Zn379   2.000   .     S
O372   Zn380   2.000   .     S
O373   Zn380   2.000   .     S
O374   Zn379   2.000   .     S
O375   Zn379   1.956   .     S
O376   Zn380   1.956   .     S
O377   Zn380   1.892   .     S
O378   Zn379   1.892   .     S
C381   C382    1.533   .     S
C381   H389    1.109   .     S
C381   H470    1.112   .     S
C382   H387    1.112   .     S
C382   C383    1.526   .     S
C382   H388    1.108   .     S
C383   H386    1.110   .     S
C383   H384    1.110   .     S
C383   H465    1.111   .     S
C391   H399    1.109   .     S
C391   H400    1.113   .     S
C392   H397    1.109   .     S
C392   C393    1.526   .     S
C392   C471    1.531   .     S
C392   H478    1.111   .     S
C393   H394    1.111   .     S
C393   H395    1.111   .     S
C393   H396    1.111   .     S
C401   O453    1.282   .     A
C401   C412    1.419   .     S
C401   O451    1.282   .     A
C402   C411    1.420   .     S
C402   O454    1.282   .     A
C402   O452    1.282   .     A
C403   H439    1.078   .     S
C403   C405    1.385   .     A
C403   C432    1.416   .     A
C404   C406    1.388   .     A
C404   H440    1.077   .     S
C404   C431    1.417   .     A
C405   H433    1.084   .     S
C405   C1149   1.391   1_554 S
C406   H434    1.084   .     S
C406   C1150   1.392   .     S
C407   H441    1.084   .     S
C407   C412    1.397   .     A
C407   C649    1.370   .     S
C408   H442    1.084   .     S
C408   C411    1.397   .     A
C409   H443    1.084   .     S
C409   C411    1.397   .     A
C410   C412    1.397   .     A
C410   H444    1.084   .     S
C410   C648    1.370   .     S
C413   H445    1.082   .     S
C413   N450    1.366   .     A
C413   C255    1.415   1_655 S
C414   H446    1.082   .     S
C414   N449    1.366   .     A
C415   H447    1.082   .     S
C415   N449    1.366   .     A
C416   H448    1.082   .     S
C416   N450    1.366   .     A
C416   C254    1.415   1_655 S
C417   O455    1.289   .     A
C417   C419    1.467   .     S
C417   O457    1.297   .     A
C418   O458    1.298   .     A
C418   O456    1.292   .     A
C418   C420    1.473   .     S
C419   C423    1.419   .     A
C419   C425    1.396   .     A
C420   C424    1.422   .     A
C420   C426    1.394   .     A
C421   C423    1.400   .     A
C421   C429    1.400   .     A
C421   H437    1.085   .     S
C422   H438    1.085   .     S
C422   C424    1.404   .     A
C422   C430    1.401   .     A
C423   C471    1.516   .     S
C424   C461    1.513   .     S
C425   C427    1.397   .     A
C425   H436    1.076   .     S
C426   C428    1.395   .     A
C426   H435    1.078   .     S
C427   C429    1.416   .     A
C427   C431    1.421   .     A
C428   C432    1.419   .     A
C428   C430    1.413   .     A
C429   C1125   1.391   .     S
C430   C1126   1.392   1_554 S
C431   C1152   1.418   .     S
C432   C1151   1.418   1_554 S
N449   Zn459   2.007   .     S
N450   Zn460   2.007   .     S
O451   Zn459   2.000   .     S
O452   Zn460   2.000   .     S
O453   Zn460   2.000   .     S
O454   Zn459   2.000   .     S
O455   Zn459   1.956   .     S
O456   Zn460   1.956   .     S
O457   Zn460   1.892   .     S
O458   Zn459   1.892   .     S
C461   C462    1.533   .     S
C461   H469    1.109   .     S
C461   H310    1.112   1_655 S
C462   H467    1.112   .     S
C462   C463    1.526   .     S
C462   H468    1.108   .     S
C463   H466    1.110   .     S
C463   H464    1.110   .     S
C463   H305    1.111   1_655 S
C471   H479    1.109   .     S
C471   H480    1.113   .     S
C472   H477    1.109   .     S
C472   C473    1.526   .     S
C472   C311    1.531   1_655 S
C472   H318    1.111   1_655 S
C473   H474    1.111   .     S
C473   H475    1.111   .     S
C473   H476    1.111   .     S
C481   O533    1.282   .     A
C481   C492    1.419   .     S
C481   O531    1.282   .     A
C482   C491    1.420   .     S
C482   O534    1.282   .     A
C482   O532    1.282   .     A
C483   H519    1.078   .     S
C483   C485    1.385   .     A
C483   C512    1.416   .     A
C484   C486    1.388   .     A
C484   H520    1.077   .     S
C484   C511    1.417   .     A
C485   H513    1.084   .     S
C485   C1229   1.391   1_554 S
C486   H514    1.084   .     S
C486   C1230   1.392   .     S
C487   H521    1.084   .     S
C487   C492    1.397   .     A
C487   C9      1.370   1_565 S
C488   H522    1.084   .     S
C488   C491    1.397   .     A
C489   H523    1.084   .     S
C489   C491    1.397   .     A
C490   C492    1.397   .     A
C490   H524    1.084   .     S
C490   C8      1.370   1_565 S
C493   H525    1.082   .     S
C493   N530    1.366   .     A
C493   C575    1.415   .     S
C494   H526    1.082   .     S
C494   N529    1.366   .     A
C494   C656    1.415   1_455 S
C495   H527    1.082   .     S
C495   N529    1.366   .     A
C495   C653    1.415   1_455 S
C496   H528    1.082   .     S
C496   N530    1.366   .     A
C496   C574    1.415   .     S
C497   O535    1.289   .     A
C497   C499    1.467   .     S
C497   O537    1.297   .     A
C498   O538    1.298   .     A
C498   O536    1.292   .     A
C498   C500    1.473   .     S
C499   C503    1.419   .     A
C499   C505    1.396   .     A
C500   C504    1.422   .     A
C500   C506    1.394   .     A
C501   C503    1.400   .     A
C501   C509    1.400   .     A
C501   H517    1.085   .     S
C502   H518    1.085   .     S
C502   C504    1.404   .     A
C502   C510    1.401   .     A
C503   C551    1.516   .     S
C504   C541    1.513   .     S
C505   C507    1.397   .     A
C505   H516    1.076   .     S
C506   C508    1.395   .     A
C506   H515    1.078   .     S
C507   C509    1.416   .     A
C507   C511    1.421   .     A
C508   C512    1.419   .     A
C508   C510    1.413   .     A
C509   C1205   1.391   .     S
C510   C1206   1.392   1_554 S
C511   C1232   1.418   .     S
C512   C1231   1.418   1_554 S
N529   Zn539   2.007   .     S
N530   Zn540   2.007   .     S
O531   Zn539   2.000   .     S
O532   Zn540   2.000   .     S
O533   Zn540   2.000   .     S
O534   Zn539   2.000   .     S
O535   Zn539   1.956   .     S
O536   Zn540   1.956   .     S
O537   Zn540   1.892   .     S
O538   Zn539   1.892   .     S
C541   C542    1.533   .     S
C541   H549    1.109   .     S
C541   H630    1.112   .     S
C542   H547    1.112   .     S
C542   C543    1.526   .     S
C542   H548    1.108   .     S
C543   H546    1.110   .     S
C543   H544    1.110   .     S
C543   H625    1.111   .     S
H545   C703    1.111   1_455 S
H550   C701    1.112   1_455 S
C551   H559    1.109   .     S
C551   H560    1.113   .     S
C551   C712    1.531   1_455 S
C552   H557    1.109   .     S
C552   C553    1.526   .     S
C552   C631    1.531   .     S
C552   H638    1.111   .     S
C553   H554    1.111   .     S
C553   H555    1.111   .     S
C553   H556    1.111   .     S
H558   C712    1.111   1_455 S
C561   O613    1.282   .     A
C561   C572    1.419   .     S
C561   O611    1.282   .     A
C562   C571    1.420   .     S
C562   O614    1.282   .     A
C562   O612    1.282   .     A
C563   H599    1.078   .     S
C563   C565    1.385   .     A
C563   C592    1.416   .     A
C564   C566    1.388   .     A
C564   H600    1.077   .     S
C564   C591    1.417   .     A
C565   H593    1.084   .     S
C565   C1309   1.391   1_554 S
C566   H594    1.084   .     S
C566   C1310   1.392   .     S
C567   H601    1.084   .     S
C567   C572    1.397   .     A
C567   C89     1.370   1_565 S
C568   H602    1.084   .     S
C568   C571    1.397   .     A
C569   H603    1.084   .     S
C569   C571    1.397   .     A
C570   C572    1.397   .     A
C570   H604    1.084   .     S
C570   C88     1.370   1_565 S
C573   H605    1.082   .     S
C573   N610    1.366   .     A
C573   C655    1.415   .     S
C574   H606    1.082   .     S
C574   N609    1.366   .     A
C575   H607    1.082   .     S
C575   N609    1.366   .     A
C576   H608    1.082   .     S
C576   N610    1.366   .     A
C576   C654    1.415   .     S
C577   O615    1.289   .     A
C577   C579    1.467   .     S
C577   O617    1.297   .     A
C578   O618    1.298   .     A
C578   O616    1.292   .     A
C578   C580    1.473   .     S
C579   C583    1.419   .     A
C579   C585    1.396   .     A
C580   C584    1.422   .     A
C580   C586    1.394   .     A
C581   C583    1.400   .     A
C581   C589    1.400   .     A
C581   H597    1.085   .     S
C582   H598    1.085   .     S
C582   C584    1.404   .     A
C582   C590    1.401   .     A
C583   C631    1.516   .     S
C584   C621    1.513   .     S
C585   C587    1.397   .     A
C585   H596    1.076   .     S
C586   C588    1.395   .     A
C586   H595    1.078   .     S
C587   C589    1.416   .     A
C587   C591    1.421   .     A
C588   C592    1.419   .     A
C588   C590    1.413   .     A
C589   C1285   1.391   .     S
C590   C1286   1.392   1_554 S
C591   C1312   1.418   .     S
C592   C1311   1.418   1_554 S
N609   Zn619   2.007   .     S
N610   Zn620   2.007   .     S
O611   Zn619   2.000   .     S
O612   Zn620   2.000   .     S
O613   Zn620   2.000   .     S
O614   Zn619   2.000   .     S
O615   Zn619   1.956   .     S
O616   Zn620   1.956   .     S
O617   Zn620   1.892   .     S
O618   Zn619   1.892   .     S
C621   C622    1.533   .     S
C621   H629    1.109   .     S
C621   H710    1.112   .     S
C622   H627    1.112   .     S
C622   C623    1.526   .     S
C622   H628    1.108   .     S
C623   H626    1.110   .     S
C623   H624    1.110   .     S
C623   H705    1.111   .     S
C631   H639    1.109   .     S
C631   H640    1.113   .     S
C632   H637    1.109   .     S
C632   C633    1.526   .     S
C632   C711    1.531   .     S
C632   H718    1.111   .     S
C633   H634    1.111   .     S
C633   H635    1.111   .     S
C633   H636    1.111   .     S
C641   O693    1.282   .     A
C641   C652    1.419   .     S
C641   O691    1.282   .     A
C642   C651    1.420   .     S
C642   O694    1.282   .     A
C642   O692    1.282   .     A
C643   H679    1.078   .     S
C643   C645    1.385   .     A
C643   C672    1.416   .     A
C644   C646    1.388   .     A
C644   H680    1.077   .     S
C644   C671    1.417   .     A
C645   H673    1.084   .     S
C645   C1389   1.391   1_554 S
C646   H674    1.084   .     S
C646   C1390   1.392   .     S
C647   H681    1.084   .     S
C647   C652    1.397   .     A
C647   C169    1.370   1_565 S
C648   H682    1.084   .     S
C648   C651    1.397   .     A
C649   H683    1.084   .     S
C649   C651    1.397   .     A
C650   C652    1.397   .     A
C650   H684    1.084   .     S
C650   C168    1.370   1_565 S
C653   H685    1.082   .     S
C653   N690    1.366   .     A
C653   C495    1.415   1_655 S
C654   H686    1.082   .     S
C654   N689    1.366   .     A
C655   H687    1.082   .     S
C655   N689    1.366   .     A
C656   H688    1.082   .     S
C656   N690    1.366   .     A
C656   C494    1.415   1_655 S
C657   O695    1.289   .     A
C657   C659    1.467   .     S
C657   O697    1.297   .     A
C658   O698    1.298   .     A
C658   O696    1.292   .     A
C658   C660    1.473   .     S
C659   C663    1.419   .     A
C659   C665    1.396   .     A
C660   C664    1.422   .     A
C660   C666    1.394   .     A
C661   C663    1.400   .     A
C661   C669    1.400   .     A
C661   H677    1.085   .     S
C662   H678    1.085   .     S
C662   C664    1.404   .     A
C662   C670    1.401   .     A
C663   C711    1.516   .     S
C664   C701    1.513   .     S
C665   C667    1.397   .     A
C665   H676    1.076   .     S
C666   C668    1.395   .     A
C666   H675    1.078   .     S
C667   C669    1.416   .     A
C667   C671    1.421   .     A
C668   C672    1.419   .     A
C668   C670    1.413   .     A
C669   C1365   1.391   .     S
C670   C1366   1.392   1_554 S
C671   C1392   1.418   .     S
C672   C1391   1.418   1_554 S
N689   Zn699   2.007   .     S
N690   Zn700   2.007   .     S
O691   Zn699   2.000   .     S
O692   Zn700   2.000   .     S
O693   Zn700   2.000   .     S
O694   Zn699   2.000   .     S
O695   Zn699   1.956   .     S
O696   Zn700   1.956   .     S
O697   Zn700   1.892   .     S
O698   Zn699   1.892   .     S
C701   C702    1.533   .     S
C701   H709    1.109   .     S
C701   H550    1.112   1_655 S
C702   H707    1.112   .     S
C702   C703    1.526   .     S
C702   H708    1.108   .     S
C703   H706    1.110   .     S
C703   H704    1.110   .     S
C703   H545    1.111   1_655 S
C711   H719    1.109   .     S
C711   H720    1.113   .     S
C712   H717    1.109   .     S
C712   C713    1.526   .     S
C712   C551    1.531   1_655 S
C712   H558    1.111   1_655 S
C713   H714    1.111   .     S
C713   H715    1.111   .     S
C713   H716    1.111   .     S
C721   O773    1.282   .     A
C721   C732    1.419   .     S
C721   O771    1.282   .     A
C722   C731    1.420   .     S
C722   O774    1.282   .     A
C722   O772    1.282   .     A
C723   H759    1.078   .     S
C723   C725    1.385   .     A
C723   C752    1.416   .     A
C724   C726    1.388   .     A
C724   H760    1.077   .     S
C724   C751    1.417   .     A
C725   H753    1.084   .     S
C726   H754    1.084   .     S
C726   C30     1.392   1_556 S
C727   H761    1.084   .     S
C727   C732    1.397   .     A
C727   C969    1.370   .     S
C728   H762    1.084   .     S
C728   C731    1.397   .     A
C728   C1210   1.370   1_545 S
C729   H763    1.084   .     S
C729   C731    1.397   .     A
C729   C1207   1.370   1_545 S
C730   C732    1.397   .     A
C730   H764    1.084   .     S
C730   C968    1.370   .     S
C733   H765    1.082   .     S
C733   N770    1.366   .     A
C733   C815    1.415   .     S
C734   H766    1.082   .     S
C734   N769    1.366   .     A
C734   C896    1.415   1_455 S
C735   H767    1.082   .     S
C735   N769    1.366   .     A
C735   C893    1.415   1_455 S
C736   H768    1.082   .     S
C736   N770    1.366   .     A
C736   C814    1.415   .     S
C737   O775    1.289   .     A
C737   C739    1.467   .     S
C737   O777    1.297   .     A
C738   O778    1.298   .     A
C738   O776    1.292   .     A
C738   C740    1.473   .     S
C739   C743    1.419   .     A
C739   C745    1.396   .     A
C740   C744    1.422   .     A
C740   C746    1.394   .     A
C741   C743    1.400   .     A
C741   C749    1.400   .     A
C741   H757    1.085   .     S
C742   H758    1.085   .     S
C742   C744    1.404   .     A
C742   C750    1.401   .     A
C743   C791    1.516   .     S
C744   C781    1.513   .     S
C745   C747    1.397   .     A
C745   H756    1.076   .     S
C746   C748    1.395   .     A
C746   H755    1.078   .     S
C747   C749    1.416   .     A
C747   C751    1.421   .     A
C748   C752    1.419   .     A
C748   C750    1.413   .     A
C749   C5      1.391   1_556 S
C751   C32     1.418   1_556 S
N769   Zn779   2.007   .     S
N770   Zn780   2.007   .     S
O771   Zn779   2.000   .     S
O772   Zn780   2.000   .     S
O773   Zn780   2.000   .     S
O774   Zn779   2.000   .     S
O775   Zn779   1.956   .     S
O776   Zn780   1.956   .     S
O777   Zn780   1.892   .     S
O778   Zn779   1.892   .     S
C781   C782    1.533   .     S
C781   H789    1.109   .     S
C781   H870    1.112   .     S
C782   H787    1.112   .     S
C782   C783    1.526   .     S
C782   H788    1.108   .     S
C783   H786    1.110   .     S
C783   H784    1.110   .     S
C783   H865    1.111   .     S
H785   C943    1.111   1_455 S
H790   C941    1.112   1_455 S
C791   H799    1.109   .     S
C791   H800    1.113   .     S
C791   C952    1.531   1_455 S
C792   H797    1.109   .     S
C792   C793    1.526   .     S
C792   C871    1.531   .     S
C792   H878    1.111   .     S
C793   H794    1.111   .     S
C793   H795    1.111   .     S
C793   H796    1.111   .     S
H798   C952    1.111   1_455 S
C801   O853    1.282   .     A
C801   C812    1.419   .     S
C801   O851    1.282   .     A
C802   C811    1.420   .     S
C802   O854    1.282   .     A
C802   O852    1.282   .     A
C803   H839    1.078   .     S
C803   C805    1.385   .     A
C803   C832    1.416   .     A
C804   C806    1.388   .     A
C804   H840    1.077   .     S
C804   C831    1.417   .     A
C805   H833    1.084   .     S
C806   H834    1.084   .     S
C806   C110    1.392   1_556 S
C807   H841    1.084   .     S
C807   C812    1.397   .     A
C807   C1049   1.370   .     S
C808   H842    1.084   .     S
C808   C811    1.397   .     A
C808   C1290   1.370   1_545 S
C809   H843    1.084   .     S
C809   C811    1.397   .     A
C809   C1287   1.370   1_545 S
C810   C812    1.397   .     A
C810   H844    1.084   .     S
C810   C1048   1.370   .     S
C813   H845    1.082   .     S
C813   N850    1.366   .     A
C813   C895    1.415   .     S
C814   H846    1.082   .     S
C814   N849    1.366   .     A
C815   H847    1.082   .     S
C815   N849    1.366   .     A
C816   H848    1.082   .     S
C816   N850    1.366   .     A
C816   C894    1.415   .     S
C817   O855    1.289   .     A
C817   C819    1.467   .     S
C817   O857    1.297   .     A
C818   O858    1.298   .     A
C818   O856    1.292   .     A
C818   C820    1.473   .     S
C819   C823    1.419   .     A
C819   C825    1.396   .     A
C820   C824    1.422   .     A
C820   C826    1.394   .     A
C821   C823    1.400   .     A
C821   C829    1.400   .     A
C821   H837    1.085   .     S
C822   H838    1.085   .     S
C822   C824    1.404   .     A
C822   C830    1.401   .     A
C823   C871    1.516   .     S
C824   C861    1.513   .     S
C825   C827    1.397   .     A
C825   H836    1.076   .     S
C826   C828    1.395   .     A
C826   H835    1.078   .     S
C827   C829    1.416   .     A
C827   C831    1.421   .     A
C828   C832    1.419   .     A
C828   C830    1.413   .     A
C829   C85     1.391   1_556 S
C831   C112    1.418   1_556 S
N849   Zn859   2.007   .     S
N850   Zn860   2.007   .     S
O851   Zn859   2.000   .     S
O852   Zn860   2.000   .     S
O853   Zn860   2.000   .     S
O854   Zn859   2.000   .     S
O855   Zn859   1.956   .     S
O856   Zn860   1.956   .     S
O857   Zn860   1.892   .     S
O858   Zn859   1.892   .     S
C861   C862    1.533   .     S
C861   H869    1.109   .     S
C861   H950    1.112   .     S
C862   H867    1.112   .     S
C862   C863    1.526   .     S
C862   H868    1.108   .     S
C863   H866    1.110   .     S
C863   H864    1.110   .     S
C863   H945    1.111   .     S
C871   H879    1.109   .     S
C871   H880    1.113   .     S
C872   H877    1.109   .     S
C872   C873    1.526   .     S
C872   C951    1.531   .     S
C872   H958    1.111   .     S
C873   H874    1.111   .     S
C873   H875    1.111   .     S
C873   H876    1.111   .     S
C881   O933    1.282   .     A
C881   C892    1.419   .     S
C881   O931    1.282   .     A
C882   C891    1.420   .     S
C882   O934    1.282   .     A
C882   O932    1.282   .     A
C883   H919    1.078   .     S
C883   C885    1.385   .     A
C883   C912    1.416   .     A
C884   C886    1.388   .     A
C884   H920    1.077   .     S
C884   C911    1.417   .     A
C885   H913    1.084   .     S
C886   H914    1.084   .     S
C886   C190    1.392   1_556 S
C887   H921    1.084   .     S
C887   C892    1.397   .     A
C887   C1129   1.370   .     S
C888   H922    1.084   .     S
C888   C891    1.397   .     A
C888   C1370   1.370   1_545 S
C889   H923    1.084   .     S
C889   C891    1.397   .     A
C889   C1367   1.370   1_545 S
C890   C892    1.397   .     A
C890   H924    1.084   .     S
C890   C1128   1.370   .     S
C893   H925    1.082   .     S
C893   N930    1.366   .     A
C893   C735    1.415   1_655 S
C894   H926    1.082   .     S
C894   N929    1.366   .     A
C895   H927    1.082   .     S
C895   N929    1.366   .     A
C896   H928    1.082   .     S
C896   N930    1.366   .     A
C896   C734    1.415   1_655 S
C897   O935    1.289   .     A
C897   C899    1.467   .     S
C897   O937    1.297   .     A
C898   O938    1.298   .     A
C898   O936    1.292   .     A
C898   C900    1.473   .     S
C899   C903    1.419   .     A
C899   C905    1.396   .     A
C900   C904    1.422   .     A
C900   C906    1.394   .     A
C901   C903    1.400   .     A
C901   C909    1.400   .     A
C901   H917    1.085   .     S
C902   H918    1.085   .     S
C902   C904    1.404   .     A
C902   C910    1.401   .     A
C903   C951    1.516   .     S
C904   C941    1.513   .     S
C905   C907    1.397   .     A
C905   H916    1.076   .     S
C906   C908    1.395   .     A
C906   H915    1.078   .     S
C907   C909    1.416   .     A
C907   C911    1.421   .     A
C908   C912    1.419   .     A
C908   C910    1.413   .     A
C909   C165    1.391   1_556 S
C911   C192    1.418   1_556 S
N929   Zn939   2.007   .     S
N930   Zn940   2.007   .     S
O931   Zn939   2.000   .     S
O932   Zn940   2.000   .     S
O933   Zn940   2.000   .     S
O934   Zn939   2.000   .     S
O935   Zn939   1.956   .     S
O936   Zn940   1.956   .     S
O937   Zn940   1.892   .     S
O938   Zn939   1.892   .     S
C941   C942    1.533   .     S
C941   H949    1.109   .     S
C941   H790    1.112   1_655 S
C942   H947    1.112   .     S
C942   C943    1.526   .     S
C942   H948    1.108   .     S
C943   H946    1.110   .     S
C943   H944    1.110   .     S
C943   H785    1.111   1_655 S
C951   H959    1.109   .     S
C951   H960    1.113   .     S
C952   H957    1.109   .     S
C952   C953    1.526   .     S
C952   C791    1.531   1_655 S
C952   H798    1.111   1_655 S
C953   H954    1.111   .     S
C953   H955    1.111   .     S
C953   H956    1.111   .     S
C961   O1013   1.282   .     A
C961   C972    1.419   .     S
C961   O1011   1.282   .     A
C962   C971    1.420   .     S
C962   O1014   1.282   .     A
C962   O1012   1.282   .     A
C963   H999    1.078   .     S
C963   C965    1.385   .     A
C963   C992    1.416   .     A
C964   C966    1.388   .     A
C964   H1000   1.077   .     S
C964   C991    1.417   .     A
C965   H993    1.084   .     S
C966   H994    1.084   .     S
C966   C270    1.392   1_556 S
C967   H1001   1.084   .     S
C967   C972    1.397   .     A
C967   C1209   1.370   .     S
C968   H1002   1.084   .     S
C968   C971    1.397   .     A
C969   H1003   1.084   .     S
C969   C971    1.397   .     A
C970   C972    1.397   .     A
C970   H1004   1.084   .     S
C970   C1208   1.370   .     S
C973   H1005   1.082   .     S
C973   N1010   1.366   .     A
C973   C1055   1.415   .     S
C974   H1006   1.082   .     S
C974   N1009   1.366   .     A
C974   C1136   1.415   1_455 S
C975   H1007   1.082   .     S
C975   N1009   1.366   .     A
C975   C1133   1.415   1_455 S
C976   H1008   1.082   .     S
C976   N1010   1.366   .     A
C976   C1054   1.415   .     S
C977   O1015   1.289   .     A
C977   C979    1.467   .     S
C977   O1017   1.297   .     A
C978   O1018   1.298   .     A
C978   O1016   1.292   .     A
C978   C980    1.473   .     S
C979   C983    1.419   .     A
C979   C985    1.396   .     A
C980   C984    1.422   .     A
C980   C986    1.394   .     A
C981   C983    1.400   .     A
C981   C989    1.400   .     A
C981   H997    1.085   .     S
C982   H998    1.085   .     S
C982   C984    1.404   .     A
C982   C990    1.401   .     A
C983   C1031   1.516   .     S
C984   C1021   1.513   .     S
C985   C987    1.397   .     A
C985   H996    1.076   .     S
C986   C988    1.395   .     A
C986   H995    1.078   .     S
C987   C989    1.416   .     A
C987   C991    1.421   .     A
C988   C992    1.419   .     A
C988   C990    1.413   .     A
C989   C245    1.391   1_556 S
C991   C272    1.418   1_556 S
N1009  Zn1019  2.007   .     S
N1010  Zn1020  2.007   .     S
O1011  Zn1019  2.000   .     S
O1012  Zn1020  2.000   .     S
O1013  Zn1020  2.000   .     S
O1014  Zn1019  2.000   .     S
O1015  Zn1019  1.956   .     S
O1016  Zn1020  1.956   .     S
O1017  Zn1020  1.892   .     S
O1018  Zn1019  1.892   .     S
C1021  C1022   1.533   .     S
C1021  H1029   1.109   .     S
C1021  H1110   1.112   .     S
C1022  H1027   1.112   .     S
C1022  C1023   1.526   .     S
C1022  H1028   1.108   .     S
C1023  H1026   1.110   .     S
C1023  H1024   1.110   .     S
C1023  H1105   1.111   .     S
H1025  C1183   1.111   1_455 S
H1030  C1181   1.112   1_455 S
C1031  H1039   1.109   .     S
C1031  H1040   1.113   .     S
C1031  C1192   1.531   1_455 S
C1032  H1037   1.109   .     S
C1032  C1033   1.526   .     S
C1032  C1111   1.531   .     S
C1032  H1118   1.111   .     S
C1033  H1034   1.111   .     S
C1033  H1035   1.111   .     S
C1033  H1036   1.111   .     S
H1038  C1192   1.111   1_455 S
C1041  O1093   1.282   .     A
C1041  C1052   1.419   .     S
C1041  O1091   1.282   .     A
C1042  C1051   1.420   .     S
C1042  O1094   1.282   .     A
C1042  O1092   1.282   .     A
C1043  H1079   1.078   .     S
C1043  C1045   1.385   .     A
C1043  C1072   1.416   .     A
C1044  C1046   1.388   .     A
C1044  H1080   1.077   .     S
C1044  C1071   1.417   .     A
C1045  H1073   1.084   .     S
C1046  H1074   1.084   .     S
C1046  C350    1.392   1_556 S
C1047  H1081   1.084   .     S
C1047  C1052   1.397   .     A
C1047  C1289   1.370   .     S
C1048  H1082   1.084   .     S
C1048  C1051   1.397   .     A
C1049  H1083   1.084   .     S
C1049  C1051   1.397   .     A
C1050  C1052   1.397   .     A
C1050  H1084   1.084   .     S
C1050  C1288   1.370   .     S
C1053  H1085   1.082   .     S
C1053  N1090   1.366   .     A
C1053  C1135   1.415   .     S
C1054  H1086   1.082   .     S
C1054  N1089   1.366   .     A
C1055  H1087   1.082   .     S
C1055  N1089   1.366   .     A
C1056  H1088   1.082   .     S
C1056  N1090   1.366   .     A
C1056  C1134   1.415   .     S
C1057  O1095   1.289   .     A
C1057  C1059   1.467   .     S
C1057  O1097   1.297   .     A
C1058  O1098   1.298   .     A
C1058  O1096   1.292   .     A
C1058  C1060   1.473   .     S
C1059  C1063   1.419   .     A
C1059  C1065   1.396   .     A
C1060  C1064   1.422   .     A
C1060  C1066   1.394   .     A
C1061  C1063   1.400   .     A
C1061  C1069   1.400   .     A
C1061  H1077   1.085   .     S
C1062  H1078   1.085   .     S
C1062  C1064   1.404   .     A
C1062  C1070   1.401   .     A
C1063  C1111   1.516   .     S
C1064  C1101   1.513   .     S
C1065  C1067   1.397   .     A
C1065  H1076   1.076   .     S
C1066  C1068   1.395   .     A
C1066  H1075   1.078   .     S
C1067  C1069   1.416   .     A
C1067  C1071   1.421   .     A
C1068  C1072   1.419   .     A
C1068  C1070   1.413   .     A
C1069  C325    1.391   1_556 S
C1071  C352    1.418   1_556 S
N1089  Zn1099  2.007   .     S
N1090  Zn1100  2.007   .     S
O1091  Zn1099  2.000   .     S
O1092  Zn1100  2.000   .     S
O1093  Zn1100  2.000   .     S
O1094  Zn1099  2.000   .     S
O1095  Zn1099  1.956   .     S
O1096  Zn1100  1.956   .     S
O1097  Zn1100  1.892   .     S
O1098  Zn1099  1.892   .     S
C1101  C1102   1.533   .     S
C1101  H1109   1.109   .     S
C1101  H1190   1.112   .     S
C1102  H1107   1.112   .     S
C1102  C1103   1.526   .     S
C1102  H1108   1.108   .     S
C1103  H1106   1.110   .     S
C1103  H1104   1.110   .     S
C1103  H1185   1.111   .     S
C1111  H1119   1.109   .     S
C1111  H1120   1.113   .     S
C1112  H1117   1.109   .     S
C1112  C1113   1.526   .     S
C1112  C1191   1.531   .     S
C1112  H1198   1.111   .     S
C1113  H1114   1.111   .     S
C1113  H1115   1.111   .     S
C1113  H1116   1.111   .     S
C1121  O1173   1.282   .     A
C1121  C1132   1.419   .     S
C1121  O1171   1.282   .     A
C1122  C1131   1.420   .     S
C1122  O1174   1.282   .     A
C1122  O1172   1.282   .     A
C1123  H1159   1.078   .     S
C1123  C1125   1.385   .     A
C1123  C1152   1.416   .     A
C1124  C1126   1.388   .     A
C1124  H1160   1.077   .     S
C1124  C1151   1.417   .     A
C1125  H1153   1.084   .     S
C1126  H1154   1.084   .     S
C1126  C430    1.392   1_556 S
C1127  H1161   1.084   .     S
C1127  C1132   1.397   .     A
C1127  C1369   1.370   .     S
C1128  H1162   1.084   .     S
C1128  C1131   1.397   .     A
C1129  H1163   1.084   .     S
C1129  C1131   1.397   .     A
C1130  C1132   1.397   .     A
C1130  H1164   1.084   .     S
C1130  C1368   1.370   .     S
C1133  H1165   1.082   .     S
C1133  N1170   1.366   .     A
C1133  C975    1.415   1_655 S
C1134  H1166   1.082   .     S
C1134  N1169   1.366   .     A
C1135  H1167   1.082   .     S
C1135  N1169   1.366   .     A
C1136  H1168   1.082   .     S
C1136  N1170   1.366   .     A
C1136  C974    1.415   1_655 S
C1137  O1175   1.289   .     A
C1137  C1139   1.467   .     S
C1137  O1177   1.297   .     A
C1138  O1178   1.298   .     A
C1138  O1176   1.292   .     A
C1138  C1140   1.473   .     S
C1139  C1143   1.419   .     A
C1139  C1145   1.396   .     A
C1140  C1144   1.422   .     A
C1140  C1146   1.394   .     A
C1141  C1143   1.400   .     A
C1141  C1149   1.400   .     A
C1141  H1157   1.085   .     S
C1142  H1158   1.085   .     S
C1142  C1144   1.404   .     A
C1142  C1150   1.401   .     A
C1143  C1191   1.516   .     S
C1144  C1181   1.513   .     S
C1145  C1147   1.397   .     A
C1145  H1156   1.076   .     S
C1146  C1148   1.395   .     A
C1146  H1155   1.078   .     S
C1147  C1149   1.416   .     A
C1147  C1151   1.421   .     A
C1148  C1152   1.419   .     A
C1148  C1150   1.413   .     A
C1149  C405    1.391   1_556 S
C1151  C432    1.418   1_556 S
N1169  Zn1179  2.007   .     S
N1170  Zn1180  2.007   .     S
O1171  Zn1179  2.000   .     S
O1172  Zn1180  2.000   .     S
O1173  Zn1180  2.000   .     S
O1174  Zn1179  2.000   .     S
O1175  Zn1179  1.956   .     S
O1176  Zn1180  1.956   .     S
O1177  Zn1180  1.892   .     S
O1178  Zn1179  1.892   .     S
C1181  C1182   1.533   .     S
C1181  H1189   1.109   .     S
C1181  H1030   1.112   1_655 S
C1182  H1187   1.112   .     S
C1182  C1183   1.526   .     S
C1182  H1188   1.108   .     S
C1183  H1186   1.110   .     S
C1183  H1184   1.110   .     S
C1183  H1025   1.111   1_655 S
C1191  H1199   1.109   .     S
C1191  H1200   1.113   .     S
C1192  H1197   1.109   .     S
C1192  C1193   1.526   .     S
C1192  C1031   1.531   1_655 S
C1192  H1038   1.111   1_655 S
C1193  H1194   1.111   .     S
C1193  H1195   1.111   .     S
C1193  H1196   1.111   .     S
C1201  O1253   1.282   .     A
C1201  C1212   1.419   .     S
C1201  O1251   1.282   .     A
C1202  C1211   1.420   .     S
C1202  O1254   1.282   .     A
C1202  O1252   1.282   .     A
C1203  H1239   1.078   .     S
C1203  C1205   1.385   .     A
C1203  C1232   1.416   .     A
C1204  C1206   1.388   .     A
C1204  H1240   1.077   .     S
C1204  C1231   1.417   .     A
C1205  H1233   1.084   .     S
C1206  H1234   1.084   .     S
C1206  C510    1.392   1_556 S
C1207  H1241   1.084   .     S
C1207  C1212   1.397   .     A
C1207  C729    1.370   1_565 S
C1208  H1242   1.084   .     S
C1208  C1211   1.397   .     A
C1209  H1243   1.084   .     S
C1209  C1211   1.397   .     A
C1210  C1212   1.397   .     A
C1210  H1244   1.084   .     S
C1210  C728    1.370   1_565 S
C1213  H1245   1.082   .     S
C1213  N1250   1.366   .     A
C1213  C1295   1.415   .     S
C1214  H1246   1.082   .     S
C1214  N1249   1.366   .     A
C1214  C1376   1.415   1_455 S
C1215  H1247   1.082   .     S
C1215  N1249   1.366   .     A
C1215  C1373   1.415   1_455 S
C1216  H1248   1.082   .     S
C1216  N1250   1.366   .     A
C1216  C1294   1.415   .     S
C1217  O1255   1.289   .     A
C1217  C1219   1.467   .     S
C1217  O1257   1.297   .     A
C1218  O1258   1.298   .     A
C1218  O1256   1.292   .     A
C1218  C1220   1.473   .     S
C1219  C1223   1.419   .     A
C1219  C1225   1.396   .     A
C1220  C1224   1.422   .     A
C1220  C1226   1.394   .     A
C1221  C1223   1.400   .     A
C1221  C1229   1.400   .     A
C1221  H1237   1.085   .     S
C1222  H1238   1.085   .     S
C1222  C1224   1.404   .     A
C1222  C1230   1.401   .     A
C1223  C1271   1.516   .     S
C1224  C1261   1.513   .     S
C1225  C1227   1.397   .     A
C1225  H1236   1.076   .     S
C1226  C1228   1.395   .     A
C1226  H1235   1.078   .     S
C1227  C1229   1.416   .     A
C1227  C1231   1.421   .     A
C1228  C1232   1.419   .     A
C1228  C1230   1.413   .     A
C1229  C485    1.391   1_556 S
C1231  C512    1.418   1_556 S
N1249  Zn1259  2.007   .     S
N1250  Zn1260  2.007   .     S
O1251  Zn1259  2.000   .     S
O1252  Zn1260  2.000   .     S
O1253  Zn1260  2.000   .     S
O1254  Zn1259  2.000   .     S
O1255  Zn1259  1.956   .     S
O1256  Zn1260  1.956   .     S
O1257  Zn1260  1.892   .     S
O1258  Zn1259  1.892   .     S
C1261  C1262   1.533   .     S
C1261  H1269   1.109   .     S
C1261  H1350   1.112   .     S
C1262  H1267   1.112   .     S
C1262  C1263   1.526   .     S
C1262  H1268   1.108   .     S
C1263  H1266   1.110   .     S
C1263  H1264   1.110   .     S
C1263  H1345   1.111   .     S
H1265  C1423   1.111   1_455 S
H1270  C1421   1.112   1_455 S
C1271  H1279   1.109   .     S
C1271  H1280   1.113   .     S
C1271  C1432   1.531   1_455 S
C1272  H1277   1.109   .     S
C1272  C1273   1.526   .     S
C1272  C1351   1.531   .     S
C1272  H1358   1.111   .     S
C1273  H1274   1.111   .     S
C1273  H1275   1.111   .     S
C1273  H1276   1.111   .     S
H1278  C1432   1.111   1_455 S
C1281  O1333   1.282   .     A
C1281  C1292   1.419   .     S
C1281  O1331   1.282   .     A
C1282  C1291   1.420   .     S
C1282  O1334   1.282   .     A
C1282  O1332   1.282   .     A
C1283  H1319   1.078   .     S
C1283  C1285   1.385   .     A
C1283  C1312   1.416   .     A
C1284  C1286   1.388   .     A
C1284  H1320   1.077   .     S
C1284  C1311   1.417   .     A
C1285  H1313   1.084   .     S
C1286  H1314   1.084   .     S
C1286  C590    1.392   1_556 S
C1287  H1321   1.084   .     S
C1287  C1292   1.397   .     A
C1287  C809    1.370   1_565 S
C1288  H1322   1.084   .     S
C1288  C1291   1.397   .     A
C1289  H1323   1.084   .     S
C1289  C1291   1.397   .     A
C1290  C1292   1.397   .     A
C1290  H1324   1.084   .     S
C1290  C808    1.370   1_565 S
C1293  H1325   1.082   .     S
C1293  N1330   1.366   .     A
C1293  C1375   1.415   .     S
C1294  H1326   1.082   .     S
C1294  N1329   1.366   .     A
C1295  H1327   1.082   .     S
C1295  N1329   1.366   .     A
C1296  H1328   1.082   .     S
C1296  N1330   1.366   .     A
C1296  C1374   1.415   .     S
C1297  O1335   1.289   .     A
C1297  C1299   1.467   .     S
C1297  O1337   1.297   .     A
C1298  O1338   1.298   .     A
C1298  O1336   1.292   .     A
C1298  C1300   1.473   .     S
C1299  C1303   1.419   .     A
C1299  C1305   1.396   .     A
C1300  C1304   1.422   .     A
C1300  C1306   1.394   .     A
C1301  C1303   1.400   .     A
C1301  C1309   1.400   .     A
C1301  H1317   1.085   .     S
C1302  H1318   1.085   .     S
C1302  C1304   1.404   .     A
C1302  C1310   1.401   .     A
C1303  C1351   1.516   .     S
C1304  C1341   1.513   .     S
C1305  C1307   1.397   .     A
C1305  H1316   1.076   .     S
C1306  C1308   1.395   .     A
C1306  H1315   1.078   .     S
C1307  C1309   1.416   .     A
C1307  C1311   1.421   .     A
C1308  C1312   1.419   .     A
C1308  C1310   1.413   .     A
C1309  C565    1.391   1_556 S
C1311  C592    1.418   1_556 S
N1329  Zn1339  2.007   .     S
N1330  Zn1340  2.007   .     S
O1331  Zn1339  2.000   .     S
O1332  Zn1340  2.000   .     S
O1333  Zn1340  2.000   .     S
O1334  Zn1339  2.000   .     S
O1335  Zn1339  1.956   .     S
O1336  Zn1340  1.956   .     S
O1337  Zn1340  1.892   .     S
O1338  Zn1339  1.892   .     S
C1341  C1342   1.533   .     S
C1341  H1349   1.109   .     S
C1341  H1430   1.112   .     S
C1342  H1347   1.112   .     S
C1342  C1343   1.526   .     S
C1342  H1348   1.108   .     S
C1343  H1346   1.110   .     S
C1343  H1344   1.110   .     S
C1343  H1425   1.111   .     S
C1351  H1359   1.109   .     S
C1351  H1360   1.113   .     S
C1352  H1357   1.109   .     S
C1352  C1353   1.526   .     S
C1352  C1431   1.531   .     S
C1352  H1438   1.111   .     S
C1353  H1354   1.111   .     S
C1353  H1355   1.111   .     S
C1353  H1356   1.111   .     S
C1361  O1413   1.282   .     A
C1361  C1372   1.419   .     S
C1361  O1411   1.282   .     A
C1362  C1371   1.420   .     S
C1362  O1414   1.282   .     A
C1362  O1412   1.282   .     A
C1363  H1399   1.078   .     S
C1363  C1365   1.385   .     A
C1363  C1392   1.416   .     A
C1364  C1366   1.388   .     A
C1364  H1400   1.077   .     S
C1364  C1391   1.417   .     A
C1365  H1393   1.084   .     S
C1366  H1394   1.084   .     S
C1366  C670    1.392   1_556 S
C1367  H1401   1.084   .     S
C1367  C1372   1.397   .     A
C1367  C889    1.370   1_565 S
C1368  H1402   1.084   .     S
C1368  C1371   1.397   .     A
C1369  H1403   1.084   .     S
C1369  C1371   1.397   .     A
C1370  C1372   1.397   .     A
C1370  H1404   1.084   .     S
C1370  C888    1.370   1_565 S
C1373  H1405   1.082   .     S
C1373  N1410   1.366   .     A
C1373  C1215   1.415   1_655 S
C1374  H1406   1.082   .     S
C1374  N1409   1.366   .     A
C1375  H1407   1.082   .     S
C1375  N1409   1.366   .     A
C1376  H1408   1.082   .     S
C1376  N1410   1.366   .     A
C1376  C1214   1.415   1_655 S
C1377  O1415   1.289   .     A
C1377  C1379   1.467   .     S
C1377  O1417   1.297   .     A
C1378  O1418   1.298   .     A
C1378  O1416   1.292   .     A
C1378  C1380   1.473   .     S
C1379  C1383   1.419   .     A
C1379  C1385   1.396   .     A
C1380  C1384   1.422   .     A
C1380  C1386   1.394   .     A
C1381  C1383   1.400   .     A
C1381  C1389   1.400   .     A
C1381  H1397   1.085   .     S
C1382  H1398   1.085   .     S
C1382  C1384   1.404   .     A
C1382  C1390   1.401   .     A
C1383  C1431   1.516   .     S
C1384  C1421   1.513   .     S
C1385  C1387   1.397   .     A
C1385  H1396   1.076   .     S
C1386  C1388   1.395   .     A
C1386  H1395   1.078   .     S
C1387  C1389   1.416   .     A
C1387  C1391   1.421   .     A
C1388  C1392   1.419   .     A
C1388  C1390   1.413   .     A
C1389  C645    1.391   1_556 S
C1391  C672    1.418   1_556 S
N1409  Zn1419  2.007   .     S
N1410  Zn1420  2.007   .     S
O1411  Zn1419  2.000   .     S
O1412  Zn1420  2.000   .     S
O1413  Zn1420  2.000   .     S
O1414  Zn1419  2.000   .     S
O1415  Zn1419  1.956   .     S
O1416  Zn1420  1.956   .     S
O1417  Zn1420  1.892   .     S
O1418  Zn1419  1.892   .     S
C1421  C1422   1.533   .     S
C1421  H1429   1.109   .     S
C1421  H1270   1.112   1_655 S
C1422  H1427   1.112   .     S
C1422  C1423   1.526   .     S
C1422  H1428   1.108   .     S
C1423  H1426   1.110   .     S
C1423  H1424   1.110   .     S
C1423  H1265   1.111   1_655 S
C1431  H1439   1.109   .     S
C1431  H1440   1.113   .     S
C1432  H1437   1.109   .     S
C1432  C1433   1.526   .     S
C1432  C1271   1.531   1_655 S
C1432  H1278   1.111   1_655 S
C1433  H1434   1.111   .     S
C1433  H1435   1.111   .     S
C1433  H1436   1.111   .     S
