data_str_m3_o1_o2_pcu_sym.33
_audit_creation_date              2020-01-03
_audit_creation_method            'Materials Studio'
_symmetry_space_group_name_H-M    'P1'
_symmetry_Int_Tables_number       1
_symmetry_cell_setting            triclinic
loop_
_symmetry_equiv_pos_as_xyz
  x,y,z
_cell_length_a                    31.8618
_cell_length_b                    30.3495
_cell_length_c                    29.9172
_cell_angle_alpha                 89.8346
_cell_angle_beta                  94.3468
_cell_angle_gamma                 88.5823
loop_
_atom_site_label
_atom_site_type_symbol
_atom_site_fract_x
_atom_site_fract_y
_atom_site_fract_z
_atom_site_U_iso_or_equiv
_atom_site_adp_type
_atom_site_occupancy
C1     C     0.08698   0.16715   0.24950   0.00000  Uiso   1.00
C2     C     0.30875   0.19469   0.21990   0.00000  Uiso   1.00
C3     C     0.31517   0.13941   0.27927   0.00000  Uiso   1.00
C4     C     0.01856   0.19562   0.22029   0.00000  Uiso   1.00
C5     C     0.18253   0.20493   0.04868   0.00000  Uiso   1.00
C6     C     0.18066   0.13372   0.45596   0.00000  Uiso   1.00
C7     C     0.14824   0.20711   0.45033   0.00000  Uiso   1.00
C8     C     0.14292   0.13736   0.04467   0.00000  Uiso   1.00
C9     C     0.18403   0.20316   0.09495   0.00000  Uiso   1.00
C10    C     0.18161   0.13232   0.41002   0.00000  Uiso   1.00
C11    C     0.14888   0.20552   0.40421   0.00000  Uiso   1.00
C12    C     0.24640   0.16633   0.24992   0.00000  Uiso   1.00
C13    C     0.14420   0.13579   0.09079   0.00000  Uiso   1.00
C14    C     0.16534   0.16817   0.11603   0.00000  Uiso   1.00
C15    C     0.16543   0.16793   0.38394   0.00000  Uiso   1.00
C16    C     0.16248   0.17162   0.02378   0.00000  Uiso   1.00
C17    C     0.16382   0.17099   0.47595   0.00000  Uiso   1.00
C18    C     0.29069   0.16615   0.24919   0.00000  Uiso   1.00
C19    C     0.04281   0.16788   0.24977   0.00000  Uiso   1.00
C20    C     0.20444   0.04035   0.32750   0.00000  Uiso   1.00
C21    C     0.24497   0.06679   0.32810   0.00000  Uiso   1.00
C22    C     0.27498   0.05775   0.36973   0.00000  Uiso   1.00
C23    C     0.16644   0.16688   0.16419   0.00000  Uiso   1.00
C24    C     0.09591   0.29152   0.20423   0.00000  Uiso   1.00
C25    C     0.09941   0.26494   0.16071   0.00000  Uiso   1.00
C26    C     0.06391   0.27543   0.12471   0.00000  Uiso   1.00
C27    C     0.12442   0.04430   0.17433   0.00000  Uiso   1.00
C28    C     0.08379   0.07269   0.17698   0.00000  Uiso   1.00
C29    C     0.05045   0.06424   0.13871   0.00000  Uiso   1.00
C30    C     0.23792   0.28848   0.29560   0.00000  Uiso   1.00
C31    C     0.23525   0.25974   0.33787   0.00000  Uiso   1.00
C32    C     0.27120   0.26687   0.37363   0.00000  Uiso   1.00
C33    C     0.16646   0.16679   0.33584   0.00000  Uiso   1.00
C34    C     0.19030   0.02234   0.28185   0.00000  Uiso   1.00
C35    C     0.13711   0.31068   0.22388   0.00000  Uiso   1.00
C36    C     0.14213   0.02400   0.21857   0.00000  Uiso   1.00
C37    C     0.19609   0.30908   0.27614   0.00000  Uiso   1.00
C38    C     0.02478   0.13979   0.27926   0.00000  Uiso   1.00
H39    H     0.19783   0.23138   0.03235   0.00000  Uiso   1.00
H40    H     0.28953   0.21580   0.19683   0.00000  Uiso   1.00
H41    H     0.30150   0.11957   0.30363   0.00000  Uiso   1.00
H42    H     0.03275   0.21702   0.19720   0.00000  Uiso   1.00
H43    H     0.25755   0.05512   0.40036   0.00000  Uiso   1.00
H44    H     0.29369   0.02706   0.36522   0.00000  Uiso   1.00
H45    H     0.29744   0.08501   0.37467   0.00000  Uiso   1.00
H46    H     0.26196   0.05915   0.29785   0.00000  Uiso   1.00
H47    H     0.23702   0.10236   0.32806   0.00000  Uiso   1.00
H48    H     0.17779   0.05833   0.34083   0.00000  Uiso   1.00
H49    H     0.20920   0.01290   0.35207   0.00000  Uiso   1.00
H50    H     0.19339   0.10601   0.47601   0.00000  Uiso   1.00
H51    H     0.03279   0.27554   0.13912   0.00000  Uiso   1.00
H52    H     0.06870   0.30772   0.10879   0.00000  Uiso   1.00
H53    H     0.06402   0.25000   0.09809   0.00000  Uiso   1.00
H54    H     0.12988   0.27081   0.14618   0.00000  Uiso   1.00
H55    H     0.09708   0.22951   0.16842   0.00000  Uiso   1.00
H56    H     0.08103   0.27302   0.23017   0.00000  Uiso   1.00
H57    H     0.07214   0.31850   0.19788   0.00000  Uiso   1.00
H58    H     0.06447   0.06451   0.10584   0.00000  Uiso   1.00
H59    H     0.03534   0.03229   0.14366   0.00000  Uiso   1.00
H60    H     0.02550   0.09048   0.13838   0.00000  Uiso   1.00
H61    H     0.13513   0.23597   0.46596   0.00000  Uiso   1.00
H62    H     0.06941   0.06675   0.20911   0.00000  Uiso   1.00
H63    H     0.09145   0.10788   0.17436   0.00000  Uiso   1.00
H64    H     0.14969   0.06130   0.15892   0.00000  Uiso   1.00
H65    H     0.11842   0.01804   0.14924   0.00000  Uiso   1.00
H66    H     0.30199   0.26674   0.35851   0.00000  Uiso   1.00
H67    H     0.26611   0.29830   0.39135   0.00000  Uiso   1.00
H68    H     0.27188   0.23993   0.39891   0.00000  Uiso   1.00
H69    H     0.20510   0.26631   0.35331   0.00000  Uiso   1.00
H70    H     0.23778   0.22461   0.32864   0.00000  Uiso   1.00
H71    H     0.25411   0.27125   0.26920   0.00000  Uiso   1.00
H72    H     0.12685   0.11190   0.02521   0.00000  Uiso   1.00
H73    H     0.26048   0.31498   0.30377   0.00000  Uiso   1.00
H74    H     0.20024   0.22864   0.11422   0.00000  Uiso   1.00
H75    H     0.19571   0.10388   0.39537   0.00000  Uiso   1.00
H76    H     0.13615   0.23341   0.38447   0.00000  Uiso   1.00
H77    H     0.12807   0.10984   0.10631   0.00000  Uiso   1.00
H78    H     0.04390   0.11891   0.30265   0.00000  Uiso   1.00
N79    N     0.16667   0.28573   0.25000   0.00000  Uiso   1.00
N80    N     0.16667   0.04760   0.25000   0.00000  Uiso   1.00
O81    O     0.10559   0.20487   0.24999   0.00000  Uiso   1.00
O82    O     0.22774   0.12846   0.25000   0.00000  Uiso   1.00
O83    O     0.22774   0.20487   0.25000   0.00000  Uiso   1.00
O84    O     0.10559   0.12846   0.24999   0.00000  Uiso   1.00
O85    O     0.16666   0.20489   0.18453   0.00000  Uiso   1.00
O86    O     0.16667   0.12845   0.31547   0.00000  Uiso   1.00
O87    O     0.16667   0.20489   0.31547   0.00000  Uiso   1.00
O88    O     0.16666   0.12845   0.18453   0.00000  Uiso   1.00
Zn89   Zn    0.16667   0.21771   0.25000   0.00000  Uiso   1.00
Zn90   Zn    0.16667   0.11563   0.25000   0.00000  Uiso   1.00
C91    C     0.42032   0.16715   0.24950   0.00000  Uiso   1.00
C92    C     0.64208   0.19469   0.21990   0.00000  Uiso   1.00
C93    C     0.64850   0.13941   0.27927   0.00000  Uiso   1.00
C94    C     0.35189   0.19562   0.22029   0.00000  Uiso   1.00
C95    C     0.51586   0.20493   0.04868   0.00000  Uiso   1.00
C96    C     0.51399   0.13372   0.45596   0.00000  Uiso   1.00
C97    C     0.48158   0.20711   0.45033   0.00000  Uiso   1.00
C98    C     0.47625   0.13736   0.04467   0.00000  Uiso   1.00
C99    C     0.51737   0.20316   0.09495   0.00000  Uiso   1.00
C100   C     0.51495   0.13232   0.41002   0.00000  Uiso   1.00
C101   C     0.48221   0.20552   0.40421   0.00000  Uiso   1.00
C102   C     0.57973   0.16633   0.24992   0.00000  Uiso   1.00
C103   C     0.47754   0.13579   0.09079   0.00000  Uiso   1.00
C104   C     0.49867   0.16817   0.11603   0.00000  Uiso   1.00
C105   C     0.49876   0.16793   0.38394   0.00000  Uiso   1.00
C106   C     0.49581   0.17162   0.02378   0.00000  Uiso   1.00
C107   C     0.49715   0.17099   0.47595   0.00000  Uiso   1.00
C108   C     0.62403   0.16615   0.24919   0.00000  Uiso   1.00
C109   C     0.37614   0.16788   0.24977   0.00000  Uiso   1.00
C110   C     0.53777   0.04035   0.32750   0.00000  Uiso   1.00
C111   C     0.57831   0.06679   0.32810   0.00000  Uiso   1.00
C112   C     0.60831   0.05775   0.36973   0.00000  Uiso   1.00
C113   C     0.49978   0.16688   0.16419   0.00000  Uiso   1.00
C114   C     0.42924   0.29152   0.20423   0.00000  Uiso   1.00
C115   C     0.43275   0.26494   0.16071   0.00000  Uiso   1.00
C116   C     0.39724   0.27543   0.12471   0.00000  Uiso   1.00
C117   C     0.45775   0.04430   0.17433   0.00000  Uiso   1.00
C118   C     0.41712   0.07269   0.17698   0.00000  Uiso   1.00
C119   C     0.38378   0.06424   0.13871   0.00000  Uiso   1.00
C120   C     0.57125   0.28848   0.29560   0.00000  Uiso   1.00
C121   C     0.56858   0.25974   0.33787   0.00000  Uiso   1.00
C122   C     0.60453   0.26687   0.37363   0.00000  Uiso   1.00
C123   C     0.49979   0.16679   0.33584   0.00000  Uiso   1.00
C124   C     0.52363   0.02234   0.28185   0.00000  Uiso   1.00
C125   C     0.47044   0.31068   0.22388   0.00000  Uiso   1.00
C126   C     0.47546   0.02400   0.21857   0.00000  Uiso   1.00
C127   C     0.52942   0.30908   0.27614   0.00000  Uiso   1.00
C128   C     0.35811   0.13979   0.27926   0.00000  Uiso   1.00
H129   H     0.53117   0.23138   0.03235   0.00000  Uiso   1.00
H130   H     0.62287   0.21580   0.19683   0.00000  Uiso   1.00
H131   H     0.63483   0.11957   0.30363   0.00000  Uiso   1.00
H132   H     0.36608   0.21702   0.19720   0.00000  Uiso   1.00
H133   H     0.59088   0.05512   0.40036   0.00000  Uiso   1.00
H134   H     0.62703   0.02706   0.36522   0.00000  Uiso   1.00
H135   H     0.63077   0.08501   0.37467   0.00000  Uiso   1.00
H136   H     0.59530   0.05915   0.29785   0.00000  Uiso   1.00
H137   H     0.57035   0.10236   0.32806   0.00000  Uiso   1.00
H138   H     0.51113   0.05833   0.34083   0.00000  Uiso   1.00
H139   H     0.54254   0.01290   0.35207   0.00000  Uiso   1.00
H140   H     0.52673   0.10601   0.47601   0.00000  Uiso   1.00
H141   H     0.36613   0.27554   0.13912   0.00000  Uiso   1.00
H142   H     0.40203   0.30772   0.10879   0.00000  Uiso   1.00
H143   H     0.39736   0.25000   0.09809   0.00000  Uiso   1.00
H144   H     0.46321   0.27081   0.14618   0.00000  Uiso   1.00
H145   H     0.43042   0.22951   0.16842   0.00000  Uiso   1.00
H146   H     0.41436   0.27302   0.23017   0.00000  Uiso   1.00
H147   H     0.40547   0.31850   0.19788   0.00000  Uiso   1.00
H148   H     0.39780   0.06451   0.10584   0.00000  Uiso   1.00
H149   H     0.36867   0.03229   0.14366   0.00000  Uiso   1.00
H150   H     0.35883   0.09048   0.13838   0.00000  Uiso   1.00
H151   H     0.46846   0.23597   0.46596   0.00000  Uiso   1.00
H152   H     0.40275   0.06675   0.20911   0.00000  Uiso   1.00
H153   H     0.42478   0.10788   0.17436   0.00000  Uiso   1.00
H154   H     0.48302   0.06130   0.15892   0.00000  Uiso   1.00
H155   H     0.45175   0.01804   0.14924   0.00000  Uiso   1.00
H156   H     0.63533   0.26674   0.35851   0.00000  Uiso   1.00
H157   H     0.59944   0.29830   0.39135   0.00000  Uiso   1.00
H158   H     0.60521   0.23993   0.39891   0.00000  Uiso   1.00
H159   H     0.53843   0.26631   0.35331   0.00000  Uiso   1.00
H160   H     0.57111   0.22461   0.32864   0.00000  Uiso   1.00
H161   H     0.58744   0.27125   0.26920   0.00000  Uiso   1.00
H162   H     0.46018   0.11190   0.02521   0.00000  Uiso   1.00
H163   H     0.59381   0.31498   0.30377   0.00000  Uiso   1.00
H164   H     0.53357   0.22864   0.11422   0.00000  Uiso   1.00
H165   H     0.52904   0.10388   0.39537   0.00000  Uiso   1.00
H166   H     0.46948   0.23341   0.38447   0.00000  Uiso   1.00
H167   H     0.46140   0.10984   0.10631   0.00000  Uiso   1.00
H168   H     0.37724   0.11891   0.30265   0.00000  Uiso   1.00
N169   N     0.50000   0.28573   0.25000   0.00000  Uiso   1.00
N170   N     0.50000   0.04760   0.25000   0.00000  Uiso   1.00
O171   O     0.43892   0.20487   0.24999   0.00000  Uiso   1.00
O172   O     0.56108   0.12846   0.25000   0.00000  Uiso   1.00
O173   O     0.56108   0.20487   0.25000   0.00000  Uiso   1.00
O174   O     0.43892   0.12846   0.24999   0.00000  Uiso   1.00
O175   O     0.50000   0.20489   0.18453   0.00000  Uiso   1.00
O176   O     0.50000   0.12845   0.31547   0.00000  Uiso   1.00
O177   O     0.50000   0.20489   0.31547   0.00000  Uiso   1.00
O178   O     0.50000   0.12845   0.18453   0.00000  Uiso   1.00
Zn179  Zn    0.50000   0.21771   0.25000   0.00000  Uiso   1.00
Zn180  Zn    0.50000   0.11563   0.25000   0.00000  Uiso   1.00
C181   C     0.75365   0.16715   0.24950   0.00000  Uiso   1.00
C182   C     0.97542   0.19469   0.21990   0.00000  Uiso   1.00
C183   C     0.98183   0.13941   0.27927   0.00000  Uiso   1.00
C184   C     0.68523   0.19562   0.22029   0.00000  Uiso   1.00
C185   C     0.84919   0.20493   0.04868   0.00000  Uiso   1.00
C186   C     0.84733   0.13372   0.45596   0.00000  Uiso   1.00
C187   C     0.81491   0.20711   0.45033   0.00000  Uiso   1.00
C188   C     0.80959   0.13736   0.04467   0.00000  Uiso   1.00
C189   C     0.85070   0.20316   0.09495   0.00000  Uiso   1.00
C190   C     0.84828   0.13232   0.41002   0.00000  Uiso   1.00
C191   C     0.81555   0.20552   0.40421   0.00000  Uiso   1.00
C192   C     0.91306   0.16633   0.24992   0.00000  Uiso   1.00
C193   C     0.81087   0.13579   0.09079   0.00000  Uiso   1.00
C194   C     0.83201   0.16817   0.11603   0.00000  Uiso   1.00
C195   C     0.83209   0.16793   0.38394   0.00000  Uiso   1.00
C196   C     0.82914   0.17162   0.02378   0.00000  Uiso   1.00
C197   C     0.83048   0.17099   0.47595   0.00000  Uiso   1.00
C198   C     0.95736   0.16615   0.24919   0.00000  Uiso   1.00
C199   C     0.70948   0.16788   0.24977   0.00000  Uiso   1.00
C200   C     0.87110   0.04035   0.32750   0.00000  Uiso   1.00
C201   C     0.91164   0.06679   0.32810   0.00000  Uiso   1.00
C202   C     0.94164   0.05775   0.36973   0.00000  Uiso   1.00
C203   C     0.83311   0.16688   0.16419   0.00000  Uiso   1.00
C204   C     0.76257   0.29152   0.20423   0.00000  Uiso   1.00
C205   C     0.76608   0.26494   0.16071   0.00000  Uiso   1.00
C206   C     0.73058   0.27543   0.12471   0.00000  Uiso   1.00
C207   C     0.79109   0.04430   0.17433   0.00000  Uiso   1.00
C208   C     0.75046   0.07269   0.17698   0.00000  Uiso   1.00
C209   C     0.71712   0.06424   0.13871   0.00000  Uiso   1.00
C210   C     0.90458   0.28848   0.29560   0.00000  Uiso   1.00
C211   C     0.90191   0.25974   0.33787   0.00000  Uiso   1.00
C212   C     0.93787   0.26687   0.37363   0.00000  Uiso   1.00
C213   C     0.83312   0.16679   0.33584   0.00000  Uiso   1.00
C214   C     0.85696   0.02234   0.28185   0.00000  Uiso   1.00
C215   C     0.80378   0.31068   0.22388   0.00000  Uiso   1.00
C216   C     0.80880   0.02400   0.21857   0.00000  Uiso   1.00
C217   C     0.86275   0.30908   0.27614   0.00000  Uiso   1.00
C218   C     0.69144   0.13979   0.27926   0.00000  Uiso   1.00
H219   H     0.86450   0.23138   0.03235   0.00000  Uiso   1.00
H220   H     0.95620   0.21580   0.19683   0.00000  Uiso   1.00
H221   H     0.96817   0.11957   0.30363   0.00000  Uiso   1.00
H222   H     0.69941   0.21702   0.19720   0.00000  Uiso   1.00
H223   H     0.92422   0.05512   0.40036   0.00000  Uiso   1.00
H224   H     0.96036   0.02706   0.36522   0.00000  Uiso   1.00
H225   H     0.96410   0.08501   0.37467   0.00000  Uiso   1.00
H226   H     0.92863   0.05915   0.29785   0.00000  Uiso   1.00
H227   H     0.90369   0.10236   0.32806   0.00000  Uiso   1.00
H228   H     0.84446   0.05833   0.34083   0.00000  Uiso   1.00
H229   H     0.87587   0.01290   0.35207   0.00000  Uiso   1.00
H230   H     0.86006   0.10601   0.47601   0.00000  Uiso   1.00
H231   H     0.69946   0.27554   0.13912   0.00000  Uiso   1.00
H232   H     0.73537   0.30772   0.10879   0.00000  Uiso   1.00
H233   H     0.73069   0.25000   0.09809   0.00000  Uiso   1.00
H234   H     0.79655   0.27081   0.14618   0.00000  Uiso   1.00
H235   H     0.76375   0.22951   0.16842   0.00000  Uiso   1.00
H236   H     0.74770   0.27302   0.23017   0.00000  Uiso   1.00
H237   H     0.73881   0.31850   0.19788   0.00000  Uiso   1.00
H238   H     0.73114   0.06451   0.10584   0.00000  Uiso   1.00
H239   H     0.70201   0.03229   0.14366   0.00000  Uiso   1.00
H240   H     0.69217   0.09048   0.13838   0.00000  Uiso   1.00
H241   H     0.80179   0.23597   0.46596   0.00000  Uiso   1.00
H242   H     0.73608   0.06675   0.20911   0.00000  Uiso   1.00
H243   H     0.75811   0.10788   0.17436   0.00000  Uiso   1.00
H244   H     0.81636   0.06130   0.15892   0.00000  Uiso   1.00
H245   H     0.78508   0.01804   0.14924   0.00000  Uiso   1.00
H246   H     0.96866   0.26674   0.35851   0.00000  Uiso   1.00
H247   H     0.93277   0.29830   0.39135   0.00000  Uiso   1.00
H248   H     0.93855   0.23993   0.39891   0.00000  Uiso   1.00
H249   H     0.87177   0.26631   0.35331   0.00000  Uiso   1.00
H250   H     0.90445   0.22461   0.32864   0.00000  Uiso   1.00
H251   H     0.92078   0.27125   0.26920   0.00000  Uiso   1.00
H252   H     0.79352   0.11190   0.02521   0.00000  Uiso   1.00
H253   H     0.92715   0.31498   0.30377   0.00000  Uiso   1.00
H254   H     0.86691   0.22864   0.11422   0.00000  Uiso   1.00
H255   H     0.86238   0.10388   0.39537   0.00000  Uiso   1.00
H256   H     0.80281   0.23341   0.38447   0.00000  Uiso   1.00
H257   H     0.79474   0.10984   0.10631   0.00000  Uiso   1.00
H258   H     0.71057   0.11891   0.30265   0.00000  Uiso   1.00
N259   N     0.83333   0.28573   0.25000   0.00000  Uiso   1.00
N260   N     0.83333   0.04760   0.25000   0.00000  Uiso   1.00
O261   O     0.77226   0.20487   0.24999   0.00000  Uiso   1.00
O262   O     0.89441   0.12846   0.25000   0.00000  Uiso   1.00
O263   O     0.89441   0.20487   0.25000   0.00000  Uiso   1.00
O264   O     0.77226   0.12846   0.24999   0.00000  Uiso   1.00
O265   O     0.83333   0.20489   0.18453   0.00000  Uiso   1.00
O266   O     0.83334   0.12845   0.31547   0.00000  Uiso   1.00
O267   O     0.83334   0.20489   0.31547   0.00000  Uiso   1.00
O268   O     0.83333   0.12845   0.18453   0.00000  Uiso   1.00
Zn269  Zn    0.83333   0.21771   0.25000   0.00000  Uiso   1.00
Zn270  Zn    0.83333   0.11563   0.25000   0.00000  Uiso   1.00
C271   C     0.08698   0.50048   0.24950   0.00000  Uiso   1.00
C272   C     0.30875   0.52802   0.21990   0.00000  Uiso   1.00
C273   C     0.31517   0.47274   0.27927   0.00000  Uiso   1.00
C274   C     0.01856   0.52896   0.22029   0.00000  Uiso   1.00
C275   C     0.18253   0.53826   0.04868   0.00000  Uiso   1.00
C276   C     0.18066   0.46705   0.45596   0.00000  Uiso   1.00
C277   C     0.14824   0.54044   0.45033   0.00000  Uiso   1.00
C278   C     0.14292   0.47070   0.04467   0.00000  Uiso   1.00
C279   C     0.18403   0.53650   0.09495   0.00000  Uiso   1.00
C280   C     0.18161   0.46565   0.41002   0.00000  Uiso   1.00
C281   C     0.14888   0.53885   0.40421   0.00000  Uiso   1.00
C282   C     0.24640   0.49966   0.24992   0.00000  Uiso   1.00
C283   C     0.14420   0.46913   0.09079   0.00000  Uiso   1.00
C284   C     0.16534   0.50151   0.11603   0.00000  Uiso   1.00
C285   C     0.16543   0.50126   0.38394   0.00000  Uiso   1.00
C286   C     0.16248   0.50496   0.02378   0.00000  Uiso   1.00
C287   C     0.16382   0.50433   0.47595   0.00000  Uiso   1.00
C288   C     0.29069   0.49948   0.24919   0.00000  Uiso   1.00
C289   C     0.04281   0.50122   0.24977   0.00000  Uiso   1.00
C290   C     0.20444   0.37369   0.32750   0.00000  Uiso   1.00
C291   C     0.24497   0.40013   0.32810   0.00000  Uiso   1.00
C292   C     0.27498   0.39108   0.36973   0.00000  Uiso   1.00
C293   C     0.16644   0.50021   0.16419   0.00000  Uiso   1.00
C294   C     0.09591   0.62485   0.20423   0.00000  Uiso   1.00
C295   C     0.09941   0.59827   0.16071   0.00000  Uiso   1.00
C296   C     0.06391   0.60876   0.12471   0.00000  Uiso   1.00
C297   C     0.12442   0.37763   0.17433   0.00000  Uiso   1.00
C298   C     0.08379   0.40603   0.17698   0.00000  Uiso   1.00
C299   C     0.05045   0.39757   0.13871   0.00000  Uiso   1.00
C300   C     0.23792   0.62181   0.29560   0.00000  Uiso   1.00
C301   C     0.23525   0.59307   0.33787   0.00000  Uiso   1.00
C302   C     0.27120   0.60020   0.37363   0.00000  Uiso   1.00
C303   C     0.16646   0.50012   0.33584   0.00000  Uiso   1.00
C304   C     0.19030   0.35567   0.28185   0.00000  Uiso   1.00
C305   C     0.13711   0.64402   0.22388   0.00000  Uiso   1.00
C306   C     0.14213   0.35734   0.21857   0.00000  Uiso   1.00
C307   C     0.19609   0.64242   0.27614   0.00000  Uiso   1.00
C308   C     0.02478   0.47312   0.27926   0.00000  Uiso   1.00
H309   H     0.19783   0.56471   0.03235   0.00000  Uiso   1.00
H310   H     0.28953   0.54913   0.19683   0.00000  Uiso   1.00
H311   H     0.30150   0.45290   0.30363   0.00000  Uiso   1.00
H312   H     0.03275   0.55036   0.19720   0.00000  Uiso   1.00
H313   H     0.25755   0.38846   0.40036   0.00000  Uiso   1.00
H314   H     0.29369   0.36040   0.36522   0.00000  Uiso   1.00
H315   H     0.29744   0.41834   0.37467   0.00000  Uiso   1.00
H316   H     0.26196   0.39249   0.29785   0.00000  Uiso   1.00
H317   H     0.23702   0.43569   0.32806   0.00000  Uiso   1.00
H318   H     0.17779   0.39166   0.34083   0.00000  Uiso   1.00
H319   H     0.20920   0.34624   0.35207   0.00000  Uiso   1.00
H320   H     0.19339   0.43934   0.47601   0.00000  Uiso   1.00
H321   H     0.03279   0.60888   0.13912   0.00000  Uiso   1.00
H322   H     0.06870   0.64106   0.10879   0.00000  Uiso   1.00
H323   H     0.06402   0.58333   0.09809   0.00000  Uiso   1.00
H324   H     0.12988   0.60414   0.14618   0.00000  Uiso   1.00
H325   H     0.09708   0.56284   0.16842   0.00000  Uiso   1.00
H326   H     0.08103   0.60636   0.23017   0.00000  Uiso   1.00
H327   H     0.07214   0.65183   0.19788   0.00000  Uiso   1.00
H328   H     0.06447   0.39784   0.10584   0.00000  Uiso   1.00
H329   H     0.03534   0.36563   0.14366   0.00000  Uiso   1.00
H330   H     0.02550   0.42382   0.13838   0.00000  Uiso   1.00
H331   H     0.13513   0.56930   0.46596   0.00000  Uiso   1.00
H332   H     0.06941   0.40008   0.20911   0.00000  Uiso   1.00
H333   H     0.09145   0.44122   0.17436   0.00000  Uiso   1.00
H334   H     0.14969   0.39463   0.15892   0.00000  Uiso   1.00
H335   H     0.11842   0.35138   0.14924   0.00000  Uiso   1.00
H336   H     0.30199   0.60008   0.35851   0.00000  Uiso   1.00
H337   H     0.26611   0.63164   0.39135   0.00000  Uiso   1.00
H338   H     0.27188   0.57326   0.39891   0.00000  Uiso   1.00
H339   H     0.20510   0.59965   0.35331   0.00000  Uiso   1.00
H340   H     0.23778   0.55794   0.32864   0.00000  Uiso   1.00
H341   H     0.25411   0.60458   0.26920   0.00000  Uiso   1.00
H342   H     0.12685   0.44524   0.02521   0.00000  Uiso   1.00
H343   H     0.26048   0.64831   0.30377   0.00000  Uiso   1.00
H344   H     0.20024   0.56198   0.11422   0.00000  Uiso   1.00
H345   H     0.19571   0.43721   0.39537   0.00000  Uiso   1.00
H346   H     0.13615   0.56674   0.38447   0.00000  Uiso   1.00
H347   H     0.12807   0.44317   0.10631   0.00000  Uiso   1.00
H348   H     0.04390   0.45225   0.30265   0.00000  Uiso   1.00
N349   N     0.16667   0.61907   0.25000   0.00000  Uiso   1.00
N350   N     0.16667   0.38093   0.25000   0.00000  Uiso   1.00
O351   O     0.10559   0.53821   0.24999   0.00000  Uiso   1.00
O352   O     0.22774   0.46179   0.25000   0.00000  Uiso   1.00
O353   O     0.22774   0.53821   0.25000   0.00000  Uiso   1.00
O354   O     0.10559   0.46179   0.24999   0.00000  Uiso   1.00
O355   O     0.16666   0.53822   0.18453   0.00000  Uiso   1.00
O356   O     0.16667   0.46178   0.31547   0.00000  Uiso   1.00
O357   O     0.16667   0.53822   0.31547   0.00000  Uiso   1.00
O358   O     0.16666   0.46178   0.18453   0.00000  Uiso   1.00
Zn359  Zn    0.16667   0.55104   0.25000   0.00000  Uiso   1.00
Zn360  Zn    0.16667   0.44896   0.25000   0.00000  Uiso   1.00
C361   C     0.42032   0.50048   0.24950   0.00000  Uiso   1.00
C362   C     0.64208   0.52802   0.21990   0.00000  Uiso   1.00
C363   C     0.64850   0.47274   0.27927   0.00000  Uiso   1.00
C364   C     0.35189   0.52896   0.22029   0.00000  Uiso   1.00
C365   C     0.51586   0.53826   0.04868   0.00000  Uiso   1.00
C366   C     0.51399   0.46705   0.45596   0.00000  Uiso   1.00
C367   C     0.48158   0.54044   0.45033   0.00000  Uiso   1.00
C368   C     0.47625   0.47070   0.04467   0.00000  Uiso   1.00
C369   C     0.51737   0.53650   0.09495   0.00000  Uiso   1.00
C370   C     0.51495   0.46565   0.41002   0.00000  Uiso   1.00
C371   C     0.48221   0.53885   0.40421   0.00000  Uiso   1.00
C372   C     0.57973   0.49966   0.24992   0.00000  Uiso   1.00
C373   C     0.47754   0.46913   0.09079   0.00000  Uiso   1.00
C374   C     0.49867   0.50151   0.11603   0.00000  Uiso   1.00
C375   C     0.49876   0.50126   0.38394   0.00000  Uiso   1.00
C376   C     0.49581   0.50496   0.02378   0.00000  Uiso   1.00
C377   C     0.49715   0.50433   0.47595   0.00000  Uiso   1.00
C378   C     0.62403   0.49948   0.24919   0.00000  Uiso   1.00
C379   C     0.37614   0.50122   0.24977   0.00000  Uiso   1.00
C380   C     0.53777   0.37369   0.32750   0.00000  Uiso   1.00
C381   C     0.57831   0.40013   0.32810   0.00000  Uiso   1.00
C382   C     0.60831   0.39108   0.36973   0.00000  Uiso   1.00
C383   C     0.49978   0.50021   0.16419   0.00000  Uiso   1.00
C384   C     0.42924   0.62485   0.20423   0.00000  Uiso   1.00
C385   C     0.43275   0.59827   0.16071   0.00000  Uiso   1.00
C386   C     0.39724   0.60876   0.12471   0.00000  Uiso   1.00
C387   C     0.45775   0.37763   0.17433   0.00000  Uiso   1.00
C388   C     0.41712   0.40603   0.17698   0.00000  Uiso   1.00
C389   C     0.38378   0.39757   0.13871   0.00000  Uiso   1.00
C390   C     0.57125   0.62181   0.29560   0.00000  Uiso   1.00
C391   C     0.56858   0.59307   0.33787   0.00000  Uiso   1.00
C392   C     0.60453   0.60020   0.37363   0.00000  Uiso   1.00
C393   C     0.49979   0.50012   0.33584   0.00000  Uiso   1.00
C394   C     0.52363   0.35567   0.28185   0.00000  Uiso   1.00
C395   C     0.47044   0.64402   0.22388   0.00000  Uiso   1.00
C396   C     0.47546   0.35734   0.21857   0.00000  Uiso   1.00
C397   C     0.52942   0.64242   0.27614   0.00000  Uiso   1.00
C398   C     0.35811   0.47312   0.27926   0.00000  Uiso   1.00
H399   H     0.53117   0.56471   0.03235   0.00000  Uiso   1.00
H400   H     0.62287   0.54913   0.19683   0.00000  Uiso   1.00
H401   H     0.63483   0.45290   0.30363   0.00000  Uiso   1.00
H402   H     0.36608   0.55036   0.19720   0.00000  Uiso   1.00
H403   H     0.59088   0.38846   0.40036   0.00000  Uiso   1.00
H404   H     0.62703   0.36040   0.36522   0.00000  Uiso   1.00
H405   H     0.63077   0.41834   0.37467   0.00000  Uiso   1.00
H406   H     0.59530   0.39249   0.29785   0.00000  Uiso   1.00
H407   H     0.57035   0.43569   0.32806   0.00000  Uiso   1.00
H408   H     0.51113   0.39166   0.34083   0.00000  Uiso   1.00
H409   H     0.54254   0.34624   0.35207   0.00000  Uiso   1.00
H410   H     0.52673   0.43934   0.47601   0.00000  Uiso   1.00
H411   H     0.36613   0.60888   0.13912   0.00000  Uiso   1.00
H412   H     0.40203   0.64106   0.10879   0.00000  Uiso   1.00
H413   H     0.39736   0.58333   0.09809   0.00000  Uiso   1.00
H414   H     0.46321   0.60414   0.14618   0.00000  Uiso   1.00
H415   H     0.43042   0.56284   0.16842   0.00000  Uiso   1.00
H416   H     0.41436   0.60636   0.23017   0.00000  Uiso   1.00
H417   H     0.40547   0.65183   0.19788   0.00000  Uiso   1.00
H418   H     0.39780   0.39784   0.10584   0.00000  Uiso   1.00
H419   H     0.36867   0.36563   0.14366   0.00000  Uiso   1.00
H420   H     0.35883   0.42382   0.13838   0.00000  Uiso   1.00
H421   H     0.46846   0.56930   0.46596   0.00000  Uiso   1.00
H422   H     0.40275   0.40008   0.20911   0.00000  Uiso   1.00
H423   H     0.42478   0.44122   0.17436   0.00000  Uiso   1.00
H424   H     0.48302   0.39463   0.15892   0.00000  Uiso   1.00
H425   H     0.45175   0.35138   0.14924   0.00000  Uiso   1.00
H426   H     0.63533   0.60008   0.35851   0.00000  Uiso   1.00
H427   H     0.59944   0.63164   0.39135   0.00000  Uiso   1.00
H428   H     0.60521   0.57326   0.39891   0.00000  Uiso   1.00
H429   H     0.53843   0.59965   0.35331   0.00000  Uiso   1.00
H430   H     0.57111   0.55794   0.32864   0.00000  Uiso   1.00
H431   H     0.58744   0.60458   0.26920   0.00000  Uiso   1.00
H432   H     0.46018   0.44524   0.02521   0.00000  Uiso   1.00
H433   H     0.59381   0.64831   0.30377   0.00000  Uiso   1.00
H434   H     0.53357   0.56198   0.11422   0.00000  Uiso   1.00
H435   H     0.52904   0.43721   0.39537   0.00000  Uiso   1.00
H436   H     0.46948   0.56674   0.38447   0.00000  Uiso   1.00
H437   H     0.46140   0.44317   0.10631   0.00000  Uiso   1.00
H438   H     0.37724   0.45225   0.30265   0.00000  Uiso   1.00
N439   N     0.50000   0.61907   0.25000   0.00000  Uiso   1.00
N440   N     0.50000   0.38093   0.25000   0.00000  Uiso   1.00
O441   O     0.43892   0.53821   0.24999   0.00000  Uiso   1.00
O442   O     0.56108   0.46179   0.25000   0.00000  Uiso   1.00
O443   O     0.56108   0.53821   0.25000   0.00000  Uiso   1.00
O444   O     0.43892   0.46179   0.24999   0.00000  Uiso   1.00
O445   O     0.50000   0.53822   0.18453   0.00000  Uiso   1.00
O446   O     0.50000   0.46178   0.31547   0.00000  Uiso   1.00
O447   O     0.50000   0.53822   0.31547   0.00000  Uiso   1.00
O448   O     0.50000   0.46178   0.18453   0.00000  Uiso   1.00
Zn449  Zn    0.50000   0.55104   0.25000   0.00000  Uiso   1.00
Zn450  Zn    0.50000   0.44896   0.25000   0.00000  Uiso   1.00
C451   C     0.75365   0.50048   0.24950   0.00000  Uiso   1.00
C452   C     0.97542   0.52802   0.21990   0.00000  Uiso   1.00
C453   C     0.98183   0.47274   0.27927   0.00000  Uiso   1.00
C454   C     0.68523   0.52896   0.22029   0.00000  Uiso   1.00
C455   C     0.84919   0.53826   0.04868   0.00000  Uiso   1.00
C456   C     0.84733   0.46705   0.45596   0.00000  Uiso   1.00
C457   C     0.81491   0.54044   0.45033   0.00000  Uiso   1.00
C458   C     0.80959   0.47070   0.04467   0.00000  Uiso   1.00
C459   C     0.85070   0.53650   0.09495   0.00000  Uiso   1.00
C460   C     0.84828   0.46565   0.41002   0.00000  Uiso   1.00
C461   C     0.81555   0.53885   0.40421   0.00000  Uiso   1.00
C462   C     0.91306   0.49966   0.24992   0.00000  Uiso   1.00
C463   C     0.81087   0.46913   0.09079   0.00000  Uiso   1.00
C464   C     0.83201   0.50151   0.11603   0.00000  Uiso   1.00
C465   C     0.83209   0.50126   0.38394   0.00000  Uiso   1.00
C466   C     0.82914   0.50496   0.02378   0.00000  Uiso   1.00
C467   C     0.83048   0.50433   0.47595   0.00000  Uiso   1.00
C468   C     0.95736   0.49948   0.24919   0.00000  Uiso   1.00
C469   C     0.70948   0.50122   0.24977   0.00000  Uiso   1.00
C470   C     0.87110   0.37369   0.32750   0.00000  Uiso   1.00
C471   C     0.91164   0.40013   0.32810   0.00000  Uiso   1.00
C472   C     0.94164   0.39108   0.36973   0.00000  Uiso   1.00
C473   C     0.83311   0.50021   0.16419   0.00000  Uiso   1.00
C474   C     0.76257   0.62485   0.20423   0.00000  Uiso   1.00
C475   C     0.76608   0.59827   0.16071   0.00000  Uiso   1.00
C476   C     0.73058   0.60876   0.12471   0.00000  Uiso   1.00
C477   C     0.79109   0.37763   0.17433   0.00000  Uiso   1.00
C478   C     0.75046   0.40603   0.17698   0.00000  Uiso   1.00
C479   C     0.71712   0.39757   0.13871   0.00000  Uiso   1.00
C480   C     0.90458   0.62181   0.29560   0.00000  Uiso   1.00
C481   C     0.90191   0.59307   0.33787   0.00000  Uiso   1.00
C482   C     0.93787   0.60020   0.37363   0.00000  Uiso   1.00
C483   C     0.83312   0.50012   0.33584   0.00000  Uiso   1.00
C484   C     0.85696   0.35567   0.28185   0.00000  Uiso   1.00
C485   C     0.80378   0.64402   0.22388   0.00000  Uiso   1.00
C486   C     0.80880   0.35734   0.21857   0.00000  Uiso   1.00
C487   C     0.86275   0.64242   0.27614   0.00000  Uiso   1.00
C488   C     0.69144   0.47312   0.27926   0.00000  Uiso   1.00
H489   H     0.86450   0.56471   0.03235   0.00000  Uiso   1.00
H490   H     0.95620   0.54913   0.19683   0.00000  Uiso   1.00
H491   H     0.96817   0.45290   0.30363   0.00000  Uiso   1.00
H492   H     0.69941   0.55036   0.19720   0.00000  Uiso   1.00
H493   H     0.92422   0.38846   0.40036   0.00000  Uiso   1.00
H494   H     0.96036   0.36040   0.36522   0.00000  Uiso   1.00
H495   H     0.96410   0.41834   0.37467   0.00000  Uiso   1.00
H496   H     0.92863   0.39249   0.29785   0.00000  Uiso   1.00
H497   H     0.90369   0.43569   0.32806   0.00000  Uiso   1.00
H498   H     0.84446   0.39166   0.34083   0.00000  Uiso   1.00
H499   H     0.87587   0.34624   0.35207   0.00000  Uiso   1.00
H500   H     0.86006   0.43934   0.47601   0.00000  Uiso   1.00
H501   H     0.69946   0.60888   0.13912   0.00000  Uiso   1.00
H502   H     0.73537   0.64106   0.10879   0.00000  Uiso   1.00
H503   H     0.73069   0.58333   0.09809   0.00000  Uiso   1.00
H504   H     0.79655   0.60414   0.14618   0.00000  Uiso   1.00
H505   H     0.76375   0.56284   0.16842   0.00000  Uiso   1.00
H506   H     0.74770   0.60636   0.23017   0.00000  Uiso   1.00
H507   H     0.73881   0.65183   0.19788   0.00000  Uiso   1.00
H508   H     0.73114   0.39784   0.10584   0.00000  Uiso   1.00
H509   H     0.70201   0.36563   0.14366   0.00000  Uiso   1.00
H510   H     0.69217   0.42382   0.13838   0.00000  Uiso   1.00
H511   H     0.80179   0.56930   0.46596   0.00000  Uiso   1.00
H512   H     0.73608   0.40008   0.20911   0.00000  Uiso   1.00
H513   H     0.75811   0.44122   0.17436   0.00000  Uiso   1.00
H514   H     0.81636   0.39463   0.15892   0.00000  Uiso   1.00
H515   H     0.78508   0.35138   0.14924   0.00000  Uiso   1.00
H516   H     0.96866   0.60008   0.35851   0.00000  Uiso   1.00
H517   H     0.93277   0.63164   0.39135   0.00000  Uiso   1.00
H518   H     0.93855   0.57326   0.39891   0.00000  Uiso   1.00
H519   H     0.87177   0.59965   0.35331   0.00000  Uiso   1.00
H520   H     0.90445   0.55794   0.32864   0.00000  Uiso   1.00
H521   H     0.92078   0.60458   0.26920   0.00000  Uiso   1.00
H522   H     0.79352   0.44524   0.02521   0.00000  Uiso   1.00
H523   H     0.92715   0.64831   0.30377   0.00000  Uiso   1.00
H524   H     0.86691   0.56198   0.11422   0.00000  Uiso   1.00
H525   H     0.86238   0.43721   0.39537   0.00000  Uiso   1.00
H526   H     0.80281   0.56674   0.38447   0.00000  Uiso   1.00
H527   H     0.79474   0.44317   0.10631   0.00000  Uiso   1.00
H528   H     0.71057   0.45225   0.30265   0.00000  Uiso   1.00
N529   N     0.83333   0.61907   0.25000   0.00000  Uiso   1.00
N530   N     0.83333   0.38093   0.25000   0.00000  Uiso   1.00
O531   O     0.77226   0.53821   0.24999   0.00000  Uiso   1.00
O532   O     0.89441   0.46179   0.25000   0.00000  Uiso   1.00
O533   O     0.89441   0.53821   0.25000   0.00000  Uiso   1.00
O534   O     0.77226   0.46179   0.24999   0.00000  Uiso   1.00
O535   O     0.83333   0.53822   0.18453   0.00000  Uiso   1.00
O536   O     0.83334   0.46178   0.31547   0.00000  Uiso   1.00
O537   O     0.83334   0.53822   0.31547   0.00000  Uiso   1.00
O538   O     0.83333   0.46178   0.18453   0.00000  Uiso   1.00
Zn539  Zn    0.83333   0.55104   0.25000   0.00000  Uiso   1.00
Zn540  Zn    0.83333   0.44896   0.25000   0.00000  Uiso   1.00
C541   C     0.08698   0.83381   0.24950   0.00000  Uiso   1.00
C542   C     0.30875   0.86135   0.21990   0.00000  Uiso   1.00
C543   C     0.31517   0.80607   0.27927   0.00000  Uiso   1.00
C544   C     0.01856   0.86229   0.22029   0.00000  Uiso   1.00
C545   C     0.18253   0.87160   0.04868   0.00000  Uiso   1.00
C546   C     0.18066   0.80039   0.45596   0.00000  Uiso   1.00
C547   C     0.14824   0.87378   0.45033   0.00000  Uiso   1.00
C548   C     0.14292   0.80403   0.04467   0.00000  Uiso   1.00
C549   C     0.18403   0.86983   0.09495   0.00000  Uiso   1.00
C550   C     0.18161   0.79898   0.41002   0.00000  Uiso   1.00
C551   C     0.14888   0.87218   0.40421   0.00000  Uiso   1.00
C552   C     0.24640   0.83299   0.24992   0.00000  Uiso   1.00
C553   C     0.14420   0.80246   0.09079   0.00000  Uiso   1.00
C554   C     0.16534   0.83484   0.11603   0.00000  Uiso   1.00
C555   C     0.16543   0.83459   0.38394   0.00000  Uiso   1.00
C556   C     0.16248   0.83829   0.02378   0.00000  Uiso   1.00
C557   C     0.16382   0.83766   0.47595   0.00000  Uiso   1.00
C558   C     0.29069   0.83282   0.24919   0.00000  Uiso   1.00
C559   C     0.04281   0.83455   0.24977   0.00000  Uiso   1.00
C560   C     0.20444   0.70702   0.32750   0.00000  Uiso   1.00
C561   C     0.24497   0.73346   0.32810   0.00000  Uiso   1.00
C562   C     0.27498   0.72442   0.36973   0.00000  Uiso   1.00
C563   C     0.16644   0.83355   0.16419   0.00000  Uiso   1.00
C564   C     0.09591   0.95819   0.20423   0.00000  Uiso   1.00
C565   C     0.09941   0.93160   0.16071   0.00000  Uiso   1.00
C566   C     0.06391   0.94210   0.12471   0.00000  Uiso   1.00
C567   C     0.12442   0.71096   0.17433   0.00000  Uiso   1.00
C568   C     0.08379   0.73936   0.17698   0.00000  Uiso   1.00
C569   C     0.05045   0.73091   0.13871   0.00000  Uiso   1.00
C570   C     0.23792   0.95515   0.29560   0.00000  Uiso   1.00
C571   C     0.23525   0.92640   0.33787   0.00000  Uiso   1.00
C572   C     0.27120   0.93354   0.37363   0.00000  Uiso   1.00
C573   C     0.16646   0.83345   0.33584   0.00000  Uiso   1.00
C574   C     0.19030   0.68900   0.28185   0.00000  Uiso   1.00
C575   C     0.13711   0.97735   0.22388   0.00000  Uiso   1.00
C576   C     0.14213   0.69067   0.21857   0.00000  Uiso   1.00
C577   C     0.19609   0.97575   0.27614   0.00000  Uiso   1.00
C578   C     0.02478   0.80645   0.27926   0.00000  Uiso   1.00
H579   H     0.19783   0.89805   0.03235   0.00000  Uiso   1.00
H580   H     0.28953   0.88246   0.19683   0.00000  Uiso   1.00
H581   H     0.30150   0.78624   0.30363   0.00000  Uiso   1.00
H582   H     0.03275   0.88369   0.19720   0.00000  Uiso   1.00
H583   H     0.25755   0.72179   0.40036   0.00000  Uiso   1.00
H584   H     0.29369   0.69373   0.36522   0.00000  Uiso   1.00
H585   H     0.29744   0.75167   0.37467   0.00000  Uiso   1.00
H586   H     0.26196   0.72582   0.29785   0.00000  Uiso   1.00
H587   H     0.23702   0.76902   0.32806   0.00000  Uiso   1.00
H588   H     0.17779   0.72500   0.34083   0.00000  Uiso   1.00
H589   H     0.20920   0.67957   0.35207   0.00000  Uiso   1.00
H590   H     0.19339   0.77268   0.47601   0.00000  Uiso   1.00
H591   H     0.03279   0.94221   0.13912   0.00000  Uiso   1.00
H592   H     0.06870   0.97439   0.10879   0.00000  Uiso   1.00
H593   H     0.06402   0.91666   0.09809   0.00000  Uiso   1.00
H594   H     0.12988   0.93748   0.14618   0.00000  Uiso   1.00
H595   H     0.09708   0.89617   0.16842   0.00000  Uiso   1.00
H596   H     0.08103   0.93969   0.23017   0.00000  Uiso   1.00
H597   H     0.07214   0.98516   0.19788   0.00000  Uiso   1.00
H598   H     0.06447   0.73117   0.10584   0.00000  Uiso   1.00
H599   H     0.03534   0.69896   0.14366   0.00000  Uiso   1.00
H600   H     0.02550   0.75715   0.13838   0.00000  Uiso   1.00
H601   H     0.13513   0.90263   0.46596   0.00000  Uiso   1.00
H602   H     0.06941   0.73341   0.20911   0.00000  Uiso   1.00
H603   H     0.09145   0.77455   0.17436   0.00000  Uiso   1.00
H604   H     0.14969   0.72796   0.15892   0.00000  Uiso   1.00
H605   H     0.11842   0.68471   0.14924   0.00000  Uiso   1.00
H606   H     0.30199   0.93341   0.35851   0.00000  Uiso   1.00
H607   H     0.26611   0.96497   0.39135   0.00000  Uiso   1.00
H608   H     0.27188   0.90659   0.39891   0.00000  Uiso   1.00
H609   H     0.20510   0.93298   0.35331   0.00000  Uiso   1.00
H610   H     0.23778   0.89127   0.32864   0.00000  Uiso   1.00
H611   H     0.25411   0.93792   0.26920   0.00000  Uiso   1.00
H612   H     0.12685   0.77857   0.02521   0.00000  Uiso   1.00
H613   H     0.26048   0.98164   0.30377   0.00000  Uiso   1.00
H614   H     0.20024   0.89531   0.11422   0.00000  Uiso   1.00
H615   H     0.19571   0.77055   0.39537   0.00000  Uiso   1.00
H616   H     0.13615   0.90008   0.38447   0.00000  Uiso   1.00
H617   H     0.12807   0.77650   0.10631   0.00000  Uiso   1.00
H618   H     0.04390   0.78558   0.30265   0.00000  Uiso   1.00
N619   N     0.16667   0.95240   0.25000   0.00000  Uiso   1.00
N620   N     0.16667   0.71427   0.25000   0.00000  Uiso   1.00
O621   O     0.10559   0.87154   0.24999   0.00000  Uiso   1.00
O622   O     0.22774   0.79513   0.25000   0.00000  Uiso   1.00
O623   O     0.22774   0.87154   0.25000   0.00000  Uiso   1.00
O624   O     0.10559   0.79513   0.24999   0.00000  Uiso   1.00
O625   O     0.16666   0.87155   0.18453   0.00000  Uiso   1.00
O626   O     0.16667   0.79511   0.31547   0.00000  Uiso   1.00
O627   O     0.16667   0.87155   0.31547   0.00000  Uiso   1.00
O628   O     0.16666   0.79511   0.18453   0.00000  Uiso   1.00
Zn629  Zn    0.16667   0.88437   0.25000   0.00000  Uiso   1.00
Zn630  Zn    0.16667   0.78229   0.25000   0.00000  Uiso   1.00
C631   C     0.42032   0.83381   0.24950   0.00000  Uiso   1.00
C632   C     0.64208   0.86135   0.21990   0.00000  Uiso   1.00
C633   C     0.64850   0.80607   0.27927   0.00000  Uiso   1.00
C634   C     0.35189   0.86229   0.22029   0.00000  Uiso   1.00
C635   C     0.51586   0.87160   0.04868   0.00000  Uiso   1.00
C636   C     0.51399   0.80039   0.45596   0.00000  Uiso   1.00
C637   C     0.48158   0.87378   0.45033   0.00000  Uiso   1.00
C638   C     0.47625   0.80403   0.04467   0.00000  Uiso   1.00
C639   C     0.51737   0.86983   0.09495   0.00000  Uiso   1.00
C640   C     0.51495   0.79898   0.41002   0.00000  Uiso   1.00
C641   C     0.48221   0.87218   0.40421   0.00000  Uiso   1.00
C642   C     0.57973   0.83299   0.24992   0.00000  Uiso   1.00
C643   C     0.47754   0.80246   0.09079   0.00000  Uiso   1.00
C644   C     0.49867   0.83484   0.11603   0.00000  Uiso   1.00
C645   C     0.49876   0.83459   0.38394   0.00000  Uiso   1.00
C646   C     0.49581   0.83829   0.02378   0.00000  Uiso   1.00
C647   C     0.49715   0.83766   0.47595   0.00000  Uiso   1.00
C648   C     0.62403   0.83282   0.24919   0.00000  Uiso   1.00
C649   C     0.37614   0.83455   0.24977   0.00000  Uiso   1.00
C650   C     0.53777   0.70702   0.32750   0.00000  Uiso   1.00
C651   C     0.57831   0.73346   0.32810   0.00000  Uiso   1.00
C652   C     0.60831   0.72442   0.36973   0.00000  Uiso   1.00
C653   C     0.49978   0.83355   0.16419   0.00000  Uiso   1.00
C654   C     0.42924   0.95819   0.20423   0.00000  Uiso   1.00
C655   C     0.43275   0.93160   0.16071   0.00000  Uiso   1.00
C656   C     0.39724   0.94210   0.12471   0.00000  Uiso   1.00
C657   C     0.45775   0.71096   0.17433   0.00000  Uiso   1.00
C658   C     0.41712   0.73936   0.17698   0.00000  Uiso   1.00
C659   C     0.38378   0.73091   0.13871   0.00000  Uiso   1.00
C660   C     0.57125   0.95515   0.29560   0.00000  Uiso   1.00
C661   C     0.56858   0.92640   0.33787   0.00000  Uiso   1.00
C662   C     0.60453   0.93354   0.37363   0.00000  Uiso   1.00
C663   C     0.49979   0.83345   0.33584   0.00000  Uiso   1.00
C664   C     0.52363   0.68900   0.28185   0.00000  Uiso   1.00
C665   C     0.47044   0.97735   0.22388   0.00000  Uiso   1.00
C666   C     0.47546   0.69067   0.21857   0.00000  Uiso   1.00
C667   C     0.52942   0.97575   0.27614   0.00000  Uiso   1.00
C668   C     0.35811   0.80645   0.27926   0.00000  Uiso   1.00
H669   H     0.53117   0.89805   0.03235   0.00000  Uiso   1.00
H670   H     0.62287   0.88246   0.19683   0.00000  Uiso   1.00
H671   H     0.63483   0.78624   0.30363   0.00000  Uiso   1.00
H672   H     0.36608   0.88369   0.19720   0.00000  Uiso   1.00
H673   H     0.59088   0.72179   0.40036   0.00000  Uiso   1.00
H674   H     0.62703   0.69373   0.36522   0.00000  Uiso   1.00
H675   H     0.63077   0.75167   0.37467   0.00000  Uiso   1.00
H676   H     0.59530   0.72582   0.29785   0.00000  Uiso   1.00
H677   H     0.57035   0.76902   0.32806   0.00000  Uiso   1.00
H678   H     0.51113   0.72500   0.34083   0.00000  Uiso   1.00
H679   H     0.54254   0.67957   0.35207   0.00000  Uiso   1.00
H680   H     0.52673   0.77268   0.47601   0.00000  Uiso   1.00
H681   H     0.36613   0.94221   0.13912   0.00000  Uiso   1.00
H682   H     0.40203   0.97439   0.10879   0.00000  Uiso   1.00
H683   H     0.39736   0.91666   0.09809   0.00000  Uiso   1.00
H684   H     0.46321   0.93748   0.14618   0.00000  Uiso   1.00
H685   H     0.43042   0.89617   0.16842   0.00000  Uiso   1.00
H686   H     0.41436   0.93969   0.23017   0.00000  Uiso   1.00
H687   H     0.40547   0.98516   0.19788   0.00000  Uiso   1.00
H688   H     0.39780   0.73117   0.10584   0.00000  Uiso   1.00
H689   H     0.36867   0.69896   0.14366   0.00000  Uiso   1.00
H690   H     0.35883   0.75715   0.13838   0.00000  Uiso   1.00
H691   H     0.46846   0.90263   0.46596   0.00000  Uiso   1.00
H692   H     0.40275   0.73341   0.20911   0.00000  Uiso   1.00
H693   H     0.42478   0.77455   0.17436   0.00000  Uiso   1.00
H694   H     0.48302   0.72796   0.15892   0.00000  Uiso   1.00
H695   H     0.45175   0.68471   0.14924   0.00000  Uiso   1.00
H696   H     0.63533   0.93341   0.35851   0.00000  Uiso   1.00
H697   H     0.59944   0.96497   0.39135   0.00000  Uiso   1.00
H698   H     0.60521   0.90659   0.39891   0.00000  Uiso   1.00
H699   H     0.53843   0.93298   0.35331   0.00000  Uiso   1.00
H700   H     0.57111   0.89127   0.32864   0.00000  Uiso   1.00
H701   H     0.58744   0.93792   0.26920   0.00000  Uiso   1.00
H702   H     0.46018   0.77857   0.02521   0.00000  Uiso   1.00
H703   H     0.59381   0.98164   0.30377   0.00000  Uiso   1.00
H704   H     0.53357   0.89531   0.11422   0.00000  Uiso   1.00
H705   H     0.52904   0.77055   0.39537   0.00000  Uiso   1.00
H706   H     0.46948   0.90008   0.38447   0.00000  Uiso   1.00
H707   H     0.46140   0.77650   0.10631   0.00000  Uiso   1.00
H708   H     0.37724   0.78558   0.30265   0.00000  Uiso   1.00
N709   N     0.50000   0.95240   0.25000   0.00000  Uiso   1.00
N710   N     0.50000   0.71427   0.25000   0.00000  Uiso   1.00
O711   O     0.43892   0.87154   0.24999   0.00000  Uiso   1.00
O712   O     0.56108   0.79513   0.25000   0.00000  Uiso   1.00
O713   O     0.56108   0.87154   0.25000   0.00000  Uiso   1.00
O714   O     0.43892   0.79513   0.24999   0.00000  Uiso   1.00
O715   O     0.50000   0.87155   0.18453   0.00000  Uiso   1.00
O716   O     0.50000   0.79511   0.31547   0.00000  Uiso   1.00
O717   O     0.50000   0.87155   0.31547   0.00000  Uiso   1.00
O718   O     0.50000   0.79511   0.18453   0.00000  Uiso   1.00
Zn719  Zn    0.50000   0.88437   0.25000   0.00000  Uiso   1.00
Zn720  Zn    0.50000   0.78229   0.25000   0.00000  Uiso   1.00
C721   C     0.75365   0.83381   0.24950   0.00000  Uiso   1.00
C722   C     0.97542   0.86135   0.21990   0.00000  Uiso   1.00
C723   C     0.98183   0.80607   0.27927   0.00000  Uiso   1.00
C724   C     0.68523   0.86229   0.22029   0.00000  Uiso   1.00
C725   C     0.84919   0.87160   0.04868   0.00000  Uiso   1.00
C726   C     0.84733   0.80039   0.45596   0.00000  Uiso   1.00
C727   C     0.81491   0.87378   0.45033   0.00000  Uiso   1.00
C728   C     0.80959   0.80403   0.04467   0.00000  Uiso   1.00
C729   C     0.85070   0.86983   0.09495   0.00000  Uiso   1.00
C730   C     0.84828   0.79898   0.41002   0.00000  Uiso   1.00
C731   C     0.81555   0.87218   0.40421   0.00000  Uiso   1.00
C732   C     0.91306   0.83299   0.24992   0.00000  Uiso   1.00
C733   C     0.81087   0.80246   0.09079   0.00000  Uiso   1.00
C734   C     0.83201   0.83484   0.11603   0.00000  Uiso   1.00
C735   C     0.83209   0.83459   0.38394   0.00000  Uiso   1.00
C736   C     0.82914   0.83829   0.02378   0.00000  Uiso   1.00
C737   C     0.83048   0.83766   0.47595   0.00000  Uiso   1.00
C738   C     0.95736   0.83282   0.24919   0.00000  Uiso   1.00
C739   C     0.70948   0.83455   0.24977   0.00000  Uiso   1.00
C740   C     0.87110   0.70702   0.32750   0.00000  Uiso   1.00
C741   C     0.91164   0.73346   0.32810   0.00000  Uiso   1.00
C742   C     0.94164   0.72442   0.36973   0.00000  Uiso   1.00
C743   C     0.83311   0.83355   0.16419   0.00000  Uiso   1.00
C744   C     0.76257   0.95819   0.20423   0.00000  Uiso   1.00
C745   C     0.76608   0.93160   0.16071   0.00000  Uiso   1.00
C746   C     0.73058   0.94210   0.12471   0.00000  Uiso   1.00
C747   C     0.79109   0.71096   0.17433   0.00000  Uiso   1.00
C748   C     0.75046   0.73936   0.17698   0.00000  Uiso   1.00
C749   C     0.71712   0.73091   0.13871   0.00000  Uiso   1.00
C750   C     0.90458   0.95515   0.29560   0.00000  Uiso   1.00
C751   C     0.90191   0.92640   0.33787   0.00000  Uiso   1.00
C752   C     0.93787   0.93354   0.37363   0.00000  Uiso   1.00
C753   C     0.83312   0.83345   0.33584   0.00000  Uiso   1.00
C754   C     0.85696   0.68900   0.28185   0.00000  Uiso   1.00
C755   C     0.80378   0.97735   0.22388   0.00000  Uiso   1.00
C756   C     0.80880   0.69067   0.21857   0.00000  Uiso   1.00
C757   C     0.86275   0.97575   0.27614   0.00000  Uiso   1.00
C758   C     0.69144   0.80645   0.27926   0.00000  Uiso   1.00
H759   H     0.86450   0.89805   0.03235   0.00000  Uiso   1.00
H760   H     0.95620   0.88246   0.19683   0.00000  Uiso   1.00
H761   H     0.96817   0.78624   0.30363   0.00000  Uiso   1.00
H762   H     0.69941   0.88369   0.19720   0.00000  Uiso   1.00
H763   H     0.92422   0.72179   0.40036   0.00000  Uiso   1.00
H764   H     0.96036   0.69373   0.36522   0.00000  Uiso   1.00
H765   H     0.96410   0.75167   0.37467   0.00000  Uiso   1.00
H766   H     0.92863   0.72582   0.29785   0.00000  Uiso   1.00
H767   H     0.90369   0.76902   0.32806   0.00000  Uiso   1.00
H768   H     0.84446   0.72500   0.34083   0.00000  Uiso   1.00
H769   H     0.87587   0.67957   0.35207   0.00000  Uiso   1.00
H770   H     0.86006   0.77268   0.47601   0.00000  Uiso   1.00
H771   H     0.69946   0.94221   0.13912   0.00000  Uiso   1.00
H772   H     0.73537   0.97439   0.10879   0.00000  Uiso   1.00
H773   H     0.73069   0.91666   0.09809   0.00000  Uiso   1.00
H774   H     0.79655   0.93748   0.14618   0.00000  Uiso   1.00
H775   H     0.76375   0.89617   0.16842   0.00000  Uiso   1.00
H776   H     0.74770   0.93969   0.23017   0.00000  Uiso   1.00
H777   H     0.73881   0.98516   0.19788   0.00000  Uiso   1.00
H778   H     0.73114   0.73117   0.10584   0.00000  Uiso   1.00
H779   H     0.70201   0.69896   0.14366   0.00000  Uiso   1.00
H780   H     0.69217   0.75715   0.13838   0.00000  Uiso   1.00
H781   H     0.80179   0.90263   0.46596   0.00000  Uiso   1.00
H782   H     0.73608   0.73341   0.20911   0.00000  Uiso   1.00
H783   H     0.75811   0.77455   0.17436   0.00000  Uiso   1.00
H784   H     0.81636   0.72796   0.15892   0.00000  Uiso   1.00
H785   H     0.78508   0.68471   0.14924   0.00000  Uiso   1.00
H786   H     0.96866   0.93341   0.35851   0.00000  Uiso   1.00
H787   H     0.93277   0.96497   0.39135   0.00000  Uiso   1.00
H788   H     0.93855   0.90659   0.39891   0.00000  Uiso   1.00
H789   H     0.87177   0.93298   0.35331   0.00000  Uiso   1.00
H790   H     0.90445   0.89127   0.32864   0.00000  Uiso   1.00
H791   H     0.92078   0.93792   0.26920   0.00000  Uiso   1.00
H792   H     0.79352   0.77857   0.02521   0.00000  Uiso   1.00
H793   H     0.92715   0.98164   0.30377   0.00000  Uiso   1.00
H794   H     0.86691   0.89531   0.11422   0.00000  Uiso   1.00
H795   H     0.86238   0.77055   0.39537   0.00000  Uiso   1.00
H796   H     0.80281   0.90008   0.38447   0.00000  Uiso   1.00
H797   H     0.79474   0.77650   0.10631   0.00000  Uiso   1.00
H798   H     0.71057   0.78558   0.30265   0.00000  Uiso   1.00
N799   N     0.83333   0.95240   0.25000   0.00000  Uiso   1.00
N800   N     0.83333   0.71427   0.25000   0.00000  Uiso   1.00
O801   O     0.77226   0.87154   0.24999   0.00000  Uiso   1.00
O802   O     0.89441   0.79513   0.25000   0.00000  Uiso   1.00
O803   O     0.89441   0.87154   0.25000   0.00000  Uiso   1.00
O804   O     0.77226   0.79513   0.24999   0.00000  Uiso   1.00
O805   O     0.83333   0.87155   0.18453   0.00000  Uiso   1.00
O806   O     0.83334   0.79511   0.31547   0.00000  Uiso   1.00
O807   O     0.83334   0.87155   0.31547   0.00000  Uiso   1.00
O808   O     0.83333   0.79511   0.18453   0.00000  Uiso   1.00
Zn809  Zn    0.83333   0.88437   0.25000   0.00000  Uiso   1.00
Zn810  Zn    0.83333   0.78229   0.25000   0.00000  Uiso   1.00
C811   C     0.08698   0.16715   0.74950   0.00000  Uiso   1.00
C812   C     0.30875   0.19469   0.71990   0.00000  Uiso   1.00
C813   C     0.31517   0.13941   0.77927   0.00000  Uiso   1.00
C814   C     0.01856   0.19562   0.72029   0.00000  Uiso   1.00
C815   C     0.18253   0.20493   0.54868   0.00000  Uiso   1.00
C816   C     0.18066   0.13372   0.95596   0.00000  Uiso   1.00
C817   C     0.14824   0.20711   0.95033   0.00000  Uiso   1.00
C818   C     0.14292   0.13736   0.54467   0.00000  Uiso   1.00
C819   C     0.18403   0.20316   0.59495   0.00000  Uiso   1.00
C820   C     0.18161   0.13232   0.91002   0.00000  Uiso   1.00
C821   C     0.14888   0.20552   0.90421   0.00000  Uiso   1.00
C822   C     0.24640   0.16633   0.74992   0.00000  Uiso   1.00
C823   C     0.14420   0.13579   0.59079   0.00000  Uiso   1.00
C824   C     0.16534   0.16817   0.61603   0.00000  Uiso   1.00
C825   C     0.16543   0.16793   0.88394   0.00000  Uiso   1.00
C826   C     0.16248   0.17162   0.52378   0.00000  Uiso   1.00
C827   C     0.16382   0.17099   0.97595   0.00000  Uiso   1.00
C828   C     0.29069   0.16615   0.74919   0.00000  Uiso   1.00
C829   C     0.04281   0.16788   0.74977   0.00000  Uiso   1.00
C830   C     0.20444   0.04035   0.82750   0.00000  Uiso   1.00
C831   C     0.24497   0.06679   0.82810   0.00000  Uiso   1.00
C832   C     0.27498   0.05775   0.86973   0.00000  Uiso   1.00
C833   C     0.16644   0.16688   0.66419   0.00000  Uiso   1.00
C834   C     0.09591   0.29152   0.70423   0.00000  Uiso   1.00
C835   C     0.09941   0.26494   0.66071   0.00000  Uiso   1.00
C836   C     0.06391   0.27543   0.62471   0.00000  Uiso   1.00
C837   C     0.12442   0.04430   0.67433   0.00000  Uiso   1.00
C838   C     0.08379   0.07269   0.67698   0.00000  Uiso   1.00
C839   C     0.05045   0.06424   0.63871   0.00000  Uiso   1.00
C840   C     0.23792   0.28848   0.79560   0.00000  Uiso   1.00
C841   C     0.23525   0.25974   0.83787   0.00000  Uiso   1.00
C842   C     0.27120   0.26687   0.87363   0.00000  Uiso   1.00
C843   C     0.16646   0.16679   0.83584   0.00000  Uiso   1.00
C844   C     0.19030   0.02234   0.78185   0.00000  Uiso   1.00
C845   C     0.13711   0.31068   0.72388   0.00000  Uiso   1.00
C846   C     0.14213   0.02400   0.71857   0.00000  Uiso   1.00
C847   C     0.19609   0.30908   0.77614   0.00000  Uiso   1.00
C848   C     0.02478   0.13979   0.77926   0.00000  Uiso   1.00
H849   H     0.19783   0.23138   0.53235   0.00000  Uiso   1.00
H850   H     0.28953   0.21580   0.69683   0.00000  Uiso   1.00
H851   H     0.30150   0.11957   0.80363   0.00000  Uiso   1.00
H852   H     0.03275   0.21702   0.69720   0.00000  Uiso   1.00
H853   H     0.25755   0.05512   0.90036   0.00000  Uiso   1.00
H854   H     0.29369   0.02706   0.86522   0.00000  Uiso   1.00
H855   H     0.29744   0.08501   0.87467   0.00000  Uiso   1.00
H856   H     0.26196   0.05915   0.79785   0.00000  Uiso   1.00
H857   H     0.23702   0.10236   0.82806   0.00000  Uiso   1.00
H858   H     0.17779   0.05833   0.84083   0.00000  Uiso   1.00
H859   H     0.20920   0.01290   0.85207   0.00000  Uiso   1.00
H860   H     0.19339   0.10601   0.97601   0.00000  Uiso   1.00
H861   H     0.03279   0.27554   0.63912   0.00000  Uiso   1.00
H862   H     0.06870   0.30772   0.60879   0.00000  Uiso   1.00
H863   H     0.06402   0.25000   0.59809   0.00000  Uiso   1.00
H864   H     0.12988   0.27081   0.64618   0.00000  Uiso   1.00
H865   H     0.09708   0.22951   0.66842   0.00000  Uiso   1.00
H866   H     0.08103   0.27302   0.73017   0.00000  Uiso   1.00
H867   H     0.07214   0.31850   0.69788   0.00000  Uiso   1.00
H868   H     0.06447   0.06451   0.60584   0.00000  Uiso   1.00
H869   H     0.03534   0.03229   0.64366   0.00000  Uiso   1.00
H870   H     0.02550   0.09048   0.63838   0.00000  Uiso   1.00
H871   H     0.13513   0.23597   0.96596   0.00000  Uiso   1.00
H872   H     0.06941   0.06675   0.70911   0.00000  Uiso   1.00
H873   H     0.09145   0.10788   0.67436   0.00000  Uiso   1.00
H874   H     0.14969   0.06130   0.65892   0.00000  Uiso   1.00
H875   H     0.11842   0.01804   0.64924   0.00000  Uiso   1.00
H876   H     0.30199   0.26674   0.85851   0.00000  Uiso   1.00
H877   H     0.26611   0.29830   0.89135   0.00000  Uiso   1.00
H878   H     0.27188   0.23993   0.89891   0.00000  Uiso   1.00
H879   H     0.20510   0.26631   0.85331   0.00000  Uiso   1.00
H880   H     0.23778   0.22461   0.82864   0.00000  Uiso   1.00
H881   H     0.25411   0.27125   0.76920   0.00000  Uiso   1.00
H882   H     0.12685   0.11190   0.52521   0.00000  Uiso   1.00
H883   H     0.26048   0.31498   0.80377   0.00000  Uiso   1.00
H884   H     0.20024   0.22864   0.61422   0.00000  Uiso   1.00
H885   H     0.19571   0.10388   0.89537   0.00000  Uiso   1.00
H886   H     0.13615   0.23341   0.88447   0.00000  Uiso   1.00
H887   H     0.12807   0.10984   0.60631   0.00000  Uiso   1.00
H888   H     0.04390   0.11891   0.80265   0.00000  Uiso   1.00
N889   N     0.16667   0.28573   0.75000   0.00000  Uiso   1.00
N890   N     0.16667   0.04760   0.75000   0.00000  Uiso   1.00
O891   O     0.10559   0.20487   0.74999   0.00000  Uiso   1.00
O892   O     0.22774   0.12846   0.75000   0.00000  Uiso   1.00
O893   O     0.22774   0.20487   0.75000   0.00000  Uiso   1.00
O894   O     0.10559   0.12846   0.74999   0.00000  Uiso   1.00
O895   O     0.16666   0.20489   0.68453   0.00000  Uiso   1.00
O896   O     0.16667   0.12845   0.81547   0.00000  Uiso   1.00
O897   O     0.16667   0.20489   0.81547   0.00000  Uiso   1.00
O898   O     0.16666   0.12845   0.68453   0.00000  Uiso   1.00
Zn899  Zn    0.16667   0.21771   0.75000   0.00000  Uiso   1.00
Zn900  Zn    0.16667   0.11563   0.75000   0.00000  Uiso   1.00
C901   C     0.42032   0.16715   0.74950   0.00000  Uiso   1.00
C902   C     0.64208   0.19469   0.71990   0.00000  Uiso   1.00
C903   C     0.64850   0.13941   0.77927   0.00000  Uiso   1.00
C904   C     0.35189   0.19562   0.72029   0.00000  Uiso   1.00
C905   C     0.51586   0.20493   0.54868   0.00000  Uiso   1.00
C906   C     0.51399   0.13372   0.95596   0.00000  Uiso   1.00
C907   C     0.48158   0.20711   0.95033   0.00000  Uiso   1.00
C908   C     0.47625   0.13736   0.54467   0.00000  Uiso   1.00
C909   C     0.51737   0.20316   0.59495   0.00000  Uiso   1.00
C910   C     0.51495   0.13232   0.91002   0.00000  Uiso   1.00
C911   C     0.48221   0.20552   0.90421   0.00000  Uiso   1.00
C912   C     0.57973   0.16633   0.74992   0.00000  Uiso   1.00
C913   C     0.47754   0.13579   0.59079   0.00000  Uiso   1.00
C914   C     0.49867   0.16817   0.61603   0.00000  Uiso   1.00
C915   C     0.49876   0.16793   0.88394   0.00000  Uiso   1.00
C916   C     0.49581   0.17162   0.52378   0.00000  Uiso   1.00
C917   C     0.49715   0.17099   0.97595   0.00000  Uiso   1.00
C918   C     0.62403   0.16615   0.74919   0.00000  Uiso   1.00
C919   C     0.37614   0.16788   0.74977   0.00000  Uiso   1.00
C920   C     0.53777   0.04035   0.82750   0.00000  Uiso   1.00
C921   C     0.57831   0.06679   0.82810   0.00000  Uiso   1.00
C922   C     0.60831   0.05775   0.86973   0.00000  Uiso   1.00
C923   C     0.49978   0.16688   0.66419   0.00000  Uiso   1.00
C924   C     0.42924   0.29152   0.70423   0.00000  Uiso   1.00
C925   C     0.43275   0.26494   0.66071   0.00000  Uiso   1.00
C926   C     0.39724   0.27543   0.62471   0.00000  Uiso   1.00
C927   C     0.45775   0.04430   0.67433   0.00000  Uiso   1.00
C928   C     0.41712   0.07269   0.67698   0.00000  Uiso   1.00
C929   C     0.38378   0.06424   0.63871   0.00000  Uiso   1.00
C930   C     0.57125   0.28848   0.79560   0.00000  Uiso   1.00
C931   C     0.56858   0.25974   0.83787   0.00000  Uiso   1.00
C932   C     0.60453   0.26687   0.87363   0.00000  Uiso   1.00
C933   C     0.49979   0.16679   0.83584   0.00000  Uiso   1.00
C934   C     0.52363   0.02234   0.78185   0.00000  Uiso   1.00
C935   C     0.47044   0.31068   0.72388   0.00000  Uiso   1.00
C936   C     0.47546   0.02400   0.71857   0.00000  Uiso   1.00
C937   C     0.52942   0.30908   0.77614   0.00000  Uiso   1.00
C938   C     0.35811   0.13979   0.77926   0.00000  Uiso   1.00
H939   H     0.53117   0.23138   0.53235   0.00000  Uiso   1.00
H940   H     0.62287   0.21580   0.69683   0.00000  Uiso   1.00
H941   H     0.63483   0.11957   0.80363   0.00000  Uiso   1.00
H942   H     0.36608   0.21702   0.69720   0.00000  Uiso   1.00
H943   H     0.59088   0.05512   0.90036   0.00000  Uiso   1.00
H944   H     0.62703   0.02706   0.86522   0.00000  Uiso   1.00
H945   H     0.63077   0.08501   0.87467   0.00000  Uiso   1.00
H946   H     0.59530   0.05915   0.79785   0.00000  Uiso   1.00
H947   H     0.57035   0.10236   0.82806   0.00000  Uiso   1.00
H948   H     0.51113   0.05833   0.84083   0.00000  Uiso   1.00
H949   H     0.54254   0.01290   0.85207   0.00000  Uiso   1.00
H950   H     0.52673   0.10601   0.97601   0.00000  Uiso   1.00
H951   H     0.36613   0.27554   0.63912   0.00000  Uiso   1.00
H952   H     0.40203   0.30772   0.60879   0.00000  Uiso   1.00
H953   H     0.39736   0.25000   0.59809   0.00000  Uiso   1.00
H954   H     0.46321   0.27081   0.64618   0.00000  Uiso   1.00
H955   H     0.43042   0.22951   0.66842   0.00000  Uiso   1.00
H956   H     0.41436   0.27302   0.73017   0.00000  Uiso   1.00
H957   H     0.40547   0.31850   0.69788   0.00000  Uiso   1.00
H958   H     0.39780   0.06451   0.60584   0.00000  Uiso   1.00
H959   H     0.36867   0.03229   0.64366   0.00000  Uiso   1.00
H960   H     0.35883   0.09048   0.63838   0.00000  Uiso   1.00
H961   H     0.46846   0.23597   0.96596   0.00000  Uiso   1.00
H962   H     0.40275   0.06675   0.70911   0.00000  Uiso   1.00
H963   H     0.42478   0.10788   0.67436   0.00000  Uiso   1.00
H964   H     0.48302   0.06130   0.65892   0.00000  Uiso   1.00
H965   H     0.45175   0.01804   0.64924   0.00000  Uiso   1.00
H966   H     0.63533   0.26674   0.85851   0.00000  Uiso   1.00
H967   H     0.59944   0.29830   0.89135   0.00000  Uiso   1.00
H968   H     0.60521   0.23993   0.89891   0.00000  Uiso   1.00
H969   H     0.53843   0.26631   0.85331   0.00000  Uiso   1.00
H970   H     0.57111   0.22461   0.82864   0.00000  Uiso   1.00
H971   H     0.58744   0.27125   0.76920   0.00000  Uiso   1.00
H972   H     0.46018   0.11190   0.52521   0.00000  Uiso   1.00
H973   H     0.59381   0.31498   0.80377   0.00000  Uiso   1.00
H974   H     0.53357   0.22864   0.61422   0.00000  Uiso   1.00
H975   H     0.52904   0.10388   0.89537   0.00000  Uiso   1.00
H976   H     0.46948   0.23341   0.88447   0.00000  Uiso   1.00
H977   H     0.46140   0.10984   0.60631   0.00000  Uiso   1.00
H978   H     0.37724   0.11891   0.80265   0.00000  Uiso   1.00
N979   N     0.50000   0.28573   0.75000   0.00000  Uiso   1.00
N980   N     0.50000   0.04760   0.75000   0.00000  Uiso   1.00
O981   O     0.43892   0.20487   0.74999   0.00000  Uiso   1.00
O982   O     0.56108   0.12846   0.75000   0.00000  Uiso   1.00
O983   O     0.56108   0.20487   0.75000   0.00000  Uiso   1.00
O984   O     0.43892   0.12846   0.74999   0.00000  Uiso   1.00
O985   O     0.50000   0.20489   0.68453   0.00000  Uiso   1.00
O986   O     0.50000   0.12845   0.81547   0.00000  Uiso   1.00
O987   O     0.50000   0.20489   0.81547   0.00000  Uiso   1.00
O988   O     0.50000   0.12845   0.68453   0.00000  Uiso   1.00
Zn989  Zn    0.50000   0.21771   0.75000   0.00000  Uiso   1.00
Zn990  Zn    0.50000   0.11563   0.75000   0.00000  Uiso   1.00
C991   C     0.75365   0.16715   0.74950   0.00000  Uiso   1.00
C992   C     0.97542   0.19469   0.71990   0.00000  Uiso   1.00
C993   C     0.98183   0.13941   0.77927   0.00000  Uiso   1.00
C994   C     0.68523   0.19562   0.72029   0.00000  Uiso   1.00
C995   C     0.84919   0.20493   0.54868   0.00000  Uiso   1.00
C996   C     0.84733   0.13372   0.95596   0.00000  Uiso   1.00
C997   C     0.81491   0.20711   0.95033   0.00000  Uiso   1.00
C998   C     0.80959   0.13736   0.54467   0.00000  Uiso   1.00
C999   C     0.85070   0.20316   0.59495   0.00000  Uiso   1.00
C1000  C     0.84828   0.13232   0.91002   0.00000  Uiso   1.00
C1001  C     0.81555   0.20552   0.90421   0.00000  Uiso   1.00
C1002  C     0.91306   0.16633   0.74992   0.00000  Uiso   1.00
C1003  C     0.81087   0.13579   0.59079   0.00000  Uiso   1.00
C1004  C     0.83201   0.16817   0.61603   0.00000  Uiso   1.00
C1005  C     0.83209   0.16793   0.88394   0.00000  Uiso   1.00
C1006  C     0.82914   0.17162   0.52378   0.00000  Uiso   1.00
C1007  C     0.83048   0.17099   0.97595   0.00000  Uiso   1.00
C1008  C     0.95736   0.16615   0.74919   0.00000  Uiso   1.00
C1009  C     0.70948   0.16788   0.74977   0.00000  Uiso   1.00
C1010  C     0.87110   0.04035   0.82750   0.00000  Uiso   1.00
C1011  C     0.91164   0.06679   0.82810   0.00000  Uiso   1.00
C1012  C     0.94164   0.05775   0.86973   0.00000  Uiso   1.00
C1013  C     0.83311   0.16688   0.66419   0.00000  Uiso   1.00
C1014  C     0.76257   0.29152   0.70423   0.00000  Uiso   1.00
C1015  C     0.76608   0.26494   0.66071   0.00000  Uiso   1.00
C1016  C     0.73058   0.27543   0.62471   0.00000  Uiso   1.00
C1017  C     0.79109   0.04430   0.67433   0.00000  Uiso   1.00
C1018  C     0.75046   0.07269   0.67698   0.00000  Uiso   1.00
C1019  C     0.71712   0.06424   0.63871   0.00000  Uiso   1.00
C1020  C     0.90458   0.28848   0.79560   0.00000  Uiso   1.00
C1021  C     0.90191   0.25974   0.83787   0.00000  Uiso   1.00
C1022  C     0.93787   0.26687   0.87363   0.00000  Uiso   1.00
C1023  C     0.83312   0.16679   0.83584   0.00000  Uiso   1.00
C1024  C     0.85696   0.02234   0.78185   0.00000  Uiso   1.00
C1025  C     0.80378   0.31068   0.72388   0.00000  Uiso   1.00
C1026  C     0.80880   0.02400   0.71857   0.00000  Uiso   1.00
C1027  C     0.86275   0.30908   0.77614   0.00000  Uiso   1.00
C1028  C     0.69144   0.13979   0.77926   0.00000  Uiso   1.00
H1029  H     0.86450   0.23138   0.53235   0.00000  Uiso   1.00
H1030  H     0.95620   0.21580   0.69683   0.00000  Uiso   1.00
H1031  H     0.96817   0.11957   0.80363   0.00000  Uiso   1.00
H1032  H     0.69941   0.21702   0.69720   0.00000  Uiso   1.00
H1033  H     0.92422   0.05512   0.90036   0.00000  Uiso   1.00
H1034  H     0.96036   0.02706   0.86522   0.00000  Uiso   1.00
H1035  H     0.96410   0.08501   0.87467   0.00000  Uiso   1.00
H1036  H     0.92863   0.05915   0.79785   0.00000  Uiso   1.00
H1037  H     0.90369   0.10236   0.82806   0.00000  Uiso   1.00
H1038  H     0.84446   0.05833   0.84083   0.00000  Uiso   1.00
H1039  H     0.87587   0.01290   0.85207   0.00000  Uiso   1.00
H1040  H     0.86006   0.10601   0.97601   0.00000  Uiso   1.00
H1041  H     0.69946   0.27554   0.63912   0.00000  Uiso   1.00
H1042  H     0.73537   0.30772   0.60879   0.00000  Uiso   1.00
H1043  H     0.73069   0.25000   0.59809   0.00000  Uiso   1.00
H1044  H     0.79655   0.27081   0.64618   0.00000  Uiso   1.00
H1045  H     0.76375   0.22951   0.66842   0.00000  Uiso   1.00
H1046  H     0.74770   0.27302   0.73017   0.00000  Uiso   1.00
H1047  H     0.73881   0.31850   0.69788   0.00000  Uiso   1.00
H1048  H     0.73114   0.06451   0.60584   0.00000  Uiso   1.00
H1049  H     0.70201   0.03229   0.64366   0.00000  Uiso   1.00
H1050  H     0.69217   0.09048   0.63838   0.00000  Uiso   1.00
H1051  H     0.80179   0.23597   0.96596   0.00000  Uiso   1.00
H1052  H     0.73608   0.06675   0.70911   0.00000  Uiso   1.00
H1053  H     0.75811   0.10788   0.67436   0.00000  Uiso   1.00
H1054  H     0.81636   0.06130   0.65892   0.00000  Uiso   1.00
H1055  H     0.78508   0.01804   0.64924   0.00000  Uiso   1.00
H1056  H     0.96866   0.26674   0.85851   0.00000  Uiso   1.00
H1057  H     0.93277   0.29830   0.89135   0.00000  Uiso   1.00
H1058  H     0.93855   0.23993   0.89891   0.00000  Uiso   1.00
H1059  H     0.87177   0.26631   0.85331   0.00000  Uiso   1.00
H1060  H     0.90445   0.22461   0.82864   0.00000  Uiso   1.00
H1061  H     0.92078   0.27125   0.76920   0.00000  Uiso   1.00
H1062  H     0.79352   0.11190   0.52521   0.00000  Uiso   1.00
H1063  H     0.92715   0.31498   0.80377   0.00000  Uiso   1.00
H1064  H     0.86691   0.22864   0.61422   0.00000  Uiso   1.00
H1065  H     0.86238   0.10388   0.89537   0.00000  Uiso   1.00
H1066  H     0.80281   0.23341   0.88447   0.00000  Uiso   1.00
H1067  H     0.79474   0.10984   0.60631   0.00000  Uiso   1.00
H1068  H     0.71057   0.11891   0.80265   0.00000  Uiso   1.00
N1069  N     0.83333   0.28573   0.75000   0.00000  Uiso   1.00
N1070  N     0.83333   0.04760   0.75000   0.00000  Uiso   1.00
O1071  O     0.77226   0.20487   0.74999   0.00000  Uiso   1.00
O1072  O     0.89441   0.12846   0.75000   0.00000  Uiso   1.00
O1073  O     0.89441   0.20487   0.75000   0.00000  Uiso   1.00
O1074  O     0.77226   0.12846   0.74999   0.00000  Uiso   1.00
O1075  O     0.83333   0.20489   0.68453   0.00000  Uiso   1.00
O1076  O     0.83334   0.12845   0.81547   0.00000  Uiso   1.00
O1077  O     0.83334   0.20489   0.81547   0.00000  Uiso   1.00
O1078  O     0.83333   0.12845   0.68453   0.00000  Uiso   1.00
Zn1079 Zn    0.83333   0.21771   0.75000   0.00000  Uiso   1.00
Zn1080 Zn    0.83333   0.11563   0.75000   0.00000  Uiso   1.00
C1081  C     0.08698   0.50048   0.74950   0.00000  Uiso   1.00
C1082  C     0.30875   0.52802   0.71990   0.00000  Uiso   1.00
C1083  C     0.31517   0.47274   0.77927   0.00000  Uiso   1.00
C1084  C     0.01856   0.52896   0.72029   0.00000  Uiso   1.00
C1085  C     0.18253   0.53826   0.54868   0.00000  Uiso   1.00
C1086  C     0.18066   0.46705   0.95596   0.00000  Uiso   1.00
C1087  C     0.14824   0.54044   0.95033   0.00000  Uiso   1.00
C1088  C     0.14292   0.47070   0.54467   0.00000  Uiso   1.00
C1089  C     0.18403   0.53650   0.59495   0.00000  Uiso   1.00
C1090  C     0.18161   0.46565   0.91002   0.00000  Uiso   1.00
C1091  C     0.14888   0.53885   0.90421   0.00000  Uiso   1.00
C1092  C     0.24640   0.49966   0.74992   0.00000  Uiso   1.00
C1093  C     0.14420   0.46913   0.59079   0.00000  Uiso   1.00
C1094  C     0.16534   0.50151   0.61603   0.00000  Uiso   1.00
C1095  C     0.16543   0.50126   0.88394   0.00000  Uiso   1.00
C1096  C     0.16248   0.50496   0.52378   0.00000  Uiso   1.00
C1097  C     0.16382   0.50433   0.97595   0.00000  Uiso   1.00
C1098  C     0.29069   0.49948   0.74919   0.00000  Uiso   1.00
C1099  C     0.04281   0.50122   0.74977   0.00000  Uiso   1.00
C1100  C     0.20444   0.37369   0.82750   0.00000  Uiso   1.00
C1101  C     0.24497   0.40013   0.82810   0.00000  Uiso   1.00
C1102  C     0.27498   0.39108   0.86973   0.00000  Uiso   1.00
C1103  C     0.16644   0.50021   0.66419   0.00000  Uiso   1.00
C1104  C     0.09591   0.62485   0.70423   0.00000  Uiso   1.00
C1105  C     0.09941   0.59827   0.66071   0.00000  Uiso   1.00
C1106  C     0.06391   0.60876   0.62471   0.00000  Uiso   1.00
C1107  C     0.12442   0.37763   0.67433   0.00000  Uiso   1.00
C1108  C     0.08379   0.40603   0.67698   0.00000  Uiso   1.00
C1109  C     0.05045   0.39757   0.63871   0.00000  Uiso   1.00
C1110  C     0.23792   0.62181   0.79560   0.00000  Uiso   1.00
C1111  C     0.23525   0.59307   0.83787   0.00000  Uiso   1.00
C1112  C     0.27120   0.60020   0.87363   0.00000  Uiso   1.00
C1113  C     0.16646   0.50012   0.83584   0.00000  Uiso   1.00
C1114  C     0.19030   0.35567   0.78185   0.00000  Uiso   1.00
C1115  C     0.13711   0.64402   0.72388   0.00000  Uiso   1.00
C1116  C     0.14213   0.35734   0.71857   0.00000  Uiso   1.00
C1117  C     0.19609   0.64242   0.77614   0.00000  Uiso   1.00
C1118  C     0.02478   0.47312   0.77926   0.00000  Uiso   1.00
H1119  H     0.19783   0.56471   0.53235   0.00000  Uiso   1.00
H1120  H     0.28953   0.54913   0.69683   0.00000  Uiso   1.00
H1121  H     0.30150   0.45290   0.80363   0.00000  Uiso   1.00
H1122  H     0.03275   0.55036   0.69720   0.00000  Uiso   1.00
H1123  H     0.25755   0.38846   0.90036   0.00000  Uiso   1.00
H1124  H     0.29369   0.36040   0.86522   0.00000  Uiso   1.00
H1125  H     0.29744   0.41834   0.87467   0.00000  Uiso   1.00
H1126  H     0.26196   0.39249   0.79785   0.00000  Uiso   1.00
H1127  H     0.23702   0.43569   0.82806   0.00000  Uiso   1.00
H1128  H     0.17779   0.39166   0.84083   0.00000  Uiso   1.00
H1129  H     0.20920   0.34624   0.85207   0.00000  Uiso   1.00
H1130  H     0.19339   0.43934   0.97601   0.00000  Uiso   1.00
H1131  H     0.03279   0.60888   0.63912   0.00000  Uiso   1.00
H1132  H     0.06870   0.64106   0.60879   0.00000  Uiso   1.00
H1133  H     0.06402   0.58333   0.59809   0.00000  Uiso   1.00
H1134  H     0.12988   0.60414   0.64618   0.00000  Uiso   1.00
H1135  H     0.09708   0.56284   0.66842   0.00000  Uiso   1.00
H1136  H     0.08103   0.60636   0.73017   0.00000  Uiso   1.00
H1137  H     0.07214   0.65183   0.69788   0.00000  Uiso   1.00
H1138  H     0.06447   0.39784   0.60584   0.00000  Uiso   1.00
H1139  H     0.03534   0.36563   0.64366   0.00000  Uiso   1.00
H1140  H     0.02550   0.42382   0.63838   0.00000  Uiso   1.00
H1141  H     0.13513   0.56930   0.96596   0.00000  Uiso   1.00
H1142  H     0.06941   0.40008   0.70911   0.00000  Uiso   1.00
H1143  H     0.09145   0.44122   0.67436   0.00000  Uiso   1.00
H1144  H     0.14969   0.39463   0.65892   0.00000  Uiso   1.00
H1145  H     0.11842   0.35138   0.64924   0.00000  Uiso   1.00
H1146  H     0.30199   0.60008   0.85851   0.00000  Uiso   1.00
H1147  H     0.26611   0.63164   0.89135   0.00000  Uiso   1.00
H1148  H     0.27188   0.57326   0.89891   0.00000  Uiso   1.00
H1149  H     0.20510   0.59965   0.85331   0.00000  Uiso   1.00
H1150  H     0.23778   0.55794   0.82864   0.00000  Uiso   1.00
H1151  H     0.25411   0.60458   0.76920   0.00000  Uiso   1.00
H1152  H     0.12685   0.44524   0.52521   0.00000  Uiso   1.00
H1153  H     0.26048   0.64831   0.80377   0.00000  Uiso   1.00
H1154  H     0.20024   0.56198   0.61422   0.00000  Uiso   1.00
H1155  H     0.19571   0.43721   0.89537   0.00000  Uiso   1.00
H1156  H     0.13615   0.56674   0.88447   0.00000  Uiso   1.00
H1157  H     0.12807   0.44317   0.60631   0.00000  Uiso   1.00
H1158  H     0.04390   0.45225   0.80265   0.00000  Uiso   1.00
N1159  N     0.16667   0.61907   0.75000   0.00000  Uiso   1.00
N1160  N     0.16667   0.38093   0.75000   0.00000  Uiso   1.00
O1161  O     0.10559   0.53821   0.74999   0.00000  Uiso   1.00
O1162  O     0.22774   0.46179   0.75000   0.00000  Uiso   1.00
O1163  O     0.22774   0.53821   0.75000   0.00000  Uiso   1.00
O1164  O     0.10559   0.46179   0.74999   0.00000  Uiso   1.00
O1165  O     0.16666   0.53822   0.68453   0.00000  Uiso   1.00
O1166  O     0.16667   0.46178   0.81547   0.00000  Uiso   1.00
O1167  O     0.16667   0.53822   0.81547   0.00000  Uiso   1.00
O1168  O     0.16666   0.46178   0.68453   0.00000  Uiso   1.00
Zn1169 Zn    0.16667   0.55104   0.75000   0.00000  Uiso   1.00
Zn1170 Zn    0.16667   0.44896   0.75000   0.00000  Uiso   1.00
C1171  C     0.42032   0.50048   0.74950   0.00000  Uiso   1.00
C1172  C     0.64208   0.52802   0.71990   0.00000  Uiso   1.00
C1173  C     0.64850   0.47274   0.77927   0.00000  Uiso   1.00
C1174  C     0.35189   0.52896   0.72029   0.00000  Uiso   1.00
C1175  C     0.51586   0.53826   0.54868   0.00000  Uiso   1.00
C1176  C     0.51399   0.46705   0.95596   0.00000  Uiso   1.00
C1177  C     0.48158   0.54044   0.95033   0.00000  Uiso   1.00
C1178  C     0.47625   0.47070   0.54467   0.00000  Uiso   1.00
C1179  C     0.51737   0.53650   0.59495   0.00000  Uiso   1.00
C1180  C     0.51495   0.46565   0.91002   0.00000  Uiso   1.00
C1181  C     0.48221   0.53885   0.90421   0.00000  Uiso   1.00
C1182  C     0.57973   0.49966   0.74992   0.00000  Uiso   1.00
C1183  C     0.47754   0.46913   0.59079   0.00000  Uiso   1.00
C1184  C     0.49867   0.50151   0.61603   0.00000  Uiso   1.00
C1185  C     0.49876   0.50126   0.88394   0.00000  Uiso   1.00
C1186  C     0.49581   0.50496   0.52378   0.00000  Uiso   1.00
C1187  C     0.49715   0.50433   0.97595   0.00000  Uiso   1.00
C1188  C     0.62403   0.49948   0.74919   0.00000  Uiso   1.00
C1189  C     0.37614   0.50122   0.74977   0.00000  Uiso   1.00
C1190  C     0.53777   0.37369   0.82750   0.00000  Uiso   1.00
C1191  C     0.57831   0.40013   0.82810   0.00000  Uiso   1.00
C1192  C     0.60831   0.39108   0.86973   0.00000  Uiso   1.00
C1193  C     0.49978   0.50021   0.66419   0.00000  Uiso   1.00
C1194  C     0.42924   0.62485   0.70423   0.00000  Uiso   1.00
C1195  C     0.43275   0.59827   0.66071   0.00000  Uiso   1.00
C1196  C     0.39724   0.60876   0.62471   0.00000  Uiso   1.00
C1197  C     0.45775   0.37763   0.67433   0.00000  Uiso   1.00
C1198  C     0.41712   0.40603   0.67698   0.00000  Uiso   1.00
C1199  C     0.38378   0.39757   0.63871   0.00000  Uiso   1.00
C1200  C     0.57125   0.62181   0.79560   0.00000  Uiso   1.00
C1201  C     0.56858   0.59307   0.83787   0.00000  Uiso   1.00
C1202  C     0.60453   0.60020   0.87363   0.00000  Uiso   1.00
C1203  C     0.49979   0.50012   0.83584   0.00000  Uiso   1.00
C1204  C     0.52363   0.35567   0.78185   0.00000  Uiso   1.00
C1205  C     0.47044   0.64402   0.72388   0.00000  Uiso   1.00
C1206  C     0.47546   0.35734   0.71857   0.00000  Uiso   1.00
C1207  C     0.52942   0.64242   0.77614   0.00000  Uiso   1.00
C1208  C     0.35811   0.47312   0.77926   0.00000  Uiso   1.00
H1209  H     0.53117   0.56471   0.53235   0.00000  Uiso   1.00
H1210  H     0.62287   0.54913   0.69683   0.00000  Uiso   1.00
H1211  H     0.63483   0.45290   0.80363   0.00000  Uiso   1.00
H1212  H     0.36608   0.55036   0.69720   0.00000  Uiso   1.00
H1213  H     0.59088   0.38846   0.90036   0.00000  Uiso   1.00
H1214  H     0.62703   0.36040   0.86522   0.00000  Uiso   1.00
H1215  H     0.63077   0.41834   0.87467   0.00000  Uiso   1.00
H1216  H     0.59530   0.39249   0.79785   0.00000  Uiso   1.00
H1217  H     0.57035   0.43569   0.82806   0.00000  Uiso   1.00
H1218  H     0.51113   0.39166   0.84083   0.00000  Uiso   1.00
H1219  H     0.54254   0.34624   0.85207   0.00000  Uiso   1.00
H1220  H     0.52673   0.43934   0.97601   0.00000  Uiso   1.00
H1221  H     0.36613   0.60888   0.63912   0.00000  Uiso   1.00
H1222  H     0.40203   0.64106   0.60879   0.00000  Uiso   1.00
H1223  H     0.39736   0.58333   0.59809   0.00000  Uiso   1.00
H1224  H     0.46321   0.60414   0.64618   0.00000  Uiso   1.00
H1225  H     0.43042   0.56284   0.66842   0.00000  Uiso   1.00
H1226  H     0.41436   0.60636   0.73017   0.00000  Uiso   1.00
H1227  H     0.40547   0.65183   0.69788   0.00000  Uiso   1.00
H1228  H     0.39780   0.39784   0.60584   0.00000  Uiso   1.00
H1229  H     0.36867   0.36563   0.64366   0.00000  Uiso   1.00
H1230  H     0.35883   0.42382   0.63838   0.00000  Uiso   1.00
H1231  H     0.46846   0.56930   0.96596   0.00000  Uiso   1.00
H1232  H     0.40275   0.40008   0.70911   0.00000  Uiso   1.00
H1233  H     0.42478   0.44122   0.67436   0.00000  Uiso   1.00
H1234  H     0.48302   0.39463   0.65892   0.00000  Uiso   1.00
H1235  H     0.45175   0.35138   0.64924   0.00000  Uiso   1.00
H1236  H     0.63533   0.60008   0.85851   0.00000  Uiso   1.00
H1237  H     0.59944   0.63164   0.89135   0.00000  Uiso   1.00
H1238  H     0.60521   0.57326   0.89891   0.00000  Uiso   1.00
H1239  H     0.53843   0.59965   0.85331   0.00000  Uiso   1.00
H1240  H     0.57111   0.55794   0.82864   0.00000  Uiso   1.00
H1241  H     0.58744   0.60458   0.76920   0.00000  Uiso   1.00
H1242  H     0.46018   0.44524   0.52521   0.00000  Uiso   1.00
H1243  H     0.59381   0.64831   0.80377   0.00000  Uiso   1.00
H1244  H     0.53357   0.56198   0.61422   0.00000  Uiso   1.00
H1245  H     0.52904   0.43721   0.89537   0.00000  Uiso   1.00
H1246  H     0.46948   0.56674   0.88447   0.00000  Uiso   1.00
H1247  H     0.46140   0.44317   0.60631   0.00000  Uiso   1.00
H1248  H     0.37724   0.45225   0.80265   0.00000  Uiso   1.00
N1249  N     0.50000   0.61907   0.75000   0.00000  Uiso   1.00
N1250  N     0.50000   0.38093   0.75000   0.00000  Uiso   1.00
O1251  O     0.43892   0.53821   0.74999   0.00000  Uiso   1.00
O1252  O     0.56108   0.46179   0.75000   0.00000  Uiso   1.00
O1253  O     0.56108   0.53821   0.75000   0.00000  Uiso   1.00
O1254  O     0.43892   0.46179   0.74999   0.00000  Uiso   1.00
O1255  O     0.50000   0.53822   0.68453   0.00000  Uiso   1.00
O1256  O     0.50000   0.46178   0.81547   0.00000  Uiso   1.00
O1257  O     0.50000   0.53822   0.81547   0.00000  Uiso   1.00
O1258  O     0.50000   0.46178   0.68453   0.00000  Uiso   1.00
Zn1259 Zn    0.50000   0.55104   0.75000   0.00000  Uiso   1.00
Zn1260 Zn    0.50000   0.44896   0.75000   0.00000  Uiso   1.00
C1261  C     0.75365   0.50048   0.74950   0.00000  Uiso   1.00
C1262  C     0.97542   0.52802   0.71990   0.00000  Uiso   1.00
C1263  C     0.98183   0.47274   0.77927   0.00000  Uiso   1.00
C1264  C     0.68523   0.52896   0.72029   0.00000  Uiso   1.00
C1265  C     0.84919   0.53826   0.54868   0.00000  Uiso   1.00
C1266  C     0.84733   0.46705   0.95596   0.00000  Uiso   1.00
C1267  C     0.81491   0.54044   0.95033   0.00000  Uiso   1.00
C1268  C     0.80959   0.47070   0.54467   0.00000  Uiso   1.00
C1269  C     0.85070   0.53650   0.59495   0.00000  Uiso   1.00
C1270  C     0.84828   0.46565   0.91002   0.00000  Uiso   1.00
C1271  C     0.81555   0.53885   0.90421   0.00000  Uiso   1.00
C1272  C     0.91306   0.49966   0.74992   0.00000  Uiso   1.00
C1273  C     0.81087   0.46913   0.59079   0.00000  Uiso   1.00
C1274  C     0.83201   0.50151   0.61603   0.00000  Uiso   1.00
C1275  C     0.83209   0.50126   0.88394   0.00000  Uiso   1.00
C1276  C     0.82914   0.50496   0.52378   0.00000  Uiso   1.00
C1277  C     0.83048   0.50433   0.97595   0.00000  Uiso   1.00
C1278  C     0.95736   0.49948   0.74919   0.00000  Uiso   1.00
C1279  C     0.70948   0.50122   0.74977   0.00000  Uiso   1.00
C1280  C     0.87110   0.37369   0.82750   0.00000  Uiso   1.00
C1281  C     0.91164   0.40013   0.82810   0.00000  Uiso   1.00
C1282  C     0.94164   0.39108   0.86973   0.00000  Uiso   1.00
C1283  C     0.83311   0.50021   0.66419   0.00000  Uiso   1.00
C1284  C     0.76257   0.62485   0.70423   0.00000  Uiso   1.00
C1285  C     0.76608   0.59827   0.66071   0.00000  Uiso   1.00
C1286  C     0.73058   0.60876   0.62471   0.00000  Uiso   1.00
C1287  C     0.79109   0.37763   0.67433   0.00000  Uiso   1.00
C1288  C     0.75046   0.40603   0.67698   0.00000  Uiso   1.00
C1289  C     0.71712   0.39757   0.63871   0.00000  Uiso   1.00
C1290  C     0.90458   0.62181   0.79560   0.00000  Uiso   1.00
C1291  C     0.90191   0.59307   0.83787   0.00000  Uiso   1.00
C1292  C     0.93787   0.60020   0.87363   0.00000  Uiso   1.00
C1293  C     0.83312   0.50012   0.83584   0.00000  Uiso   1.00
C1294  C     0.85696   0.35567   0.78185   0.00000  Uiso   1.00
C1295  C     0.80378   0.64402   0.72388   0.00000  Uiso   1.00
C1296  C     0.80880   0.35734   0.71857   0.00000  Uiso   1.00
C1297  C     0.86275   0.64242   0.77614   0.00000  Uiso   1.00
C1298  C     0.69144   0.47312   0.77926   0.00000  Uiso   1.00
H1299  H     0.86450   0.56471   0.53235   0.00000  Uiso   1.00
H1300  H     0.95620   0.54913   0.69683   0.00000  Uiso   1.00
H1301  H     0.96817   0.45290   0.80363   0.00000  Uiso   1.00
H1302  H     0.69941   0.55036   0.69720   0.00000  Uiso   1.00
H1303  H     0.92422   0.38846   0.90036   0.00000  Uiso   1.00
H1304  H     0.96036   0.36040   0.86522   0.00000  Uiso   1.00
H1305  H     0.96410   0.41834   0.87467   0.00000  Uiso   1.00
H1306  H     0.92863   0.39249   0.79785   0.00000  Uiso   1.00
H1307  H     0.90369   0.43569   0.82806   0.00000  Uiso   1.00
H1308  H     0.84446   0.39166   0.84083   0.00000  Uiso   1.00
H1309  H     0.87587   0.34624   0.85207   0.00000  Uiso   1.00
H1310  H     0.86006   0.43934   0.97601   0.00000  Uiso   1.00
H1311  H     0.69946   0.60888   0.63912   0.00000  Uiso   1.00
H1312  H     0.73537   0.64106   0.60879   0.00000  Uiso   1.00
H1313  H     0.73069   0.58333   0.59809   0.00000  Uiso   1.00
H1314  H     0.79655   0.60414   0.64618   0.00000  Uiso   1.00
H1315  H     0.76375   0.56284   0.66842   0.00000  Uiso   1.00
H1316  H     0.74770   0.60636   0.73017   0.00000  Uiso   1.00
H1317  H     0.73881   0.65183   0.69788   0.00000  Uiso   1.00
H1318  H     0.73114   0.39784   0.60584   0.00000  Uiso   1.00
H1319  H     0.70201   0.36563   0.64366   0.00000  Uiso   1.00
H1320  H     0.69217   0.42382   0.63838   0.00000  Uiso   1.00
H1321  H     0.80179   0.56930   0.96596   0.00000  Uiso   1.00
H1322  H     0.73608   0.40008   0.70911   0.00000  Uiso   1.00
H1323  H     0.75811   0.44122   0.67436   0.00000  Uiso   1.00
H1324  H     0.81636   0.39463   0.65892   0.00000  Uiso   1.00
H1325  H     0.78508   0.35138   0.64924   0.00000  Uiso   1.00
H1326  H     0.96866   0.60008   0.85851   0.00000  Uiso   1.00
H1327  H     0.93277   0.63164   0.89135   0.00000  Uiso   1.00
H1328  H     0.93855   0.57326   0.89891   0.00000  Uiso   1.00
H1329  H     0.87177   0.59965   0.85331   0.00000  Uiso   1.00
H1330  H     0.90445   0.55794   0.82864   0.00000  Uiso   1.00
H1331  H     0.92078   0.60458   0.76920   0.00000  Uiso   1.00
H1332  H     0.79352   0.44524   0.52521   0.00000  Uiso   1.00
H1333  H     0.92715   0.64831   0.80377   0.00000  Uiso   1.00
H1334  H     0.86691   0.56198   0.61422   0.00000  Uiso   1.00
H1335  H     0.86238   0.43721   0.89537   0.00000  Uiso   1.00
H1336  H     0.80281   0.56674   0.88447   0.00000  Uiso   1.00
H1337  H     0.79474   0.44317   0.60631   0.00000  Uiso   1.00
H1338  H     0.71057   0.45225   0.80265   0.00000  Uiso   1.00
N1339  N     0.83333   0.61907   0.75000   0.00000  Uiso   1.00
N1340  N     0.83333   0.38093   0.75000   0.00000  Uiso   1.00
O1341  O     0.77226   0.53821   0.74999   0.00000  Uiso   1.00
O1342  O     0.89441   0.46179   0.75000   0.00000  Uiso   1.00
O1343  O     0.89441   0.53821   0.75000   0.00000  Uiso   1.00
O1344  O     0.77226   0.46179   0.74999   0.00000  Uiso   1.00
O1345  O     0.83333   0.53822   0.68453   0.00000  Uiso   1.00
O1346  O     0.83334   0.46178   0.81547   0.00000  Uiso   1.00
O1347  O     0.83334   0.53822   0.81547   0.00000  Uiso   1.00
O1348  O     0.83333   0.46178   0.68453   0.00000  Uiso   1.00
Zn1349 Zn    0.83333   0.55104   0.75000   0.00000  Uiso   1.00
Zn1350 Zn    0.83333   0.44896   0.75000   0.00000  Uiso   1.00
C1351  C     0.08698   0.83381   0.74950   0.00000  Uiso   1.00
C1352  C     0.30875   0.86135   0.71990   0.00000  Uiso   1.00
C1353  C     0.31517   0.80607   0.77927   0.00000  Uiso   1.00
C1354  C     0.01856   0.86229   0.72029   0.00000  Uiso   1.00
C1355  C     0.18253   0.87160   0.54868   0.00000  Uiso   1.00
C1356  C     0.18066   0.80039   0.95596   0.00000  Uiso   1.00
C1357  C     0.14824   0.87378   0.95033   0.00000  Uiso   1.00
C1358  C     0.14292   0.80403   0.54467   0.00000  Uiso   1.00
C1359  C     0.18403   0.86983   0.59495   0.00000  Uiso   1.00
C1360  C     0.18161   0.79898   0.91002   0.00000  Uiso   1.00
C1361  C     0.14888   0.87218   0.90421   0.00000  Uiso   1.00
C1362  C     0.24640   0.83299   0.74992   0.00000  Uiso   1.00
C1363  C     0.14420   0.80246   0.59079   0.00000  Uiso   1.00
C1364  C     0.16534   0.83484   0.61603   0.00000  Uiso   1.00
C1365  C     0.16543   0.83459   0.88394   0.00000  Uiso   1.00
C1366  C     0.16248   0.83829   0.52378   0.00000  Uiso   1.00
C1367  C     0.16382   0.83766   0.97595   0.00000  Uiso   1.00
C1368  C     0.29069   0.83282   0.74919   0.00000  Uiso   1.00
C1369  C     0.04281   0.83455   0.74977   0.00000  Uiso   1.00
C1370  C     0.20444   0.70702   0.82750   0.00000  Uiso   1.00
C1371  C     0.24497   0.73346   0.82810   0.00000  Uiso   1.00
C1372  C     0.27498   0.72442   0.86973   0.00000  Uiso   1.00
C1373  C     0.16644   0.83355   0.66419   0.00000  Uiso   1.00
C1374  C     0.09591   0.95819   0.70423   0.00000  Uiso   1.00
C1375  C     0.09941   0.93160   0.66071   0.00000  Uiso   1.00
C1376  C     0.06391   0.94210   0.62471   0.00000  Uiso   1.00
C1377  C     0.12442   0.71096   0.67433   0.00000  Uiso   1.00
C1378  C     0.08379   0.73936   0.67698   0.00000  Uiso   1.00
C1379  C     0.05045   0.73091   0.63871   0.00000  Uiso   1.00
C1380  C     0.23792   0.95515   0.79560   0.00000  Uiso   1.00
C1381  C     0.23525   0.92640   0.83787   0.00000  Uiso   1.00
C1382  C     0.27120   0.93354   0.87363   0.00000  Uiso   1.00
C1383  C     0.16646   0.83345   0.83584   0.00000  Uiso   1.00
C1384  C     0.19030   0.68900   0.78185   0.00000  Uiso   1.00
C1385  C     0.13711   0.97735   0.72388   0.00000  Uiso   1.00
C1386  C     0.14213   0.69067   0.71857   0.00000  Uiso   1.00
C1387  C     0.19609   0.97575   0.77614   0.00000  Uiso   1.00
C1388  C     0.02478   0.80645   0.77926   0.00000  Uiso   1.00
H1389  H     0.19783   0.89805   0.53235   0.00000  Uiso   1.00
H1390  H     0.28953   0.88246   0.69683   0.00000  Uiso   1.00
H1391  H     0.30150   0.78624   0.80363   0.00000  Uiso   1.00
H1392  H     0.03275   0.88369   0.69720   0.00000  Uiso   1.00
H1393  H     0.25755   0.72179   0.90036   0.00000  Uiso   1.00
H1394  H     0.29369   0.69373   0.86522   0.00000  Uiso   1.00
H1395  H     0.29744   0.75167   0.87467   0.00000  Uiso   1.00
H1396  H     0.26196   0.72582   0.79785   0.00000  Uiso   1.00
H1397  H     0.23702   0.76902   0.82806   0.00000  Uiso   1.00
H1398  H     0.17779   0.72500   0.84083   0.00000  Uiso   1.00
H1399  H     0.20920   0.67957   0.85207   0.00000  Uiso   1.00
H1400  H     0.19339   0.77268   0.97601   0.00000  Uiso   1.00
H1401  H     0.03279   0.94221   0.63912   0.00000  Uiso   1.00
H1402  H     0.06870   0.97439   0.60879   0.00000  Uiso   1.00
H1403  H     0.06402   0.91666   0.59809   0.00000  Uiso   1.00
H1404  H     0.12988   0.93748   0.64618   0.00000  Uiso   1.00
H1405  H     0.09708   0.89617   0.66842   0.00000  Uiso   1.00
H1406  H     0.08103   0.93969   0.73017   0.00000  Uiso   1.00
H1407  H     0.07214   0.98516   0.69788   0.00000  Uiso   1.00
H1408  H     0.06447   0.73117   0.60584   0.00000  Uiso   1.00
H1409  H     0.03534   0.69896   0.64366   0.00000  Uiso   1.00
H1410  H     0.02550   0.75715   0.63838   0.00000  Uiso   1.00
H1411  H     0.13513   0.90263   0.96596   0.00000  Uiso   1.00
H1412  H     0.06941   0.73341   0.70911   0.00000  Uiso   1.00
H1413  H     0.09145   0.77455   0.67436   0.00000  Uiso   1.00
H1414  H     0.14969   0.72796   0.65892   0.00000  Uiso   1.00
H1415  H     0.11842   0.68471   0.64924   0.00000  Uiso   1.00
H1416  H     0.30199   0.93341   0.85851   0.00000  Uiso   1.00
H1417  H     0.26611   0.96497   0.89135   0.00000  Uiso   1.00
H1418  H     0.27188   0.90659   0.89891   0.00000  Uiso   1.00
H1419  H     0.20510   0.93298   0.85331   0.00000  Uiso   1.00
H1420  H     0.23778   0.89127   0.82864   0.00000  Uiso   1.00
H1421  H     0.25411   0.93792   0.76920   0.00000  Uiso   1.00
H1422  H     0.12685   0.77857   0.52521   0.00000  Uiso   1.00
H1423  H     0.26048   0.98164   0.80377   0.00000  Uiso   1.00
H1424  H     0.20024   0.89531   0.61422   0.00000  Uiso   1.00
H1425  H     0.19571   0.77055   0.89537   0.00000  Uiso   1.00
H1426  H     0.13615   0.90008   0.88447   0.00000  Uiso   1.00
H1427  H     0.12807   0.77650   0.60631   0.00000  Uiso   1.00
H1428  H     0.04390   0.78558   0.80265   0.00000  Uiso   1.00
N1429  N     0.16667   0.95240   0.75000   0.00000  Uiso   1.00
N1430  N     0.16667   0.71427   0.75000   0.00000  Uiso   1.00
O1431  O     0.10559   0.87154   0.74999   0.00000  Uiso   1.00
O1432  O     0.22774   0.79513   0.75000   0.00000  Uiso   1.00
O1433  O     0.22774   0.87154   0.75000   0.00000  Uiso   1.00
O1434  O     0.10559   0.79513   0.74999   0.00000  Uiso   1.00
O1435  O     0.16666   0.87155   0.68453   0.00000  Uiso   1.00
O1436  O     0.16667   0.79511   0.81547   0.00000  Uiso   1.00
O1437  O     0.16667   0.87155   0.81547   0.00000  Uiso   1.00
O1438  O     0.16666   0.79511   0.68453   0.00000  Uiso   1.00
Zn1439 Zn    0.16667   0.88437   0.75000   0.00000  Uiso   1.00
Zn1440 Zn    0.16667   0.78229   0.75000   0.00000  Uiso   1.00
C1441  C     0.42032   0.83381   0.74950   0.00000  Uiso   1.00
C1442  C     0.64208   0.86135   0.71990   0.00000  Uiso   1.00
C1443  C     0.64850   0.80607   0.77927   0.00000  Uiso   1.00
C1444  C     0.35189   0.86229   0.72029   0.00000  Uiso   1.00
C1445  C     0.51586   0.87160   0.54868   0.00000  Uiso   1.00
C1446  C     0.51399   0.80039   0.95596   0.00000  Uiso   1.00
C1447  C     0.48158   0.87378   0.95033   0.00000  Uiso   1.00
C1448  C     0.47625   0.80403   0.54467   0.00000  Uiso   1.00
C1449  C     0.51737   0.86983   0.59495   0.00000  Uiso   1.00
C1450  C     0.51495   0.79898   0.91002   0.00000  Uiso   1.00
C1451  C     0.48221   0.87218   0.90421   0.00000  Uiso   1.00
C1452  C     0.57973   0.83299   0.74992   0.00000  Uiso   1.00
C1453  C     0.47754   0.80246   0.59079   0.00000  Uiso   1.00
C1454  C     0.49867   0.83484   0.61603   0.00000  Uiso   1.00
C1455  C     0.49876   0.83459   0.88394   0.00000  Uiso   1.00
C1456  C     0.49581   0.83829   0.52378   0.00000  Uiso   1.00
C1457  C     0.49715   0.83766   0.97595   0.00000  Uiso   1.00
C1458  C     0.62403   0.83282   0.74919   0.00000  Uiso   1.00
C1459  C     0.37614   0.83455   0.74977   0.00000  Uiso   1.00
C1460  C     0.53777   0.70702   0.82750   0.00000  Uiso   1.00
C1461  C     0.57831   0.73346   0.82810   0.00000  Uiso   1.00
C1462  C     0.60831   0.72442   0.86973   0.00000  Uiso   1.00
C1463  C     0.49978   0.83355   0.66419   0.00000  Uiso   1.00
C1464  C     0.42924   0.95819   0.70423   0.00000  Uiso   1.00
C1465  C     0.43275   0.93160   0.66071   0.00000  Uiso   1.00
C1466  C     0.39724   0.94210   0.62471   0.00000  Uiso   1.00
C1467  C     0.45775   0.71096   0.67433   0.00000  Uiso   1.00
C1468  C     0.41712   0.73936   0.67698   0.00000  Uiso   1.00
C1469  C     0.38378   0.73091   0.63871   0.00000  Uiso   1.00
C1470  C     0.57125   0.95515   0.79560   0.00000  Uiso   1.00
C1471  C     0.56858   0.92640   0.83787   0.00000  Uiso   1.00
C1472  C     0.60453   0.93354   0.87363   0.00000  Uiso   1.00
C1473  C     0.49979   0.83345   0.83584   0.00000  Uiso   1.00
C1474  C     0.52363   0.68900   0.78185   0.00000  Uiso   1.00
C1475  C     0.47044   0.97735   0.72388   0.00000  Uiso   1.00
C1476  C     0.47546   0.69067   0.71857   0.00000  Uiso   1.00
C1477  C     0.52942   0.97575   0.77614   0.00000  Uiso   1.00
C1478  C     0.35811   0.80645   0.77926   0.00000  Uiso   1.00
H1479  H     0.53117   0.89805   0.53235   0.00000  Uiso   1.00
H1480  H     0.62287   0.88246   0.69683   0.00000  Uiso   1.00
H1481  H     0.63483   0.78624   0.80363   0.00000  Uiso   1.00
H1482  H     0.36608   0.88369   0.69720   0.00000  Uiso   1.00
H1483  H     0.59088   0.72179   0.90036   0.00000  Uiso   1.00
H1484  H     0.62703   0.69373   0.86522   0.00000  Uiso   1.00
H1485  H     0.63077   0.75167   0.87467   0.00000  Uiso   1.00
H1486  H     0.59530   0.72582   0.79785   0.00000  Uiso   1.00
H1487  H     0.57035   0.76902   0.82806   0.00000  Uiso   1.00
H1488  H     0.51113   0.72500   0.84083   0.00000  Uiso   1.00
H1489  H     0.54254   0.67957   0.85207   0.00000  Uiso   1.00
H1490  H     0.52673   0.77268   0.97601   0.00000  Uiso   1.00
H1491  H     0.36613   0.94221   0.63912   0.00000  Uiso   1.00
H1492  H     0.40203   0.97439   0.60879   0.00000  Uiso   1.00
H1493  H     0.39736   0.91666   0.59809   0.00000  Uiso   1.00
H1494  H     0.46321   0.93748   0.64618   0.00000  Uiso   1.00
H1495  H     0.43042   0.89617   0.66842   0.00000  Uiso   1.00
H1496  H     0.41436   0.93969   0.73017   0.00000  Uiso   1.00
H1497  H     0.40547   0.98516   0.69788   0.00000  Uiso   1.00
H1498  H     0.39780   0.73117   0.60584   0.00000  Uiso   1.00
H1499  H     0.36867   0.69896   0.64366   0.00000  Uiso   1.00
H1500  H     0.35883   0.75715   0.63838   0.00000  Uiso   1.00
H1501  H     0.46846   0.90263   0.96596   0.00000  Uiso   1.00
H1502  H     0.40275   0.73341   0.70911   0.00000  Uiso   1.00
H1503  H     0.42478   0.77455   0.67436   0.00000  Uiso   1.00
H1504  H     0.48302   0.72796   0.65892   0.00000  Uiso   1.00
H1505  H     0.45175   0.68471   0.64924   0.00000  Uiso   1.00
H1506  H     0.63533   0.93341   0.85851   0.00000  Uiso   1.00
H1507  H     0.59944   0.96497   0.89135   0.00000  Uiso   1.00
H1508  H     0.60521   0.90659   0.89891   0.00000  Uiso   1.00
H1509  H     0.53843   0.93298   0.85331   0.00000  Uiso   1.00
H1510  H     0.57111   0.89127   0.82864   0.00000  Uiso   1.00
H1511  H     0.58744   0.93792   0.76920   0.00000  Uiso   1.00
H1512  H     0.46018   0.77857   0.52521   0.00000  Uiso   1.00
H1513  H     0.59381   0.98164   0.80377   0.00000  Uiso   1.00
H1514  H     0.53357   0.89531   0.61422   0.00000  Uiso   1.00
H1515  H     0.52904   0.77055   0.89537   0.00000  Uiso   1.00
H1516  H     0.46948   0.90008   0.88447   0.00000  Uiso   1.00
H1517  H     0.46140   0.77650   0.60631   0.00000  Uiso   1.00
H1518  H     0.37724   0.78558   0.80265   0.00000  Uiso   1.00
N1519  N     0.50000   0.95240   0.75000   0.00000  Uiso   1.00
N1520  N     0.50000   0.71427   0.75000   0.00000  Uiso   1.00
O1521  O     0.43892   0.87154   0.74999   0.00000  Uiso   1.00
O1522  O     0.56108   0.79513   0.75000   0.00000  Uiso   1.00
O1523  O     0.56108   0.87154   0.75000   0.00000  Uiso   1.00
O1524  O     0.43892   0.79513   0.74999   0.00000  Uiso   1.00
O1525  O     0.50000   0.87155   0.68453   0.00000  Uiso   1.00
O1526  O     0.50000   0.79511   0.81547   0.00000  Uiso   1.00
O1527  O     0.50000   0.87155   0.81547   0.00000  Uiso   1.00
O1528  O     0.50000   0.79511   0.68453   0.00000  Uiso   1.00
Zn1529 Zn    0.50000   0.88437   0.75000   0.00000  Uiso   1.00
Zn1530 Zn    0.50000   0.78229   0.75000   0.00000  Uiso   1.00
C1531  C     0.75365   0.83381   0.74950   0.00000  Uiso   1.00
C1532  C     0.97542   0.86135   0.71990   0.00000  Uiso   1.00
C1533  C     0.98183   0.80607   0.77927   0.00000  Uiso   1.00
C1534  C     0.68523   0.86229   0.72029   0.00000  Uiso   1.00
C1535  C     0.84919   0.87160   0.54868   0.00000  Uiso   1.00
C1536  C     0.84733   0.80039   0.95596   0.00000  Uiso   1.00
C1537  C     0.81491   0.87378   0.95033   0.00000  Uiso   1.00
C1538  C     0.80959   0.80403   0.54467   0.00000  Uiso   1.00
C1539  C     0.85070   0.86983   0.59495   0.00000  Uiso   1.00
C1540  C     0.84828   0.79898   0.91002   0.00000  Uiso   1.00
C1541  C     0.81555   0.87218   0.90421   0.00000  Uiso   1.00
C1542  C     0.91306   0.83299   0.74992   0.00000  Uiso   1.00
C1543  C     0.81087   0.80246   0.59079   0.00000  Uiso   1.00
C1544  C     0.83201   0.83484   0.61603   0.00000  Uiso   1.00
C1545  C     0.83209   0.83459   0.88394   0.00000  Uiso   1.00
C1546  C     0.82914   0.83829   0.52378   0.00000  Uiso   1.00
C1547  C     0.83048   0.83766   0.97595   0.00000  Uiso   1.00
C1548  C     0.95736   0.83282   0.74919   0.00000  Uiso   1.00
C1549  C     0.70948   0.83455   0.74977   0.00000  Uiso   1.00
C1550  C     0.87110   0.70702   0.82750   0.00000  Uiso   1.00
C1551  C     0.91164   0.73346   0.82810   0.00000  Uiso   1.00
C1552  C     0.94164   0.72442   0.86973   0.00000  Uiso   1.00
C1553  C     0.83311   0.83355   0.66419   0.00000  Uiso   1.00
C1554  C     0.76257   0.95819   0.70423   0.00000  Uiso   1.00
C1555  C     0.76608   0.93160   0.66071   0.00000  Uiso   1.00
C1556  C     0.73058   0.94210   0.62471   0.00000  Uiso   1.00
C1557  C     0.79109   0.71096   0.67433   0.00000  Uiso   1.00
C1558  C     0.75046   0.73936   0.67698   0.00000  Uiso   1.00
C1559  C     0.71712   0.73091   0.63871   0.00000  Uiso   1.00
C1560  C     0.90458   0.95515   0.79560   0.00000  Uiso   1.00
C1561  C     0.90191   0.92640   0.83787   0.00000  Uiso   1.00
C1562  C     0.93787   0.93354   0.87363   0.00000  Uiso   1.00
C1563  C     0.83312   0.83345   0.83584   0.00000  Uiso   1.00
C1564  C     0.85696   0.68900   0.78185   0.00000  Uiso   1.00
C1565  C     0.80378   0.97735   0.72388   0.00000  Uiso   1.00
C1566  C     0.80880   0.69067   0.71857   0.00000  Uiso   1.00
C1567  C     0.86275   0.97575   0.77614   0.00000  Uiso   1.00
C1568  C     0.69144   0.80645   0.77926   0.00000  Uiso   1.00
H1569  H     0.86450   0.89805   0.53235   0.00000  Uiso   1.00
H1570  H     0.95620   0.88246   0.69683   0.00000  Uiso   1.00
H1571  H     0.96817   0.78624   0.80363   0.00000  Uiso   1.00
H1572  H     0.69941   0.88369   0.69720   0.00000  Uiso   1.00
H1573  H     0.92422   0.72179   0.90036   0.00000  Uiso   1.00
H1574  H     0.96036   0.69373   0.86522   0.00000  Uiso   1.00
H1575  H     0.96410   0.75167   0.87467   0.00000  Uiso   1.00
H1576  H     0.92863   0.72582   0.79785   0.00000  Uiso   1.00
H1577  H     0.90369   0.76902   0.82806   0.00000  Uiso   1.00
H1578  H     0.84446   0.72500   0.84083   0.00000  Uiso   1.00
H1579  H     0.87587   0.67957   0.85207   0.00000  Uiso   1.00
H1580  H     0.86006   0.77268   0.97601   0.00000  Uiso   1.00
H1581  H     0.69946   0.94221   0.63912   0.00000  Uiso   1.00
H1582  H     0.73537   0.97439   0.60879   0.00000  Uiso   1.00
H1583  H     0.73069   0.91666   0.59809   0.00000  Uiso   1.00
H1584  H     0.79655   0.93748   0.64618   0.00000  Uiso   1.00
H1585  H     0.76375   0.89617   0.66842   0.00000  Uiso   1.00
H1586  H     0.74770   0.93969   0.73017   0.00000  Uiso   1.00
H1587  H     0.73881   0.98516   0.69788   0.00000  Uiso   1.00
H1588  H     0.73114   0.73117   0.60584   0.00000  Uiso   1.00
H1589  H     0.70201   0.69896   0.64366   0.00000  Uiso   1.00
H1590  H     0.69217   0.75715   0.63838   0.00000  Uiso   1.00
H1591  H     0.80179   0.90263   0.96596   0.00000  Uiso   1.00
H1592  H     0.73608   0.73341   0.70911   0.00000  Uiso   1.00
H1593  H     0.75811   0.77455   0.67436   0.00000  Uiso   1.00
H1594  H     0.81636   0.72796   0.65892   0.00000  Uiso   1.00
H1595  H     0.78508   0.68471   0.64924   0.00000  Uiso   1.00
H1596  H     0.96866   0.93341   0.85851   0.00000  Uiso   1.00
H1597  H     0.93277   0.96497   0.89135   0.00000  Uiso   1.00
H1598  H     0.93855   0.90659   0.89891   0.00000  Uiso   1.00
H1599  H     0.87177   0.93298   0.85331   0.00000  Uiso   1.00
H1600  H     0.90445   0.89127   0.82864   0.00000  Uiso   1.00
H1601  H     0.92078   0.93792   0.76920   0.00000  Uiso   1.00
H1602  H     0.79352   0.77857   0.52521   0.00000  Uiso   1.00
H1603  H     0.92715   0.98164   0.80377   0.00000  Uiso   1.00
H1604  H     0.86691   0.89531   0.61422   0.00000  Uiso   1.00
H1605  H     0.86238   0.77055   0.89537   0.00000  Uiso   1.00
H1606  H     0.80281   0.90008   0.88447   0.00000  Uiso   1.00
H1607  H     0.79474   0.77650   0.60631   0.00000  Uiso   1.00
H1608  H     0.71057   0.78558   0.80265   0.00000  Uiso   1.00
N1609  N     0.83333   0.95240   0.75000   0.00000  Uiso   1.00
N1610  N     0.83333   0.71427   0.75000   0.00000  Uiso   1.00
O1611  O     0.77226   0.87154   0.74999   0.00000  Uiso   1.00
O1612  O     0.89441   0.79513   0.75000   0.00000  Uiso   1.00
O1613  O     0.89441   0.87154   0.75000   0.00000  Uiso   1.00
O1614  O     0.77226   0.79513   0.74999   0.00000  Uiso   1.00
O1615  O     0.83333   0.87155   0.68453   0.00000  Uiso   1.00
O1616  O     0.83334   0.79511   0.81547   0.00000  Uiso   1.00
O1617  O     0.83334   0.87155   0.81547   0.00000  Uiso   1.00
O1618  O     0.83333   0.79511   0.68453   0.00000  Uiso   1.00
Zn1619 Zn    0.83333   0.88437   0.75000   0.00000  Uiso   1.00
Zn1620 Zn    0.83333   0.78229   0.75000   0.00000  Uiso   1.00
loop_
_geom_bond_atom_site_label_1
_geom_bond_atom_site_label_2
_geom_bond_distance
_geom_bond_site_symmetry_2
_ccdc_geom_bond_type
C1     O84     1.302   .     A
C1     O81     1.302   .     A
C1     C19     1.408   .     S
C2     C18     1.395   .     A
C2     H40     1.084   .     S
C2     C94     1.375   .     S
C3     C18     1.391   .     A
C3     H41     1.069   .     S
C3     C128    1.369   .     S
C4     C19     1.394   .     A
C4     H42     1.078   .     S
C4     C182    1.375   1_455 S
C5     C16     1.396   .     A
C5     C9      1.382   .     A
C5     H39     1.084   .     S
C6     H50     1.084   .     S
C6     C17     1.396   .     A
C6     C10     1.378   .     A
C7     C11     1.382   .     A
C7     H61     1.084   .     S
C7     C17     1.395   .     A
C8     C13     1.378   .     A
C8     C16     1.395   .     A
C8     H72     1.084   .     S
C9     C14     1.402   .     A
C9     H74     1.084   .     S
C10    H75     1.073   .     S
C10    C15     1.396   .     A
C11    H76     1.083   .     S
C11    C15     1.404   .     A
C12    O82     1.307   .     A
C12    O83     1.299   .     A
C12    C18     1.413   .     S
C13    H77     1.074   .     S
C13    C14     1.396   .     A
C14    C23     1.439   .     S
C15    C33     1.443   .     S
C16    C827    1.435   1_554 S
C17    C826    1.435   .     S
C19    C38     1.390   .     A
C20    C34     1.513   .     S
C20    H49     1.109   .     S
C20    H48     1.099   .     S
C20    C21     1.536   .     S
C21    C22     1.531   .     S
C21    H46     1.111   .     S
C21    H47     1.103   .     S
C22    H44     1.108   .     S
C22    H43     1.110   .     S
C22    H45     1.110   .     S
C23    O88     1.314   .     A
C23    O85     1.306   .     A
C24    C25     1.544   .     S
C24    C35     1.526   .     S
C24    H57     1.107   .     S
C24    H56     1.099   .     S
C25    H54     1.111   .     S
C25    C26     1.529   .     S
C25    H55     1.105   .     S
C26    H52     1.107   .     S
C26    H53     1.111   .     S
C26    H51     1.111   .     S
C27    H65     1.106   .     S
C27    C36     1.521   .     S
C27    H64     1.096   .     S
C27    C28     1.545   .     S
C28    C29     1.528   .     S
C28    H63     1.105   .     S
C28    H62     1.112   .     S
C29    H59     1.108   .     S
C29    H60     1.111   .     S
C29    H58     1.111   .     S
C30    H71     1.102   .     S
C30    C31     1.543   .     S
C30    H73     1.107   .     S
C30    C37     1.531   .     S
C31    H70     1.105   .     S
C31    C32     1.527   .     S
C31    H69     1.111   .     S
C32    H68     1.111   .     S
C32    H67     1.107   .     S
C32    H66     1.111   .     S
C33    O86     1.315   .     A
C33    O87     1.306   .     A
C34    N80     1.386   .     A
C34    C577    1.434   1_545 S
C35    N79     1.386   .     A
C35    C306    1.439   .     S
C36    N80     1.389   .     A
C36    C575    1.439   1_545 S
C37    N79     1.385   .     A
C37    C304    1.434   .     S
C38    H78     1.085   .     S
C38    C183    1.369   1_455 S
N79    Zn89    2.065   .     S
N80    Zn90    2.065   .     S
O81    Zn89    1.994   .     S
O82    Zn90    1.994   .     S
O83    Zn89    1.975   .     S
O84    Zn90    1.975   .     S
O85    Zn89    1.998   .     S
O86    Zn90    1.998   .     S
O87    Zn89    1.996   .     S
O88    Zn90    1.996   .     S
C91    O174    1.302   .     A
C91    O171    1.302   .     A
C91    C109    1.408   .     S
C92    C108    1.395   .     A
C92    H130    1.084   .     S
C92    C184    1.375   .     S
C93    C108    1.391   .     A
C93    H131    1.069   .     S
C93    C218    1.369   .     S
C94    C109    1.394   .     A
C94    H132    1.078   .     S
C95    C106    1.396   .     A
C95    C99     1.382   .     A
C95    H129    1.084   .     S
C96    H140    1.084   .     S
C96    C107    1.396   .     A
C96    C100    1.378   .     A
C97    C101    1.382   .     A
C97    H151    1.084   .     S
C97    C107    1.395   .     A
C98    C103    1.378   .     A
C98    C106    1.395   .     A
C98    H162    1.084   .     S
C99    C104    1.402   .     A
C99    H164    1.084   .     S
C100   H165    1.073   .     S
C100   C105    1.396   .     A
C101   H166    1.083   .     S
C101   C105    1.404   .     A
C102   O172    1.307   .     A
C102   O173    1.299   .     A
C102   C108    1.413   .     S
C103   H167    1.074   .     S
C103   C104    1.396   .     A
C104   C113    1.439   .     S
C105   C123    1.443   .     S
C106   C917    1.435   1_554 S
C107   C916    1.435   .     S
C109   C128    1.390   .     A
C110   C124    1.513   .     S
C110   H139    1.109   .     S
C110   H138    1.099   .     S
C110   C111    1.536   .     S
C111   C112    1.531   .     S
C111   H136    1.111   .     S
C111   H137    1.103   .     S
C112   H134    1.108   .     S
C112   H133    1.110   .     S
C112   H135    1.110   .     S
C113   O178    1.314   .     A
C113   O175    1.306   .     A
C114   C115    1.544   .     S
C114   C125    1.526   .     S
C114   H147    1.107   .     S
C114   H146    1.099   .     S
C115   H144    1.111   .     S
C115   C116    1.529   .     S
C115   H145    1.105   .     S
C116   H142    1.107   .     S
C116   H143    1.111   .     S
C116   H141    1.111   .     S
C117   H155    1.106   .     S
C117   C126    1.521   .     S
C117   H154    1.096   .     S
C117   C118    1.545   .     S
C118   C119    1.528   .     S
C118   H153    1.105   .     S
C118   H152    1.112   .     S
C119   H149    1.108   .     S
C119   H150    1.111   .     S
C119   H148    1.111   .     S
C120   H161    1.102   .     S
C120   C121    1.543   .     S
C120   H163    1.107   .     S
C120   C127    1.531   .     S
C121   H160    1.105   .     S
C121   C122    1.527   .     S
C121   H159    1.111   .     S
C122   H158    1.111   .     S
C122   H157    1.107   .     S
C122   H156    1.111   .     S
C123   O176    1.315   .     A
C123   O177    1.306   .     A
C124   N170    1.386   .     A
C124   C667    1.434   1_545 S
C125   N169    1.386   .     A
C125   C396    1.439   .     S
C126   N170    1.389   .     A
C126   C665    1.439   1_545 S
C127   N169    1.385   .     A
C127   C394    1.434   .     S
C128   H168    1.085   .     S
N169   Zn179   2.065   .     S
N170   Zn180   2.065   .     S
O171   Zn179   1.994   .     S
O172   Zn180   1.994   .     S
O173   Zn179   1.975   .     S
O174   Zn180   1.975   .     S
O175   Zn179   1.998   .     S
O176   Zn180   1.998   .     S
O177   Zn179   1.996   .     S
O178   Zn180   1.996   .     S
C181   O264    1.302   .     A
C181   O261    1.302   .     A
C181   C199    1.408   .     S
C182   C198    1.395   .     A
C182   H220    1.084   .     S
C182   C4      1.375   1_655 S
C183   C198    1.391   .     A
C183   H221    1.069   .     S
C183   C38     1.369   1_655 S
C184   C199    1.394   .     A
C184   H222    1.078   .     S
C185   C196    1.396   .     A
C185   C189    1.382   .     A
C185   H219    1.084   .     S
C186   H230    1.084   .     S
C186   C197    1.396   .     A
C186   C190    1.378   .     A
C187   C191    1.382   .     A
C187   H241    1.084   .     S
C187   C197    1.395   .     A
C188   C193    1.378   .     A
C188   C196    1.395   .     A
C188   H252    1.084   .     S
C189   C194    1.402   .     A
C189   H254    1.084   .     S
C190   H255    1.073   .     S
C190   C195    1.396   .     A
C191   H256    1.083   .     S
C191   C195    1.404   .     A
C192   O262    1.307   .     A
C192   O263    1.299   .     A
C192   C198    1.413   .     S
C193   H257    1.074   .     S
C193   C194    1.396   .     A
C194   C203    1.439   .     S
C195   C213    1.443   .     S
C196   C1007   1.435   1_554 S
C197   C1006   1.435   .     S
C199   C218    1.390   .     A
C200   C214    1.513   .     S
C200   H229    1.109   .     S
C200   H228    1.099   .     S
C200   C201    1.536   .     S
C201   C202    1.531   .     S
C201   H226    1.111   .     S
C201   H227    1.103   .     S
C202   H224    1.108   .     S
C202   H223    1.110   .     S
C202   H225    1.110   .     S
C203   O268    1.314   .     A
C203   O265    1.306   .     A
C204   C205    1.544   .     S
C204   C215    1.526   .     S
C204   H237    1.107   .     S
C204   H236    1.099   .     S
C205   H234    1.111   .     S
C205   C206    1.529   .     S
C205   H235    1.105   .     S
C206   H232    1.107   .     S
C206   H233    1.111   .     S
C206   H231    1.111   .     S
C207   H245    1.106   .     S
C207   C216    1.521   .     S
C207   H244    1.096   .     S
C207   C208    1.545   .     S
C208   C209    1.528   .     S
C208   H243    1.105   .     S
C208   H242    1.112   .     S
C209   H239    1.108   .     S
C209   H240    1.111   .     S
C209   H238    1.111   .     S
C210   H251    1.102   .     S
C210   C211    1.543   .     S
C210   H253    1.107   .     S
C210   C217    1.531   .     S
C211   H250    1.105   .     S
C211   C212    1.527   .     S
C211   H249    1.111   .     S
C212   H248    1.111   .     S
C212   H247    1.107   .     S
C212   H246    1.111   .     S
C213   O266    1.315   .     A
C213   O267    1.306   .     A
C214   N260    1.386   .     A
C214   C757    1.434   1_545 S
C215   N259    1.386   .     A
C215   C486    1.439   .     S
C216   N260    1.389   .     A
C216   C755    1.439   1_545 S
C217   N259    1.385   .     A
C217   C484    1.434   .     S
C218   H258    1.085   .     S
N259   Zn269   2.065   .     S
N260   Zn270   2.065   .     S
O261   Zn269   1.994   .     S
O262   Zn270   1.994   .     S
O263   Zn269   1.975   .     S
O264   Zn270   1.975   .     S
O265   Zn269   1.998   .     S
O266   Zn270   1.998   .     S
O267   Zn269   1.996   .     S
O268   Zn270   1.996   .     S
C271   O354    1.302   .     A
C271   O351    1.302   .     A
C271   C289    1.408   .     S
C272   C288    1.395   .     A
C272   H310    1.084   .     S
C272   C364    1.375   .     S
C273   C288    1.391   .     A
C273   H311    1.069   .     S
C273   C398    1.369   .     S
C274   C289    1.394   .     A
C274   H312    1.078   .     S
C274   C452    1.375   1_455 S
C275   C286    1.396   .     A
C275   C279    1.382   .     A
C275   H309    1.084   .     S
C276   H320    1.084   .     S
C276   C287    1.396   .     A
C276   C280    1.378   .     A
C277   C281    1.382   .     A
C277   H331    1.084   .     S
C277   C287    1.395   .     A
C278   C283    1.378   .     A
C278   C286    1.395   .     A
C278   H342    1.084   .     S
C279   C284    1.402   .     A
C279   H344    1.084   .     S
C280   H345    1.073   .     S
C280   C285    1.396   .     A
C281   H346    1.083   .     S
C281   C285    1.404   .     A
C282   O352    1.307   .     A
C282   O353    1.299   .     A
C282   C288    1.413   .     S
C283   H347    1.074   .     S
C283   C284    1.396   .     A
C284   C293    1.439   .     S
C285   C303    1.443   .     S
C286   C1097   1.435   1_554 S
C287   C1096   1.435   .     S
C289   C308    1.390   .     A
C290   C304    1.513   .     S
C290   H319    1.109   .     S
C290   H318    1.099   .     S
C290   C291    1.536   .     S
C291   C292    1.531   .     S
C291   H316    1.111   .     S
C291   H317    1.103   .     S
C292   H314    1.108   .     S
C292   H313    1.110   .     S
C292   H315    1.110   .     S
C293   O358    1.314   .     A
C293   O355    1.306   .     A
C294   C295    1.544   .     S
C294   C305    1.526   .     S
C294   H327    1.107   .     S
C294   H326    1.099   .     S
C295   H324    1.111   .     S
C295   C296    1.529   .     S
C295   H325    1.105   .     S
C296   H322    1.107   .     S
C296   H323    1.111   .     S
C296   H321    1.111   .     S
C297   H335    1.106   .     S
C297   C306    1.521   .     S
C297   H334    1.096   .     S
C297   C298    1.545   .     S
C298   C299    1.528   .     S
C298   H333    1.105   .     S
C298   H332    1.112   .     S
C299   H329    1.108   .     S
C299   H330    1.111   .     S
C299   H328    1.111   .     S
C300   H341    1.102   .     S
C300   C301    1.543   .     S
C300   H343    1.107   .     S
C300   C307    1.531   .     S
C301   H340    1.105   .     S
C301   C302    1.527   .     S
C301   H339    1.111   .     S
C302   H338    1.111   .     S
C302   H337    1.107   .     S
C302   H336    1.111   .     S
C303   O356    1.315   .     A
C303   O357    1.306   .     A
C304   N350    1.386   .     A
C305   N349    1.386   .     A
C305   C576    1.439   .     S
C306   N350    1.389   .     A
C307   N349    1.385   .     A
C307   C574    1.434   .     S
C308   H348    1.085   .     S
C308   C453    1.369   1_455 S
N349   Zn359   2.065   .     S
N350   Zn360   2.065   .     S
O351   Zn359   1.994   .     S
O352   Zn360   1.994   .     S
O353   Zn359   1.975   .     S
O354   Zn360   1.975   .     S
O355   Zn359   1.998   .     S
O356   Zn360   1.998   .     S
O357   Zn359   1.996   .     S
O358   Zn360   1.996   .     S
C361   O444    1.302   .     A
C361   O441    1.302   .     A
C361   C379    1.408   .     S
C362   C378    1.395   .     A
C362   H400    1.084   .     S
C362   C454    1.375   .     S
C363   C378    1.391   .     A
C363   H401    1.069   .     S
C363   C488    1.369   .     S
C364   C379    1.394   .     A
C364   H402    1.078   .     S
C365   C376    1.396   .     A
C365   C369    1.382   .     A
C365   H399    1.084   .     S
C366   H410    1.084   .     S
C366   C377    1.396   .     A
C366   C370    1.378   .     A
C367   C371    1.382   .     A
C367   H421    1.084   .     S
C367   C377    1.395   .     A
C368   C373    1.378   .     A
C368   C376    1.395   .     A
C368   H432    1.084   .     S
C369   C374    1.402   .     A
C369   H434    1.084   .     S
C370   H435    1.073   .     S
C370   C375    1.396   .     A
C371   H436    1.083   .     S
C371   C375    1.404   .     A
C372   O442    1.307   .     A
C372   O443    1.299   .     A
C372   C378    1.413   .     S
C373   H437    1.074   .     S
C373   C374    1.396   .     A
C374   C383    1.439   .     S
C375   C393    1.443   .     S
C376   C1187   1.435   1_554 S
C377   C1186   1.435   .     S
C379   C398    1.390   .     A
C380   C394    1.513   .     S
C380   H409    1.109   .     S
C380   H408    1.099   .     S
C380   C381    1.536   .     S
C381   C382    1.531   .     S
C381   H406    1.111   .     S
C381   H407    1.103   .     S
C382   H404    1.108   .     S
C382   H403    1.110   .     S
C382   H405    1.110   .     S
C383   O448    1.314   .     A
C383   O445    1.306   .     A
C384   C385    1.544   .     S
C384   C395    1.526   .     S
C384   H417    1.107   .     S
C384   H416    1.099   .     S
C385   H414    1.111   .     S
C385   C386    1.529   .     S
C385   H415    1.105   .     S
C386   H412    1.107   .     S
C386   H413    1.111   .     S
C386   H411    1.111   .     S
C387   H425    1.106   .     S
C387   C396    1.521   .     S
C387   H424    1.096   .     S
C387   C388    1.545   .     S
C388   C389    1.528   .     S
C388   H423    1.105   .     S
C388   H422    1.112   .     S
C389   H419    1.108   .     S
C389   H420    1.111   .     S
C389   H418    1.111   .     S
C390   H431    1.102   .     S
C390   C391    1.543   .     S
C390   H433    1.107   .     S
C390   C397    1.531   .     S
C391   H430    1.105   .     S
C391   C392    1.527   .     S
C391   H429    1.111   .     S
C392   H428    1.111   .     S
C392   H427    1.107   .     S
C392   H426    1.111   .     S
C393   O446    1.315   .     A
C393   O447    1.306   .     A
C394   N440    1.386   .     A
C395   N439    1.386   .     A
C395   C666    1.439   .     S
C396   N440    1.389   .     A
C397   N439    1.385   .     A
C397   C664    1.434   .     S
C398   H438    1.085   .     S
N439   Zn449   2.065   .     S
N440   Zn450   2.065   .     S
O441   Zn449   1.994   .     S
O442   Zn450   1.994   .     S
O443   Zn449   1.975   .     S
O444   Zn450   1.975   .     S
O445   Zn449   1.998   .     S
O446   Zn450   1.998   .     S
O447   Zn449   1.996   .     S
O448   Zn450   1.996   .     S
C451   O534    1.302   .     A
C451   O531    1.302   .     A
C451   C469    1.408   .     S
C452   C468    1.395   .     A
C452   H490    1.084   .     S
C452   C274    1.375   1_655 S
C453   C468    1.391   .     A
C453   H491    1.069   .     S
C453   C308    1.369   1_655 S
C454   C469    1.394   .     A
C454   H492    1.078   .     S
C455   C466    1.396   .     A
C455   C459    1.382   .     A
C455   H489    1.084   .     S
C456   H500    1.084   .     S
C456   C467    1.396   .     A
C456   C460    1.378   .     A
C457   C461    1.382   .     A
C457   H511    1.084   .     S
C457   C467    1.395   .     A
C458   C463    1.378   .     A
C458   C466    1.395   .     A
C458   H522    1.084   .     S
C459   C464    1.402   .     A
C459   H524    1.084   .     S
C460   H525    1.073   .     S
C460   C465    1.396   .     A
C461   H526    1.083   .     S
C461   C465    1.404   .     A
C462   O532    1.307   .     A
C462   O533    1.299   .     A
C462   C468    1.413   .     S
C463   H527    1.074   .     S
C463   C464    1.396   .     A
C464   C473    1.439   .     S
C465   C483    1.443   .     S
C466   C1277   1.435   1_554 S
C467   C1276   1.435   .     S
C469   C488    1.390   .     A
C470   C484    1.513   .     S
C470   H499    1.109   .     S
C470   H498    1.099   .     S
C470   C471    1.536   .     S
C471   C472    1.531   .     S
C471   H496    1.111   .     S
C471   H497    1.103   .     S
C472   H494    1.108   .     S
C472   H493    1.110   .     S
C472   H495    1.110   .     S
C473   O538    1.314   .     A
C473   O535    1.306   .     A
C474   C475    1.544   .     S
C474   C485    1.526   .     S
C474   H507    1.107   .     S
C474   H506    1.099   .     S
C475   H504    1.111   .     S
C475   C476    1.529   .     S
C475   H505    1.105   .     S
C476   H502    1.107   .     S
C476   H503    1.111   .     S
C476   H501    1.111   .     S
C477   H515    1.106   .     S
C477   C486    1.521   .     S
C477   H514    1.096   .     S
C477   C478    1.545   .     S
C478   C479    1.528   .     S
C478   H513    1.105   .     S
C478   H512    1.112   .     S
C479   H509    1.108   .     S
C479   H510    1.111   .     S
C479   H508    1.111   .     S
C480   H521    1.102   .     S
C480   C481    1.543   .     S
C480   H523    1.107   .     S
C480   C487    1.531   .     S
C481   H520    1.105   .     S
C481   C482    1.527   .     S
C481   H519    1.111   .     S
C482   H518    1.111   .     S
C482   H517    1.107   .     S
C482   H516    1.111   .     S
C483   O536    1.315   .     A
C483   O537    1.306   .     A
C484   N530    1.386   .     A
C485   N529    1.386   .     A
C485   C756    1.439   .     S
C486   N530    1.389   .     A
C487   N529    1.385   .     A
C487   C754    1.434   .     S
C488   H528    1.085   .     S
N529   Zn539   2.065   .     S
N530   Zn540   2.065   .     S
O531   Zn539   1.994   .     S
O532   Zn540   1.994   .     S
O533   Zn539   1.975   .     S
O534   Zn540   1.975   .     S
O535   Zn539   1.998   .     S
O536   Zn540   1.998   .     S
O537   Zn539   1.996   .     S
O538   Zn540   1.996   .     S
C541   O624    1.302   .     A
C541   O621    1.302   .     A
C541   C559    1.408   .     S
C542   C558    1.395   .     A
C542   H580    1.084   .     S
C542   C634    1.375   .     S
C543   C558    1.391   .     A
C543   H581    1.069   .     S
C543   C668    1.369   .     S
C544   C559    1.394   .     A
C544   H582    1.078   .     S
C544   C722    1.375   1_455 S
C545   C556    1.396   .     A
C545   C549    1.382   .     A
C545   H579    1.084   .     S
C546   H590    1.084   .     S
C546   C557    1.396   .     A
C546   C550    1.378   .     A
C547   C551    1.382   .     A
C547   H601    1.084   .     S
C547   C557    1.395   .     A
C548   C553    1.378   .     A
C548   C556    1.395   .     A
C548   H612    1.084   .     S
C549   C554    1.402   .     A
C549   H614    1.084   .     S
C550   H615    1.073   .     S
C550   C555    1.396   .     A
C551   H616    1.083   .     S
C551   C555    1.404   .     A
C552   O622    1.307   .     A
C552   O623    1.299   .     A
C552   C558    1.413   .     S
C553   H617    1.074   .     S
C553   C554    1.396   .     A
C554   C563    1.439   .     S
C555   C573    1.443   .     S
C556   C1367   1.435   1_554 S
C557   C1366   1.435   .     S
C559   C578    1.390   .     A
C560   C574    1.513   .     S
C560   H589    1.109   .     S
C560   H588    1.099   .     S
C560   C561    1.536   .     S
C561   C562    1.531   .     S
C561   H586    1.111   .     S
C561   H587    1.103   .     S
C562   H584    1.108   .     S
C562   H583    1.110   .     S
C562   H585    1.110   .     S
C563   O628    1.314   .     A
C563   O625    1.306   .     A
C564   C565    1.544   .     S
C564   C575    1.526   .     S
C564   H597    1.107   .     S
C564   H596    1.099   .     S
C565   H594    1.111   .     S
C565   C566    1.529   .     S
C565   H595    1.105   .     S
C566   H592    1.107   .     S
C566   H593    1.111   .     S
C566   H591    1.111   .     S
C567   H605    1.106   .     S
C567   C576    1.521   .     S
C567   H604    1.096   .     S
C567   C568    1.545   .     S
C568   C569    1.528   .     S
C568   H603    1.105   .     S
C568   H602    1.112   .     S
C569   H599    1.108   .     S
C569   H600    1.111   .     S
C569   H598    1.111   .     S
C570   H611    1.102   .     S
C570   C571    1.543   .     S
C570   H613    1.107   .     S
C570   C577    1.531   .     S
C571   H610    1.105   .     S
C571   C572    1.527   .     S
C571   H609    1.111   .     S
C572   H608    1.111   .     S
C572   H607    1.107   .     S
C572   H606    1.111   .     S
C573   O626    1.315   .     A
C573   O627    1.306   .     A
C574   N620    1.386   .     A
C575   N619    1.386   .     A
C575   C36     1.439   1_565 S
C576   N620    1.389   .     A
C577   N619    1.385   .     A
C577   C34     1.434   1_565 S
C578   H618    1.085   .     S
C578   C723    1.369   1_455 S
N619   Zn629   2.065   .     S
N620   Zn630   2.065   .     S
O621   Zn629   1.994   .     S
O622   Zn630   1.994   .     S
O623   Zn629   1.975   .     S
O624   Zn630   1.975   .     S
O625   Zn629   1.998   .     S
O626   Zn630   1.998   .     S
O627   Zn629   1.996   .     S
O628   Zn630   1.996   .     S
C631   O714    1.302   .     A
C631   O711    1.302   .     A
C631   C649    1.408   .     S
C632   C648    1.395   .     A
C632   H670    1.084   .     S
C632   C724    1.375   .     S
C633   C648    1.391   .     A
C633   H671    1.069   .     S
C633   C758    1.369   .     S
C634   C649    1.394   .     A
C634   H672    1.078   .     S
C635   C646    1.396   .     A
C635   C639    1.382   .     A
C635   H669    1.084   .     S
C636   H680    1.084   .     S
C636   C647    1.396   .     A
C636   C640    1.378   .     A
C637   C641    1.382   .     A
C637   H691    1.084   .     S
C637   C647    1.395   .     A
C638   C643    1.378   .     A
C638   C646    1.395   .     A
C638   H702    1.084   .     S
C639   C644    1.402   .     A
C639   H704    1.084   .     S
C640   H705    1.073   .     S
C640   C645    1.396   .     A
C641   H706    1.083   .     S
C641   C645    1.404   .     A
C642   O712    1.307   .     A
C642   O713    1.299   .     A
C642   C648    1.413   .     S
C643   H707    1.074   .     S
C643   C644    1.396   .     A
C644   C653    1.439   .     S
C645   C663    1.443   .     S
C646   C1457   1.435   1_554 S
C647   C1456   1.435   .     S
C649   C668    1.390   .     A
C650   C664    1.513   .     S
C650   H679    1.109   .     S
C650   H678    1.099   .     S
C650   C651    1.536   .     S
C651   C652    1.531   .     S
C651   H676    1.111   .     S
C651   H677    1.103   .     S
C652   H674    1.108   .     S
C652   H673    1.110   .     S
C652   H675    1.110   .     S
C653   O718    1.314   .     A
C653   O715    1.306   .     A
C654   C655    1.544   .     S
C654   C665    1.526   .     S
C654   H687    1.107   .     S
C654   H686    1.099   .     S
C655   H684    1.111   .     S
C655   C656    1.529   .     S
C655   H685    1.105   .     S
C656   H682    1.107   .     S
C656   H683    1.111   .     S
C656   H681    1.111   .     S
C657   H695    1.106   .     S
C657   C666    1.521   .     S
C657   H694    1.096   .     S
C657   C658    1.545   .     S
C658   C659    1.528   .     S
C658   H693    1.105   .     S
C658   H692    1.112   .     S
C659   H689    1.108   .     S
C659   H690    1.111   .     S
C659   H688    1.111   .     S
C660   H701    1.102   .     S
C660   C661    1.543   .     S
C660   H703    1.107   .     S
C660   C667    1.531   .     S
C661   H700    1.105   .     S
C661   C662    1.527   .     S
C661   H699    1.111   .     S
C662   H698    1.111   .     S
C662   H697    1.107   .     S
C662   H696    1.111   .     S
C663   O716    1.315   .     A
C663   O717    1.306   .     A
C664   N710    1.386   .     A
C665   N709    1.386   .     A
C665   C126    1.439   1_565 S
C666   N710    1.389   .     A
C667   N709    1.385   .     A
C667   C124    1.434   1_565 S
C668   H708    1.085   .     S
N709   Zn719   2.065   .     S
N710   Zn720   2.065   .     S
O711   Zn719   1.994   .     S
O712   Zn720   1.994   .     S
O713   Zn719   1.975   .     S
O714   Zn720   1.975   .     S
O715   Zn719   1.998   .     S
O716   Zn720   1.998   .     S
O717   Zn719   1.996   .     S
O718   Zn720   1.996   .     S
C721   O804    1.302   .     A
C721   O801    1.302   .     A
C721   C739    1.408   .     S
C722   C738    1.395   .     A
C722   H760    1.084   .     S
C722   C544    1.375   1_655 S
C723   C738    1.391   .     A
C723   H761    1.069   .     S
C723   C578    1.369   1_655 S
C724   C739    1.394   .     A
C724   H762    1.078   .     S
C725   C736    1.396   .     A
C725   C729    1.382   .     A
C725   H759    1.084   .     S
C726   H770    1.084   .     S
C726   C737    1.396   .     A
C726   C730    1.378   .     A
C727   C731    1.382   .     A
C727   H781    1.084   .     S
C727   C737    1.395   .     A
C728   C733    1.378   .     A
C728   C736    1.395   .     A
C728   H792    1.084   .     S
C729   C734    1.402   .     A
C729   H794    1.084   .     S
C730   H795    1.073   .     S
C730   C735    1.396   .     A
C731   H796    1.083   .     S
C731   C735    1.404   .     A
C732   O802    1.307   .     A
C732   O803    1.299   .     A
C732   C738    1.413   .     S
C733   H797    1.074   .     S
C733   C734    1.396   .     A
C734   C743    1.439   .     S
C735   C753    1.443   .     S
C736   C1547   1.435   1_554 S
C737   C1546   1.435   .     S
C739   C758    1.390   .     A
C740   C754    1.513   .     S
C740   H769    1.109   .     S
C740   H768    1.099   .     S
C740   C741    1.536   .     S
C741   C742    1.531   .     S
C741   H766    1.111   .     S
C741   H767    1.103   .     S
C742   H764    1.108   .     S
C742   H763    1.110   .     S
C742   H765    1.110   .     S
C743   O808    1.314   .     A
C743   O805    1.306   .     A
C744   C745    1.544   .     S
C744   C755    1.526   .     S
C744   H777    1.107   .     S
C744   H776    1.099   .     S
C745   H774    1.111   .     S
C745   C746    1.529   .     S
C745   H775    1.105   .     S
C746   H772    1.107   .     S
C746   H773    1.111   .     S
C746   H771    1.111   .     S
C747   H785    1.106   .     S
C747   C756    1.521   .     S
C747   H784    1.096   .     S
C747   C748    1.545   .     S
C748   C749    1.528   .     S
C748   H783    1.105   .     S
C748   H782    1.112   .     S
C749   H779    1.108   .     S
C749   H780    1.111   .     S
C749   H778    1.111   .     S
C750   H791    1.102   .     S
C750   C751    1.543   .     S
C750   H793    1.107   .     S
C750   C757    1.531   .     S
C751   H790    1.105   .     S
C751   C752    1.527   .     S
C751   H789    1.111   .     S
C752   H788    1.111   .     S
C752   H787    1.107   .     S
C752   H786    1.111   .     S
C753   O806    1.315   .     A
C753   O807    1.306   .     A
C754   N800    1.386   .     A
C755   N799    1.386   .     A
C755   C216    1.439   1_565 S
C756   N800    1.389   .     A
C757   N799    1.385   .     A
C757   C214    1.434   1_565 S
C758   H798    1.085   .     S
N799   Zn809   2.065   .     S
N800   Zn810   2.065   .     S
O801   Zn809   1.994   .     S
O802   Zn810   1.994   .     S
O803   Zn809   1.975   .     S
O804   Zn810   1.975   .     S
O805   Zn809   1.998   .     S
O806   Zn810   1.998   .     S
O807   Zn809   1.996   .     S
O808   Zn810   1.996   .     S
C811   O894    1.302   .     A
C811   O891    1.302   .     A
C811   C829    1.408   .     S
C812   C828    1.395   .     A
C812   H850    1.084   .     S
C812   C904    1.375   .     S
C813   C828    1.391   .     A
C813   H851    1.069   .     S
C813   C938    1.369   .     S
C814   C829    1.394   .     A
C814   H852    1.078   .     S
C814   C992    1.375   1_455 S
C815   C826    1.396   .     A
C815   C819    1.382   .     A
C815   H849    1.084   .     S
C816   H860    1.084   .     S
C816   C827    1.396   .     A
C816   C820    1.378   .     A
C817   C821    1.382   .     A
C817   H871    1.084   .     S
C817   C827    1.395   .     A
C818   C823    1.378   .     A
C818   C826    1.395   .     A
C818   H882    1.084   .     S
C819   C824    1.402   .     A
C819   H884    1.084   .     S
C820   H885    1.073   .     S
C820   C825    1.396   .     A
C821   H886    1.083   .     S
C821   C825    1.404   .     A
C822   O892    1.307   .     A
C822   O893    1.299   .     A
C822   C828    1.413   .     S
C823   H887    1.074   .     S
C823   C824    1.396   .     A
C824   C833    1.439   .     S
C825   C843    1.443   .     S
C827   C16     1.435   1_556 S
C829   C848    1.390   .     A
C830   C844    1.513   .     S
C830   H859    1.109   .     S
C830   H858    1.099   .     S
C830   C831    1.536   .     S
C831   C832    1.531   .     S
C831   H856    1.111   .     S
C831   H857    1.103   .     S
C832   H854    1.108   .     S
C832   H853    1.110   .     S
C832   H855    1.110   .     S
C833   O898    1.314   .     A
C833   O895    1.306   .     A
C834   C835    1.544   .     S
C834   C845    1.526   .     S
C834   H867    1.107   .     S
C834   H866    1.099   .     S
C835   H864    1.111   .     S
C835   C836    1.529   .     S
C835   H865    1.105   .     S
C836   H862    1.107   .     S
C836   H863    1.111   .     S
C836   H861    1.111   .     S
C837   H875    1.106   .     S
C837   C846    1.521   .     S
C837   H874    1.096   .     S
C837   C838    1.545   .     S
C838   C839    1.528   .     S
C838   H873    1.105   .     S
C838   H872    1.112   .     S
C839   H869    1.108   .     S
C839   H870    1.111   .     S
C839   H868    1.111   .     S
C840   H881    1.102   .     S
C840   C841    1.543   .     S
C840   H883    1.107   .     S
C840   C847    1.531   .     S
C841   H880    1.105   .     S
C841   C842    1.527   .     S
C841   H879    1.111   .     S
C842   H878    1.111   .     S
C842   H877    1.107   .     S
C842   H876    1.111   .     S
C843   O896    1.315   .     A
C843   O897    1.306   .     A
C844   N890    1.386   .     A
C844   C1387   1.434   1_545 S
C845   N889    1.386   .     A
C845   C1116   1.439   .     S
C846   N890    1.389   .     A
C846   C1385   1.439   1_545 S
C847   N889    1.385   .     A
C847   C1114   1.434   .     S
C848   H888    1.085   .     S
C848   C993    1.369   1_455 S
N889   Zn899   2.065   .     S
N890   Zn900   2.065   .     S
O891   Zn899   1.994   .     S
O892   Zn900   1.994   .     S
O893   Zn899   1.975   .     S
O894   Zn900   1.975   .     S
O895   Zn899   1.998   .     S
O896   Zn900   1.998   .     S
O897   Zn899   1.996   .     S
O898   Zn900   1.996   .     S
C901   O984    1.302   .     A
C901   O981    1.302   .     A
C901   C919    1.408   .     S
C902   C918    1.395   .     A
C902   H940    1.084   .     S
C902   C994    1.375   .     S
C903   C918    1.391   .     A
C903   H941    1.069   .     S
C903   C1028   1.369   .     S
C904   C919    1.394   .     A
C904   H942    1.078   .     S
C905   C916    1.396   .     A
C905   C909    1.382   .     A
C905   H939    1.084   .     S
C906   H950    1.084   .     S
C906   C917    1.396   .     A
C906   C910    1.378   .     A
C907   C911    1.382   .     A
C907   H961    1.084   .     S
C907   C917    1.395   .     A
C908   C913    1.378   .     A
C908   C916    1.395   .     A
C908   H972    1.084   .     S
C909   C914    1.402   .     A
C909   H974    1.084   .     S
C910   H975    1.073   .     S
C910   C915    1.396   .     A
C911   H976    1.083   .     S
C911   C915    1.404   .     A
C912   O982    1.307   .     A
C912   O983    1.299   .     A
C912   C918    1.413   .     S
C913   H977    1.074   .     S
C913   C914    1.396   .     A
C914   C923    1.439   .     S
C915   C933    1.443   .     S
C917   C106    1.435   1_556 S
C919   C938    1.390   .     A
C920   C934    1.513   .     S
C920   H949    1.109   .     S
C920   H948    1.099   .     S
C920   C921    1.536   .     S
C921   C922    1.531   .     S
C921   H946    1.111   .     S
C921   H947    1.103   .     S
C922   H944    1.108   .     S
C922   H943    1.110   .     S
C922   H945    1.110   .     S
C923   O988    1.314   .     A
C923   O985    1.306   .     A
C924   C925    1.544   .     S
C924   C935    1.526   .     S
C924   H957    1.107   .     S
C924   H956    1.099   .     S
C925   H954    1.111   .     S
C925   C926    1.529   .     S
C925   H955    1.105   .     S
C926   H952    1.107   .     S
C926   H953    1.111   .     S
C926   H951    1.111   .     S
C927   H965    1.106   .     S
C927   C936    1.521   .     S
C927   H964    1.096   .     S
C927   C928    1.545   .     S
C928   C929    1.528   .     S
C928   H963    1.105   .     S
C928   H962    1.112   .     S
C929   H959    1.108   .     S
C929   H960    1.111   .     S
C929   H958    1.111   .     S
C930   H971    1.102   .     S
C930   C931    1.543   .     S
C930   H973    1.107   .     S
C930   C937    1.531   .     S
C931   H970    1.105   .     S
C931   C932    1.527   .     S
C931   H969    1.111   .     S
C932   H968    1.111   .     S
C932   H967    1.107   .     S
C932   H966    1.111   .     S
C933   O986    1.315   .     A
C933   O987    1.306   .     A
C934   N980    1.386   .     A
C934   C1477   1.434   1_545 S
C935   N979    1.386   .     A
C935   C1206   1.439   .     S
C936   N980    1.389   .     A
C936   C1475   1.439   1_545 S
C937   N979    1.385   .     A
C937   C1204   1.434   .     S
C938   H978    1.085   .     S
N979   Zn989   2.065   .     S
N980   Zn990   2.065   .     S
O981   Zn989   1.994   .     S
O982   Zn990   1.994   .     S
O983   Zn989   1.975   .     S
O984   Zn990   1.975   .     S
O985   Zn989   1.998   .     S
O986   Zn990   1.998   .     S
O987   Zn989   1.996   .     S
O988   Zn990   1.996   .     S
C991   O1074   1.302   .     A
C991   O1071   1.302   .     A
C991   C1009   1.408   .     S
C992   C1008   1.395   .     A
C992   H1030   1.084   .     S
C992   C814    1.375   1_655 S
C993   C1008   1.391   .     A
C993   H1031   1.069   .     S
C993   C848    1.369   1_655 S
C994   C1009   1.394   .     A
C994   H1032   1.078   .     S
C995   C1006   1.396   .     A
C995   C999    1.382   .     A
C995   H1029   1.084   .     S
C996   H1040   1.084   .     S
C996   C1007   1.396   .     A
C996   C1000   1.378   .     A
C997   C1001   1.382   .     A
C997   H1051   1.084   .     S
C997   C1007   1.395   .     A
C998   C1003   1.378   .     A
C998   C1006   1.395   .     A
C998   H1062   1.084   .     S
C999   C1004   1.402   .     A
C999   H1064   1.084   .     S
C1000  H1065   1.073   .     S
C1000  C1005   1.396   .     A
C1001  H1066   1.083   .     S
C1001  C1005   1.404   .     A
C1002  O1072   1.307   .     A
C1002  O1073   1.299   .     A
C1002  C1008   1.413   .     S
C1003  H1067   1.074   .     S
C1003  C1004   1.396   .     A
C1004  C1013   1.439   .     S
C1005  C1023   1.443   .     S
C1007  C196    1.435   1_556 S
C1009  C1028   1.390   .     A
C1010  C1024   1.513   .     S
C1010  H1039   1.109   .     S
C1010  H1038   1.099   .     S
C1010  C1011   1.536   .     S
C1011  C1012   1.531   .     S
C1011  H1036   1.111   .     S
C1011  H1037   1.103   .     S
C1012  H1034   1.108   .     S
C1012  H1033   1.110   .     S
C1012  H1035   1.110   .     S
C1013  O1078   1.314   .     A
C1013  O1075   1.306   .     A
C1014  C1015   1.544   .     S
C1014  C1025   1.526   .     S
C1014  H1047   1.107   .     S
C1014  H1046   1.099   .     S
C1015  H1044   1.111   .     S
C1015  C1016   1.529   .     S
C1015  H1045   1.105   .     S
C1016  H1042   1.107   .     S
C1016  H1043   1.111   .     S
C1016  H1041   1.111   .     S
C1017  H1055   1.106   .     S
C1017  C1026   1.521   .     S
C1017  H1054   1.096   .     S
C1017  C1018   1.545   .     S
C1018  C1019   1.528   .     S
C1018  H1053   1.105   .     S
C1018  H1052   1.112   .     S
C1019  H1049   1.108   .     S
C1019  H1050   1.111   .     S
C1019  H1048   1.111   .     S
C1020  H1061   1.102   .     S
C1020  C1021   1.543   .     S
C1020  H1063   1.107   .     S
C1020  C1027   1.531   .     S
C1021  H1060   1.105   .     S
C1021  C1022   1.527   .     S
C1021  H1059   1.111   .     S
C1022  H1058   1.111   .     S
C1022  H1057   1.107   .     S
C1022  H1056   1.111   .     S
C1023  O1076   1.315   .     A
C1023  O1077   1.306   .     A
C1024  N1070   1.386   .     A
C1024  C1567   1.434   1_545 S
C1025  N1069   1.386   .     A
C1025  C1296   1.439   .     S
C1026  N1070   1.389   .     A
C1026  C1565   1.439   1_545 S
C1027  N1069   1.385   .     A
C1027  C1294   1.434   .     S
C1028  H1068   1.085   .     S
N1069  Zn1079  2.065   .     S
N1070  Zn1080  2.065   .     S
O1071  Zn1079  1.994   .     S
O1072  Zn1080  1.994   .     S
O1073  Zn1079  1.975   .     S
O1074  Zn1080  1.975   .     S
O1075  Zn1079  1.998   .     S
O1076  Zn1080  1.998   .     S
O1077  Zn1079  1.996   .     S
O1078  Zn1080  1.996   .     S
C1081  O1164   1.302   .     A
C1081  O1161   1.302   .     A
C1081  C1099   1.408   .     S
C1082  C1098   1.395   .     A
C1082  H1120   1.084   .     S
C1082  C1174   1.375   .     S
C1083  C1098   1.391   .     A
C1083  H1121   1.069   .     S
C1083  C1208   1.369   .     S
C1084  C1099   1.394   .     A
C1084  H1122   1.078   .     S
C1084  C1262   1.375   1_455 S
C1085  C1096   1.396   .     A
C1085  C1089   1.382   .     A
C1085  H1119   1.084   .     S
C1086  H1130   1.084   .     S
C1086  C1097   1.396   .     A
C1086  C1090   1.378   .     A
C1087  C1091   1.382   .     A
C1087  H1141   1.084   .     S
C1087  C1097   1.395   .     A
C1088  C1093   1.378   .     A
C1088  C1096   1.395   .     A
C1088  H1152   1.084   .     S
C1089  C1094   1.402   .     A
C1089  H1154   1.084   .     S
C1090  H1155   1.073   .     S
C1090  C1095   1.396   .     A
C1091  H1156   1.083   .     S
C1091  C1095   1.404   .     A
C1092  O1162   1.307   .     A
C1092  O1163   1.299   .     A
C1092  C1098   1.413   .     S
C1093  H1157   1.074   .     S
C1093  C1094   1.396   .     A
C1094  C1103   1.439   .     S
C1095  C1113   1.443   .     S
C1097  C286    1.435   1_556 S
C1099  C1118   1.390   .     A
C1100  C1114   1.513   .     S
C1100  H1129   1.109   .     S
C1100  H1128   1.099   .     S
C1100  C1101   1.536   .     S
C1101  C1102   1.531   .     S
C1101  H1126   1.111   .     S
C1101  H1127   1.103   .     S
C1102  H1124   1.108   .     S
C1102  H1123   1.110   .     S
C1102  H1125   1.110   .     S
C1103  O1168   1.314   .     A
C1103  O1165   1.306   .     A
C1104  C1105   1.544   .     S
C1104  C1115   1.526   .     S
C1104  H1137   1.107   .     S
C1104  H1136   1.099   .     S
C1105  H1134   1.111   .     S
C1105  C1106   1.529   .     S
C1105  H1135   1.105   .     S
C1106  H1132   1.107   .     S
C1106  H1133   1.111   .     S
C1106  H1131   1.111   .     S
C1107  H1145   1.106   .     S
C1107  C1116   1.521   .     S
C1107  H1144   1.096   .     S
C1107  C1108   1.545   .     S
C1108  C1109   1.528   .     S
C1108  H1143   1.105   .     S
C1108  H1142   1.112   .     S
C1109  H1139   1.108   .     S
C1109  H1140   1.111   .     S
C1109  H1138   1.111   .     S
C1110  H1151   1.102   .     S
C1110  C1111   1.543   .     S
C1110  H1153   1.107   .     S
C1110  C1117   1.531   .     S
C1111  H1150   1.105   .     S
C1111  C1112   1.527   .     S
C1111  H1149   1.111   .     S
C1112  H1148   1.111   .     S
C1112  H1147   1.107   .     S
C1112  H1146   1.111   .     S
C1113  O1166   1.315   .     A
C1113  O1167   1.306   .     A
C1114  N1160   1.386   .     A
C1115  N1159   1.386   .     A
C1115  C1386   1.439   .     S
C1116  N1160   1.389   .     A
C1117  N1159   1.385   .     A
C1117  C1384   1.434   .     S
C1118  H1158   1.085   .     S
C1118  C1263   1.369   1_455 S
N1159  Zn1169  2.065   .     S
N1160  Zn1170  2.065   .     S
O1161  Zn1169  1.994   .     S
O1162  Zn1170  1.994   .     S
O1163  Zn1169  1.975   .     S
O1164  Zn1170  1.975   .     S
O1165  Zn1169  1.998   .     S
O1166  Zn1170  1.998   .     S
O1167  Zn1169  1.996   .     S
O1168  Zn1170  1.996   .     S
C1171  O1254   1.302   .     A
C1171  O1251   1.302   .     A
C1171  C1189   1.408   .     S
C1172  C1188   1.395   .     A
C1172  H1210   1.084   .     S
C1172  C1264   1.375   .     S
C1173  C1188   1.391   .     A
C1173  H1211   1.069   .     S
C1173  C1298   1.369   .     S
C1174  C1189   1.394   .     A
C1174  H1212   1.078   .     S
C1175  C1186   1.396   .     A
C1175  C1179   1.382   .     A
C1175  H1209   1.084   .     S
C1176  H1220   1.084   .     S
C1176  C1187   1.396   .     A
C1176  C1180   1.378   .     A
C1177  C1181   1.382   .     A
C1177  H1231   1.084   .     S
C1177  C1187   1.395   .     A
C1178  C1183   1.378   .     A
C1178  C1186   1.395   .     A
C1178  H1242   1.084   .     S
C1179  C1184   1.402   .     A
C1179  H1244   1.084   .     S
C1180  H1245   1.073   .     S
C1180  C1185   1.396   .     A
C1181  H1246   1.083   .     S
C1181  C1185   1.404   .     A
C1182  O1252   1.307   .     A
C1182  O1253   1.299   .     A
C1182  C1188   1.413   .     S
C1183  H1247   1.074   .     S
C1183  C1184   1.396   .     A
C1184  C1193   1.439   .     S
C1185  C1203   1.443   .     S
C1187  C376    1.435   1_556 S
C1189  C1208   1.390   .     A
C1190  C1204   1.513   .     S
C1190  H1219   1.109   .     S
C1190  H1218   1.099   .     S
C1190  C1191   1.536   .     S
C1191  C1192   1.531   .     S
C1191  H1216   1.111   .     S
C1191  H1217   1.103   .     S
C1192  H1214   1.108   .     S
C1192  H1213   1.110   .     S
C1192  H1215   1.110   .     S
C1193  O1258   1.314   .     A
C1193  O1255   1.306   .     A
C1194  C1195   1.544   .     S
C1194  C1205   1.526   .     S
C1194  H1227   1.107   .     S
C1194  H1226   1.099   .     S
C1195  H1224   1.111   .     S
C1195  C1196   1.529   .     S
C1195  H1225   1.105   .     S
C1196  H1222   1.107   .     S
C1196  H1223   1.111   .     S
C1196  H1221   1.111   .     S
C1197  H1235   1.106   .     S
C1197  C1206   1.521   .     S
C1197  H1234   1.096   .     S
C1197  C1198   1.545   .     S
C1198  C1199   1.528   .     S
C1198  H1233   1.105   .     S
C1198  H1232   1.112   .     S
C1199  H1229   1.108   .     S
C1199  H1230   1.111   .     S
C1199  H1228   1.111   .     S
C1200  H1241   1.102   .     S
C1200  C1201   1.543   .     S
C1200  H1243   1.107   .     S
C1200  C1207   1.531   .     S
C1201  H1240   1.105   .     S
C1201  C1202   1.527   .     S
C1201  H1239   1.111   .     S
C1202  H1238   1.111   .     S
C1202  H1237   1.107   .     S
C1202  H1236   1.111   .     S
C1203  O1256   1.315   .     A
C1203  O1257   1.306   .     A
C1204  N1250   1.386   .     A
C1205  N1249   1.386   .     A
C1205  C1476   1.439   .     S
C1206  N1250   1.389   .     A
C1207  N1249   1.385   .     A
C1207  C1474   1.434   .     S
C1208  H1248   1.085   .     S
N1249  Zn1259  2.065   .     S
N1250  Zn1260  2.065   .     S
O1251  Zn1259  1.994   .     S
O1252  Zn1260  1.994   .     S
O1253  Zn1259  1.975   .     S
O1254  Zn1260  1.975   .     S
O1255  Zn1259  1.998   .     S
O1256  Zn1260  1.998   .     S
O1257  Zn1259  1.996   .     S
O1258  Zn1260  1.996   .     S
C1261  O1344   1.302   .     A
C1261  O1341   1.302   .     A
C1261  C1279   1.408   .     S
C1262  C1278   1.395   .     A
C1262  H1300   1.084   .     S
C1262  C1084   1.375   1_655 S
C1263  C1278   1.391   .     A
C1263  H1301   1.069   .     S
C1263  C1118   1.369   1_655 S
C1264  C1279   1.394   .     A
C1264  H1302   1.078   .     S
C1265  C1276   1.396   .     A
C1265  C1269   1.382   .     A
C1265  H1299   1.084   .     S
C1266  H1310   1.084   .     S
C1266  C1277   1.396   .     A
C1266  C1270   1.378   .     A
C1267  C1271   1.382   .     A
C1267  H1321   1.084   .     S
C1267  C1277   1.395   .     A
C1268  C1273   1.378   .     A
C1268  C1276   1.395   .     A
C1268  H1332   1.084   .     S
C1269  C1274   1.402   .     A
C1269  H1334   1.084   .     S
C1270  H1335   1.073   .     S
C1270  C1275   1.396   .     A
C1271  H1336   1.083   .     S
C1271  C1275   1.404   .     A
C1272  O1342   1.307   .     A
C1272  O1343   1.299   .     A
C1272  C1278   1.413   .     S
C1273  H1337   1.074   .     S
C1273  C1274   1.396   .     A
C1274  C1283   1.439   .     S
C1275  C1293   1.443   .     S
C1277  C466    1.435   1_556 S
C1279  C1298   1.390   .     A
C1280  C1294   1.513   .     S
C1280  H1309   1.109   .     S
C1280  H1308   1.099   .     S
C1280  C1281   1.536   .     S
C1281  C1282   1.531   .     S
C1281  H1306   1.111   .     S
C1281  H1307   1.103   .     S
C1282  H1304   1.108   .     S
C1282  H1303   1.110   .     S
C1282  H1305   1.110   .     S
C1283  O1348   1.314   .     A
C1283  O1345   1.306   .     A
C1284  C1285   1.544   .     S
C1284  C1295   1.526   .     S
C1284  H1317   1.107   .     S
C1284  H1316   1.099   .     S
C1285  H1314   1.111   .     S
C1285  C1286   1.529   .     S
C1285  H1315   1.105   .     S
C1286  H1312   1.107   .     S
C1286  H1313   1.111   .     S
C1286  H1311   1.111   .     S
C1287  H1325   1.106   .     S
C1287  C1296   1.521   .     S
C1287  H1324   1.096   .     S
C1287  C1288   1.545   .     S
C1288  C1289   1.528   .     S
C1288  H1323   1.105   .     S
C1288  H1322   1.112   .     S
C1289  H1319   1.108   .     S
C1289  H1320   1.111   .     S
C1289  H1318   1.111   .     S
C1290  H1331   1.102   .     S
C1290  C1291   1.543   .     S
C1290  H1333   1.107   .     S
C1290  C1297   1.531   .     S
C1291  H1330   1.105   .     S
C1291  C1292   1.527   .     S
C1291  H1329   1.111   .     S
C1292  H1328   1.111   .     S
C1292  H1327   1.107   .     S
C1292  H1326   1.111   .     S
C1293  O1346   1.315   .     A
C1293  O1347   1.306   .     A
C1294  N1340   1.386   .     A
C1295  N1339   1.386   .     A
C1295  C1566   1.439   .     S
C1296  N1340   1.389   .     A
C1297  N1339   1.385   .     A
C1297  C1564   1.434   .     S
C1298  H1338   1.085   .     S
N1339  Zn1349  2.065   .     S
N1340  Zn1350  2.065   .     S
O1341  Zn1349  1.994   .     S
O1342  Zn1350  1.994   .     S
O1343  Zn1349  1.975   .     S
O1344  Zn1350  1.975   .     S
O1345  Zn1349  1.998   .     S
O1346  Zn1350  1.998   .     S
O1347  Zn1349  1.996   .     S
O1348  Zn1350  1.996   .     S
C1351  O1434   1.302   .     A
C1351  O1431   1.302   .     A
C1351  C1369   1.408   .     S
C1352  C1368   1.395   .     A
C1352  H1390   1.084   .     S
C1352  C1444   1.375   .     S
C1353  C1368   1.391   .     A
C1353  H1391   1.069   .     S
C1353  C1478   1.369   .     S
C1354  C1369   1.394   .     A
C1354  H1392   1.078   .     S
C1354  C1532   1.375   1_455 S
C1355  C1366   1.396   .     A
C1355  C1359   1.382   .     A
C1355  H1389   1.084   .     S
C1356  H1400   1.084   .     S
C1356  C1367   1.396   .     A
C1356  C1360   1.378   .     A
C1357  C1361   1.382   .     A
C1357  H1411   1.084   .     S
C1357  C1367   1.395   .     A
C1358  C1363   1.378   .     A
C1358  C1366   1.395   .     A
C1358  H1422   1.084   .     S
C1359  C1364   1.402   .     A
C1359  H1424   1.084   .     S
C1360  H1425   1.073   .     S
C1360  C1365   1.396   .     A
C1361  H1426   1.083   .     S
C1361  C1365   1.404   .     A
C1362  O1432   1.307   .     A
C1362  O1433   1.299   .     A
C1362  C1368   1.413   .     S
C1363  H1427   1.074   .     S
C1363  C1364   1.396   .     A
C1364  C1373   1.439   .     S
C1365  C1383   1.443   .     S
C1367  C556    1.435   1_556 S
C1369  C1388   1.390   .     A
C1370  C1384   1.513   .     S
C1370  H1399   1.109   .     S
C1370  H1398   1.099   .     S
C1370  C1371   1.536   .     S
C1371  C1372   1.531   .     S
C1371  H1396   1.111   .     S
C1371  H1397   1.103   .     S
C1372  H1394   1.108   .     S
C1372  H1393   1.110   .     S
C1372  H1395   1.110   .     S
C1373  O1438   1.314   .     A
C1373  O1435   1.306   .     A
C1374  C1375   1.544   .     S
C1374  C1385   1.526   .     S
C1374  H1407   1.107   .     S
C1374  H1406   1.099   .     S
C1375  H1404   1.111   .     S
C1375  C1376   1.529   .     S
C1375  H1405   1.105   .     S
C1376  H1402   1.107   .     S
C1376  H1403   1.111   .     S
C1376  H1401   1.111   .     S
C1377  H1415   1.106   .     S
C1377  C1386   1.521   .     S
C1377  H1414   1.096   .     S
C1377  C1378   1.545   .     S
C1378  C1379   1.528   .     S
C1378  H1413   1.105   .     S
C1378  H1412   1.112   .     S
C1379  H1409   1.108   .     S
C1379  H1410   1.111   .     S
C1379  H1408   1.111   .     S
C1380  H1421   1.102   .     S
C1380  C1381   1.543   .     S
C1380  H1423   1.107   .     S
C1380  C1387   1.531   .     S
C1381  H1420   1.105   .     S
C1381  C1382   1.527   .     S
C1381  H1419   1.111   .     S
C1382  H1418   1.111   .     S
C1382  H1417   1.107   .     S
C1382  H1416   1.111   .     S
C1383  O1436   1.315   .     A
C1383  O1437   1.306   .     A
C1384  N1430   1.386   .     A
C1385  N1429   1.386   .     A
C1385  C846    1.439   1_565 S
C1386  N1430   1.389   .     A
C1387  N1429   1.385   .     A
C1387  C844    1.434   1_565 S
C1388  H1428   1.085   .     S
C1388  C1533   1.369   1_455 S
N1429  Zn1439  2.065   .     S
N1430  Zn1440  2.065   .     S
O1431  Zn1439  1.994   .     S
O1432  Zn1440  1.994   .     S
O1433  Zn1439  1.975   .     S
O1434  Zn1440  1.975   .     S
O1435  Zn1439  1.998   .     S
O1436  Zn1440  1.998   .     S
O1437  Zn1439  1.996   .     S
O1438  Zn1440  1.996   .     S
C1441  O1524   1.302   .     A
C1441  O1521   1.302   .     A
C1441  C1459   1.408   .     S
C1442  C1458   1.395   .     A
C1442  H1480   1.084   .     S
C1442  C1534   1.375   .     S
C1443  C1458   1.391   .     A
C1443  H1481   1.069   .     S
C1443  C1568   1.369   .     S
C1444  C1459   1.394   .     A
C1444  H1482   1.078   .     S
C1445  C1456   1.396   .     A
C1445  C1449   1.382   .     A
C1445  H1479   1.084   .     S
C1446  H1490   1.084   .     S
C1446  C1457   1.396   .     A
C1446  C1450   1.378   .     A
C1447  C1451   1.382   .     A
C1447  H1501   1.084   .     S
C1447  C1457   1.395   .     A
C1448  C1453   1.378   .     A
C1448  C1456   1.395   .     A
C1448  H1512   1.084   .     S
C1449  C1454   1.402   .     A
C1449  H1514   1.084   .     S
C1450  H1515   1.073   .     S
C1450  C1455   1.396   .     A
C1451  H1516   1.083   .     S
C1451  C1455   1.404   .     A
C1452  O1522   1.307   .     A
C1452  O1523   1.299   .     A
C1452  C1458   1.413   .     S
C1453  H1517   1.074   .     S
C1453  C1454   1.396   .     A
C1454  C1463   1.439   .     S
C1455  C1473   1.443   .     S
C1457  C646    1.435   1_556 S
C1459  C1478   1.390   .     A
C1460  C1474   1.513   .     S
C1460  H1489   1.109   .     S
C1460  H1488   1.099   .     S
C1460  C1461   1.536   .     S
C1461  C1462   1.531   .     S
C1461  H1486   1.111   .     S
C1461  H1487   1.103   .     S
C1462  H1484   1.108   .     S
C1462  H1483   1.110   .     S
C1462  H1485   1.110   .     S
C1463  O1528   1.314   .     A
C1463  O1525   1.306   .     A
C1464  C1465   1.544   .     S
C1464  C1475   1.526   .     S
C1464  H1497   1.107   .     S
C1464  H1496   1.099   .     S
C1465  H1494   1.111   .     S
C1465  C1466   1.529   .     S
C1465  H1495   1.105   .     S
C1466  H1492   1.107   .     S
C1466  H1493   1.111   .     S
C1466  H1491   1.111   .     S
C1467  H1505   1.106   .     S
C1467  C1476   1.521   .     S
C1467  H1504   1.096   .     S
C1467  C1468   1.545   .     S
C1468  C1469   1.528   .     S
C1468  H1503   1.105   .     S
C1468  H1502   1.112   .     S
C1469  H1499   1.108   .     S
C1469  H1500   1.111   .     S
C1469  H1498   1.111   .     S
C1470  H1511   1.102   .     S
C1470  C1471   1.543   .     S
C1470  H1513   1.107   .     S
C1470  C1477   1.531   .     S
C1471  H1510   1.105   .     S
C1471  C1472   1.527   .     S
C1471  H1509   1.111   .     S
C1472  H1508   1.111   .     S
C1472  H1507   1.107   .     S
C1472  H1506   1.111   .     S
C1473  O1526   1.315   .     A
C1473  O1527   1.306   .     A
C1474  N1520   1.386   .     A
C1475  N1519   1.386   .     A
C1475  C936    1.439   1_565 S
C1476  N1520   1.389   .     A
C1477  N1519   1.385   .     A
C1477  C934    1.434   1_565 S
C1478  H1518   1.085   .     S
N1519  Zn1529  2.065   .     S
N1520  Zn1530  2.065   .     S
O1521  Zn1529  1.994   .     S
O1522  Zn1530  1.994   .     S
O1523  Zn1529  1.975   .     S
O1524  Zn1530  1.975   .     S
O1525  Zn1529  1.998   .     S
O1526  Zn1530  1.998   .     S
O1527  Zn1529  1.996   .     S
O1528  Zn1530  1.996   .     S
C1531  O1614   1.302   .     A
C1531  O1611   1.302   .     A
C1531  C1549   1.408   .     S
C1532  C1548   1.395   .     A
C1532  H1570   1.084   .     S
C1532  C1354   1.375   1_655 S
C1533  C1548   1.391   .     A
C1533  H1571   1.069   .     S
C1533  C1388   1.369   1_655 S
C1534  C1549   1.394   .     A
C1534  H1572   1.078   .     S
C1535  C1546   1.396   .     A
C1535  C1539   1.382   .     A
C1535  H1569   1.084   .     S
C1536  H1580   1.084   .     S
C1536  C1547   1.396   .     A
C1536  C1540   1.378   .     A
C1537  C1541   1.382   .     A
C1537  H1591   1.084   .     S
C1537  C1547   1.395   .     A
C1538  C1543   1.378   .     A
C1538  C1546   1.395   .     A
C1538  H1602   1.084   .     S
C1539  C1544   1.402   .     A
C1539  H1604   1.084   .     S
C1540  H1605   1.073   .     S
C1540  C1545   1.396   .     A
C1541  H1606   1.083   .     S
C1541  C1545   1.404   .     A
C1542  O1612   1.307   .     A
C1542  O1613   1.299   .     A
C1542  C1548   1.413   .     S
C1543  H1607   1.074   .     S
C1543  C1544   1.396   .     A
C1544  C1553   1.439   .     S
C1545  C1563   1.443   .     S
C1547  C736    1.435   1_556 S
C1549  C1568   1.390   .     A
C1550  C1564   1.513   .     S
C1550  H1579   1.109   .     S
C1550  H1578   1.099   .     S
C1550  C1551   1.536   .     S
C1551  C1552   1.531   .     S
C1551  H1576   1.111   .     S
C1551  H1577   1.103   .     S
C1552  H1574   1.108   .     S
C1552  H1573   1.110   .     S
C1552  H1575   1.110   .     S
C1553  O1618   1.314   .     A
C1553  O1615   1.306   .     A
C1554  C1555   1.544   .     S
C1554  C1565   1.526   .     S
C1554  H1587   1.107   .     S
C1554  H1586   1.099   .     S
C1555  H1584   1.111   .     S
C1555  C1556   1.529   .     S
C1555  H1585   1.105   .     S
C1556  H1582   1.107   .     S
C1556  H1583   1.111   .     S
C1556  H1581   1.111   .     S
C1557  H1595   1.106   .     S
C1557  C1566   1.521   .     S
C1557  H1594   1.096   .     S
C1557  C1558   1.545   .     S
C1558  C1559   1.528   .     S
C1558  H1593   1.105   .     S
C1558  H1592   1.112   .     S
C1559  H1589   1.108   .     S
C1559  H1590   1.111   .     S
C1559  H1588   1.111   .     S
C1560  H1601   1.102   .     S
C1560  C1561   1.543   .     S
C1560  H1603   1.107   .     S
C1560  C1567   1.531   .     S
C1561  H1600   1.105   .     S
C1561  C1562   1.527   .     S
C1561  H1599   1.111   .     S
C1562  H1598   1.111   .     S
C1562  H1597   1.107   .     S
C1562  H1596   1.111   .     S
C1563  O1616   1.315   .     A
C1563  O1617   1.306   .     A
C1564  N1610   1.386   .     A
C1565  N1609   1.386   .     A
C1565  C1026   1.439   1_565 S
C1566  N1610   1.389   .     A
C1567  N1609   1.385   .     A
C1567  C1024   1.434   1_565 S
C1568  H1608   1.085   .     S
N1609  Zn1619  2.065   .     S
N1610  Zn1620  2.065   .     S
O1611  Zn1619  1.994   .     S
O1612  Zn1620  1.994   .     S
O1613  Zn1619  1.975   .     S
O1614  Zn1620  1.975   .     S
O1615  Zn1619  1.998   .     S
O1616  Zn1620  1.998   .     S
O1617  Zn1619  1.996   .     S
O1618  Zn1620  1.996   .     S
