data_str_m3_o1_o18_pcu_sym.33
_audit_creation_date              2020-01-03
_audit_creation_method            'Materials Studio'
_symmetry_space_group_name_H-M    'P1'
_symmetry_Int_Tables_number       1
_symmetry_cell_setting            triclinic
loop_
_symmetry_equiv_pos_as_xyz
  x,y,z
_cell_length_a                    29.6028
_cell_length_b                    32.1626
_cell_length_c                    31.0574
_cell_angle_alpha                 90.2381
_cell_angle_beta                  67.4408
_cell_angle_gamma                 90.0989
loop_
_atom_site_label
_atom_site_type_symbol
_atom_site_fract_x
_atom_site_fract_y
_atom_site_fract_z
_atom_site_U_iso_or_equiv
_atom_site_adp_type
_atom_site_occupancy
C1     C     0.16668   0.24669   0.25006   0.00000  Uiso   1.00
C2     C     0.12338   0.31199   0.25635   0.00000  Uiso   1.00
C3     C     0.16668   0.04248   0.24985   0.00000  Uiso   1.00
C4     C     0.16669   0.29085   0.25006   0.00000  Uiso   1.00
C5     C     0.32062   0.14030   0.22161   0.00000  Uiso   1.00
C6     C     0.01273   0.19307   0.27834   0.00000  Uiso   1.00
C7     C     0.03533   0.14018   0.22153   0.00000  Uiso   1.00
C8     C     0.29803   0.19320   0.27840   0.00000  Uiso   1.00
C9     C     0.13600   0.16629   0.33804   0.00000  Uiso   1.00
C10    C     0.19732   0.16626   0.16205   0.00000  Uiso   1.00
C11    C     0.11654   0.16501   0.38886   0.00000  Uiso   1.00
C12    C     0.16666   0.08665   0.24991   0.00000  Uiso   1.00
C13    C     0.21634   0.16063   0.11178   0.00000  Uiso   1.00
C14    C     0.05366   0.17966   0.46427   0.00000  Uiso   1.00
C15    C     0.27082   0.12639   0.04199   0.00000  Uiso   1.00
C16    C     0.06836   0.17626   0.41606   0.00000  Uiso   1.00
C17    C     0.25918   0.13822   0.08820   0.00000  Uiso   1.00
C18    C     0.14851   0.15414   0.41010   0.00000  Uiso   1.00
C19    C     0.18595   0.17166   0.08907   0.00000  Uiso   1.00
C20    C     0.13461   0.15651   0.45835   0.00000  Uiso   1.00
C21    C     0.19319   0.15537   0.04520   0.00000  Uiso   1.00
C22    C     0.08702   0.17153   0.48562   0.00000  Uiso   1.00
C23    C     0.10915   0.17387   0.05275   0.00000  Uiso   1.00
C24    C     0.23765   0.13403   0.02032   0.00000  Uiso   1.00
C25    C     0.16842   0.14738   0.47929   0.00000  Uiso   1.00
C26    C     0.15699   0.15946   0.02603   0.00000  Uiso   1.00
C27    C     0.21312   0.12637   0.45500   0.00000  Uiso   1.00
C28    C     0.07442   0.17951   0.03315   0.00000  Uiso   1.00
C29    C     0.24729   0.11964   0.47508   0.00000  Uiso   1.00
C30    C     0.20999   0.31209   0.24367   0.00000  Uiso   1.00
C31    C     0.12338   0.02125   0.25622   0.00000  Uiso   1.00
C32    C     0.21000   0.02134   0.24354   0.00000  Uiso   1.00
H33    H     0.09672   0.17983   0.08967   0.00000  Uiso   1.00
H34    H     0.31029   0.11443   0.41840   0.00000  Uiso   1.00
H35    H     0.15562   0.19193   0.10744   0.00000  Uiso   1.00
H36    H     0.18553   0.14649   0.38784   0.00000  Uiso   1.00
H37    H     0.28243   0.12842   0.10598   0.00000  Uiso   1.00
H38    H     0.04290   0.18424   0.40000   0.00000  Uiso   1.00
H39    H     0.01676   0.19012   0.48443   0.00000  Uiso   1.00
H40    H     0.30450   0.10943   0.02428   0.00000  Uiso   1.00
H41    H     0.24379   0.29595   0.23854   0.00000  Uiso   1.00
H42    H     0.08958   0.03738   0.26134   0.00000  Uiso   1.00
H43    H     0.05784   0.08194   0.19968   0.00000  Uiso   1.00
H44    H     0.22185   0.11295   0.42088   0.00000  Uiso   1.00
H45    H     0.07521   0.11826   0.15725   0.00000  Uiso   1.00
H46    H     0.27561   0.25149   0.30004   0.00000  Uiso   1.00
H47    H     0.25818   0.21530   0.34260   0.00000  Uiso   1.00
H48    H     0.24381   0.03756   0.23833   0.00000  Uiso   1.00
H49    H     0.08956   0.29578   0.26156   0.00000  Uiso   1.00
H50    H     0.31136   0.11928   0.19894   0.00000  Uiso   1.00
H51    H     0.02201   0.21413   0.30096   0.00000  Uiso   1.00
H52    H     0.01246   0.17690   0.09102   0.00000  Uiso   1.00
H53    H     0.03195   0.22530   0.07278   0.00000  Uiso   1.00
H54    H     0.28287   0.06870   0.44009   0.00000  Uiso   1.00
N55    N     0.04759   0.16668   0.25001   0.00000  Uiso   1.00
N56    N     0.28574   0.16666   0.24999   0.00000  Uiso   1.00
N57    N     0.02712   0.19559   0.06144   0.00000  Uiso   1.00
N58    N     0.29187   0.09800   0.44918   0.00000  Uiso   1.00
N59    N     0.07123   0.11222   0.19157   0.00000  Uiso   1.00
N60    N     0.26217   0.22124   0.30825   0.00000  Uiso   1.00
O61    O     0.12846   0.22775   0.25000   0.00000  Uiso   1.00
O62    O     0.20488   0.10558   0.24999   0.00000  Uiso   1.00
O63    O     0.20490   0.22774   0.25000   0.00000  Uiso   1.00
O64    O     0.12843   0.10559   0.25000   0.00000  Uiso   1.00
O65    O     0.10661   0.16667   0.31612   0.00000  Uiso   1.00
O66    O     0.22672   0.16666   0.18387   0.00000  Uiso   1.00
O67    O     0.18305   0.16666   0.31612   0.00000  Uiso   1.00
O68    O     0.15028   0.16667   0.18388   0.00000  Uiso   1.00
Zn69   Zn    0.11562   0.16667   0.25000   0.00000  Uiso   1.00
Zn70   Zn    0.21771   0.16666   0.25000   0.00000  Uiso   1.00
C71    C     0.50001   0.24669   0.25006   0.00000  Uiso   1.00
C72    C     0.45671   0.31199   0.25635   0.00000  Uiso   1.00
C73    C     0.50001   0.04248   0.24985   0.00000  Uiso   1.00
C74    C     0.50002   0.29085   0.25006   0.00000  Uiso   1.00
C75    C     0.65395   0.14030   0.22161   0.00000  Uiso   1.00
C76    C     0.34607   0.19307   0.27834   0.00000  Uiso   1.00
C77    C     0.36866   0.14018   0.22153   0.00000  Uiso   1.00
C78    C     0.63136   0.19320   0.27840   0.00000  Uiso   1.00
C79    C     0.46933   0.16629   0.33804   0.00000  Uiso   1.00
C80    C     0.53065   0.16626   0.16205   0.00000  Uiso   1.00
C81    C     0.44987   0.16501   0.38886   0.00000  Uiso   1.00
C82    C     0.50000   0.08665   0.24991   0.00000  Uiso   1.00
C83    C     0.54968   0.16063   0.11178   0.00000  Uiso   1.00
C84    C     0.38699   0.17966   0.46427   0.00000  Uiso   1.00
C85    C     0.60415   0.12639   0.04199   0.00000  Uiso   1.00
C86    C     0.40169   0.17626   0.41606   0.00000  Uiso   1.00
C87    C     0.59251   0.13822   0.08820   0.00000  Uiso   1.00
C88    C     0.48184   0.15414   0.41010   0.00000  Uiso   1.00
C89    C     0.51928   0.17166   0.08907   0.00000  Uiso   1.00
C90    C     0.46794   0.15651   0.45835   0.00000  Uiso   1.00
C91    C     0.52652   0.15537   0.04520   0.00000  Uiso   1.00
C92    C     0.42035   0.17153   0.48562   0.00000  Uiso   1.00
C93    C     0.44249   0.17387   0.05275   0.00000  Uiso   1.00
C94    C     0.57098   0.13403   0.02032   0.00000  Uiso   1.00
C95    C     0.50175   0.14738   0.47929   0.00000  Uiso   1.00
C96    C     0.49033   0.15946   0.02603   0.00000  Uiso   1.00
C97    C     0.54645   0.12637   0.45500   0.00000  Uiso   1.00
C98    C     0.40776   0.17951   0.03315   0.00000  Uiso   1.00
C99    C     0.58062   0.11964   0.47508   0.00000  Uiso   1.00
C100   C     0.54332   0.31209   0.24367   0.00000  Uiso   1.00
C101   C     0.45671   0.02125   0.25622   0.00000  Uiso   1.00
C102   C     0.54333   0.02134   0.24354   0.00000  Uiso   1.00
H103   H     0.43005   0.17983   0.08967   0.00000  Uiso   1.00
H104   H     0.64362   0.11443   0.41840   0.00000  Uiso   1.00
H105   H     0.48895   0.19193   0.10744   0.00000  Uiso   1.00
H106   H     0.51886   0.14649   0.38784   0.00000  Uiso   1.00
H107   H     0.61577   0.12842   0.10598   0.00000  Uiso   1.00
H108   H     0.37623   0.18424   0.40000   0.00000  Uiso   1.00
H109   H     0.35009   0.19012   0.48443   0.00000  Uiso   1.00
H110   H     0.63783   0.10943   0.02428   0.00000  Uiso   1.00
H111   H     0.57712   0.29595   0.23854   0.00000  Uiso   1.00
H112   H     0.42292   0.03738   0.26134   0.00000  Uiso   1.00
H113   H     0.39117   0.08194   0.19968   0.00000  Uiso   1.00
H114   H     0.55518   0.11295   0.42088   0.00000  Uiso   1.00
H115   H     0.40854   0.11826   0.15725   0.00000  Uiso   1.00
H116   H     0.60894   0.25149   0.30004   0.00000  Uiso   1.00
H117   H     0.59151   0.21530   0.34260   0.00000  Uiso   1.00
H118   H     0.57714   0.03756   0.23833   0.00000  Uiso   1.00
H119   H     0.42290   0.29578   0.26156   0.00000  Uiso   1.00
H120   H     0.64469   0.11928   0.19894   0.00000  Uiso   1.00
H121   H     0.35534   0.21413   0.30096   0.00000  Uiso   1.00
H122   H     0.34580   0.17690   0.09102   0.00000  Uiso   1.00
H123   H     0.36528   0.22530   0.07278   0.00000  Uiso   1.00
H124   H     0.61621   0.06870   0.44009   0.00000  Uiso   1.00
N125   N     0.38093   0.16668   0.25001   0.00000  Uiso   1.00
N126   N     0.61907   0.16666   0.24999   0.00000  Uiso   1.00
N127   N     0.36045   0.19559   0.06144   0.00000  Uiso   1.00
N128   N     0.62520   0.09800   0.44918   0.00000  Uiso   1.00
N129   N     0.40456   0.11222   0.19157   0.00000  Uiso   1.00
N130   N     0.59550   0.22124   0.30825   0.00000  Uiso   1.00
O131   O     0.46179   0.22775   0.25000   0.00000  Uiso   1.00
O132   O     0.53821   0.10558   0.24999   0.00000  Uiso   1.00
O133   O     0.53823   0.22774   0.25000   0.00000  Uiso   1.00
O134   O     0.46177   0.10559   0.25000   0.00000  Uiso   1.00
O135   O     0.43994   0.16667   0.31612   0.00000  Uiso   1.00
O136   O     0.56006   0.16666   0.18387   0.00000  Uiso   1.00
O137   O     0.51639   0.16666   0.31612   0.00000  Uiso   1.00
O138   O     0.48361   0.16667   0.18388   0.00000  Uiso   1.00
Zn139  Zn    0.44896   0.16667   0.25000   0.00000  Uiso   1.00
Zn140  Zn    0.55104   0.16666   0.25000   0.00000  Uiso   1.00
C141   C     0.83335   0.24669   0.25006   0.00000  Uiso   1.00
C142   C     0.79004   0.31199   0.25635   0.00000  Uiso   1.00
C143   C     0.83335   0.04248   0.24985   0.00000  Uiso   1.00
C144   C     0.83335   0.29085   0.25006   0.00000  Uiso   1.00
C145   C     0.98729   0.14030   0.22161   0.00000  Uiso   1.00
C146   C     0.67940   0.19307   0.27834   0.00000  Uiso   1.00
C147   C     0.70200   0.14018   0.22153   0.00000  Uiso   1.00
C148   C     0.96469   0.19320   0.27840   0.00000  Uiso   1.00
C149   C     0.80267   0.16629   0.33804   0.00000  Uiso   1.00
C150   C     0.86398   0.16626   0.16205   0.00000  Uiso   1.00
C151   C     0.78320   0.16501   0.38886   0.00000  Uiso   1.00
C152   C     0.83333   0.08665   0.24991   0.00000  Uiso   1.00
C153   C     0.88301   0.16063   0.11178   0.00000  Uiso   1.00
C154   C     0.72032   0.17966   0.46427   0.00000  Uiso   1.00
C155   C     0.93749   0.12639   0.04199   0.00000  Uiso   1.00
C156   C     0.73503   0.17626   0.41606   0.00000  Uiso   1.00
C157   C     0.92585   0.13822   0.08820   0.00000  Uiso   1.00
C158   C     0.81517   0.15414   0.41010   0.00000  Uiso   1.00
C159   C     0.85262   0.17166   0.08907   0.00000  Uiso   1.00
C160   C     0.80128   0.15651   0.45835   0.00000  Uiso   1.00
C161   C     0.85986   0.15537   0.04520   0.00000  Uiso   1.00
C162   C     0.75368   0.17153   0.48562   0.00000  Uiso   1.00
C163   C     0.77582   0.17387   0.05275   0.00000  Uiso   1.00
C164   C     0.90432   0.13403   0.02032   0.00000  Uiso   1.00
C165   C     0.83509   0.14738   0.47929   0.00000  Uiso   1.00
C166   C     0.82366   0.15946   0.02603   0.00000  Uiso   1.00
C167   C     0.87978   0.12637   0.45500   0.00000  Uiso   1.00
C168   C     0.74109   0.17951   0.03315   0.00000  Uiso   1.00
C169   C     0.91395   0.11964   0.47508   0.00000  Uiso   1.00
C170   C     0.87666   0.31209   0.24367   0.00000  Uiso   1.00
C171   C     0.79005   0.02125   0.25622   0.00000  Uiso   1.00
C172   C     0.87666   0.02134   0.24354   0.00000  Uiso   1.00
H173   H     0.76339   0.17983   0.08967   0.00000  Uiso   1.00
H174   H     0.97696   0.11443   0.41840   0.00000  Uiso   1.00
H175   H     0.82229   0.19193   0.10744   0.00000  Uiso   1.00
H176   H     0.85219   0.14649   0.38784   0.00000  Uiso   1.00
H177   H     0.94910   0.12842   0.10598   0.00000  Uiso   1.00
H178   H     0.70956   0.18424   0.40000   0.00000  Uiso   1.00
H179   H     0.68343   0.19012   0.48443   0.00000  Uiso   1.00
H180   H     0.97117   0.10943   0.02428   0.00000  Uiso   1.00
H181   H     0.91045   0.29595   0.23854   0.00000  Uiso   1.00
H182   H     0.75625   0.03738   0.26134   0.00000  Uiso   1.00
H183   H     0.72451   0.08194   0.19968   0.00000  Uiso   1.00
H184   H     0.88851   0.11295   0.42088   0.00000  Uiso   1.00
H185   H     0.74187   0.11826   0.15725   0.00000  Uiso   1.00
H186   H     0.94227   0.25149   0.30004   0.00000  Uiso   1.00
H187   H     0.92485   0.21530   0.34260   0.00000  Uiso   1.00
H188   H     0.91048   0.03756   0.23833   0.00000  Uiso   1.00
H189   H     0.75623   0.29578   0.26156   0.00000  Uiso   1.00
H190   H     0.97803   0.11928   0.19894   0.00000  Uiso   1.00
H191   H     0.68868   0.21413   0.30096   0.00000  Uiso   1.00
H192   H     0.67913   0.17690   0.09102   0.00000  Uiso   1.00
H193   H     0.69861   0.22530   0.07278   0.00000  Uiso   1.00
H194   H     0.94954   0.06870   0.44009   0.00000  Uiso   1.00
N195   N     0.71426   0.16668   0.25001   0.00000  Uiso   1.00
N196   N     0.95241   0.16666   0.24999   0.00000  Uiso   1.00
N197   N     0.69378   0.19559   0.06144   0.00000  Uiso   1.00
N198   N     0.95853   0.09800   0.44918   0.00000  Uiso   1.00
N199   N     0.73790   0.11222   0.19157   0.00000  Uiso   1.00
N200   N     0.92884   0.22124   0.30825   0.00000  Uiso   1.00
O201   O     0.79512   0.22775   0.25000   0.00000  Uiso   1.00
O202   O     0.87154   0.10558   0.24999   0.00000  Uiso   1.00
O203   O     0.87157   0.22774   0.25000   0.00000  Uiso   1.00
O204   O     0.79510   0.10559   0.25000   0.00000  Uiso   1.00
O205   O     0.77328   0.16667   0.31612   0.00000  Uiso   1.00
O206   O     0.89339   0.16666   0.18387   0.00000  Uiso   1.00
O207   O     0.84972   0.16666   0.31612   0.00000  Uiso   1.00
O208   O     0.81695   0.16667   0.18388   0.00000  Uiso   1.00
Zn209  Zn    0.78229   0.16667   0.25000   0.00000  Uiso   1.00
Zn210  Zn    0.88438   0.16666   0.25000   0.00000  Uiso   1.00
C211   C     0.16668   0.58002   0.25006   0.00000  Uiso   1.00
C212   C     0.12338   0.64533   0.25635   0.00000  Uiso   1.00
C213   C     0.16668   0.37582   0.24985   0.00000  Uiso   1.00
C214   C     0.16669   0.62419   0.25006   0.00000  Uiso   1.00
C215   C     0.32062   0.47363   0.22161   0.00000  Uiso   1.00
C216   C     0.01273   0.52640   0.27834   0.00000  Uiso   1.00
C217   C     0.03533   0.47351   0.22153   0.00000  Uiso   1.00
C218   C     0.29803   0.52654   0.27840   0.00000  Uiso   1.00
C219   C     0.13600   0.49963   0.33804   0.00000  Uiso   1.00
C220   C     0.19732   0.49960   0.16205   0.00000  Uiso   1.00
C221   C     0.11654   0.49834   0.38886   0.00000  Uiso   1.00
C222   C     0.16666   0.41998   0.24991   0.00000  Uiso   1.00
C223   C     0.21634   0.49396   0.11178   0.00000  Uiso   1.00
C224   C     0.05366   0.51299   0.46427   0.00000  Uiso   1.00
C225   C     0.27082   0.45973   0.04199   0.00000  Uiso   1.00
C226   C     0.06836   0.50959   0.41606   0.00000  Uiso   1.00
C227   C     0.25918   0.47155   0.08820   0.00000  Uiso   1.00
C228   C     0.14851   0.48747   0.41010   0.00000  Uiso   1.00
C229   C     0.18595   0.50500   0.08907   0.00000  Uiso   1.00
C230   C     0.13461   0.48984   0.45835   0.00000  Uiso   1.00
C231   C     0.19319   0.48870   0.04520   0.00000  Uiso   1.00
C232   C     0.08702   0.50486   0.48562   0.00000  Uiso   1.00
C233   C     0.10915   0.50720   0.05275   0.00000  Uiso   1.00
C234   C     0.23765   0.46736   0.02032   0.00000  Uiso   1.00
C235   C     0.16842   0.48072   0.47929   0.00000  Uiso   1.00
C236   C     0.15699   0.49279   0.02603   0.00000  Uiso   1.00
C237   C     0.21312   0.45970   0.45500   0.00000  Uiso   1.00
C238   C     0.07442   0.51284   0.03315   0.00000  Uiso   1.00
C239   C     0.24729   0.45297   0.47508   0.00000  Uiso   1.00
C240   C     0.20999   0.64542   0.24367   0.00000  Uiso   1.00
C241   C     0.12338   0.35458   0.25622   0.00000  Uiso   1.00
C242   C     0.21000   0.35468   0.24354   0.00000  Uiso   1.00
H243   H     0.09672   0.51316   0.08967   0.00000  Uiso   1.00
H244   H     0.31029   0.44776   0.41840   0.00000  Uiso   1.00
H245   H     0.15562   0.52526   0.10744   0.00000  Uiso   1.00
H246   H     0.18553   0.47982   0.38784   0.00000  Uiso   1.00
H247   H     0.28243   0.46176   0.10598   0.00000  Uiso   1.00
H248   H     0.04290   0.51758   0.40000   0.00000  Uiso   1.00
H249   H     0.01676   0.52345   0.48443   0.00000  Uiso   1.00
H250   H     0.30450   0.44277   0.02428   0.00000  Uiso   1.00
H251   H     0.24379   0.62929   0.23854   0.00000  Uiso   1.00
H252   H     0.08958   0.37072   0.26134   0.00000  Uiso   1.00
H253   H     0.05784   0.41527   0.19968   0.00000  Uiso   1.00
H254   H     0.22185   0.44629   0.42088   0.00000  Uiso   1.00
H255   H     0.07521   0.45160   0.15725   0.00000  Uiso   1.00
H256   H     0.27561   0.58483   0.30004   0.00000  Uiso   1.00
H257   H     0.25818   0.54863   0.34260   0.00000  Uiso   1.00
H258   H     0.24381   0.37089   0.23833   0.00000  Uiso   1.00
H259   H     0.08956   0.62911   0.26156   0.00000  Uiso   1.00
H260   H     0.31136   0.45261   0.19894   0.00000  Uiso   1.00
H261   H     0.02201   0.54746   0.30096   0.00000  Uiso   1.00
H262   H     0.01246   0.51024   0.09102   0.00000  Uiso   1.00
H263   H     0.03195   0.55864   0.07278   0.00000  Uiso   1.00
H264   H     0.28287   0.40203   0.44009   0.00000  Uiso   1.00
N265   N     0.04759   0.50001   0.25001   0.00000  Uiso   1.00
N266   N     0.28574   0.49999   0.24999   0.00000  Uiso   1.00
N267   N     0.02712   0.52892   0.06144   0.00000  Uiso   1.00
N268   N     0.29187   0.43133   0.44918   0.00000  Uiso   1.00
N269   N     0.07123   0.44555   0.19157   0.00000  Uiso   1.00
N270   N     0.26217   0.55458   0.30825   0.00000  Uiso   1.00
O271   O     0.12846   0.56108   0.25000   0.00000  Uiso   1.00
O272   O     0.20488   0.43892   0.24999   0.00000  Uiso   1.00
O273   O     0.20490   0.56107   0.25000   0.00000  Uiso   1.00
O274   O     0.12843   0.43893   0.25000   0.00000  Uiso   1.00
O275   O     0.10661   0.50001   0.31612   0.00000  Uiso   1.00
O276   O     0.22672   0.49999   0.18387   0.00000  Uiso   1.00
O277   O     0.18305   0.50000   0.31612   0.00000  Uiso   1.00
O278   O     0.15028   0.50000   0.18388   0.00000  Uiso   1.00
Zn279  Zn    0.11562   0.50001   0.25000   0.00000  Uiso   1.00
Zn280  Zn    0.21771   0.49999   0.25000   0.00000  Uiso   1.00
C281   C     0.50001   0.58002   0.25006   0.00000  Uiso   1.00
C282   C     0.45671   0.64533   0.25635   0.00000  Uiso   1.00
C283   C     0.50001   0.37582   0.24985   0.00000  Uiso   1.00
C284   C     0.50002   0.62419   0.25006   0.00000  Uiso   1.00
C285   C     0.65395   0.47363   0.22161   0.00000  Uiso   1.00
C286   C     0.34607   0.52640   0.27834   0.00000  Uiso   1.00
C287   C     0.36866   0.47351   0.22153   0.00000  Uiso   1.00
C288   C     0.63136   0.52654   0.27840   0.00000  Uiso   1.00
C289   C     0.46933   0.49963   0.33804   0.00000  Uiso   1.00
C290   C     0.53065   0.49960   0.16205   0.00000  Uiso   1.00
C291   C     0.44987   0.49834   0.38886   0.00000  Uiso   1.00
C292   C     0.50000   0.41998   0.24991   0.00000  Uiso   1.00
C293   C     0.54968   0.49396   0.11178   0.00000  Uiso   1.00
C294   C     0.38699   0.51299   0.46427   0.00000  Uiso   1.00
C295   C     0.60415   0.45973   0.04199   0.00000  Uiso   1.00
C296   C     0.40169   0.50959   0.41606   0.00000  Uiso   1.00
C297   C     0.59251   0.47155   0.08820   0.00000  Uiso   1.00
C298   C     0.48184   0.48747   0.41010   0.00000  Uiso   1.00
C299   C     0.51928   0.50500   0.08907   0.00000  Uiso   1.00
C300   C     0.46794   0.48984   0.45835   0.00000  Uiso   1.00
C301   C     0.52652   0.48870   0.04520   0.00000  Uiso   1.00
C302   C     0.42035   0.50486   0.48562   0.00000  Uiso   1.00
C303   C     0.44249   0.50720   0.05275   0.00000  Uiso   1.00
C304   C     0.57098   0.46736   0.02032   0.00000  Uiso   1.00
C305   C     0.50175   0.48072   0.47929   0.00000  Uiso   1.00
C306   C     0.49033   0.49279   0.02603   0.00000  Uiso   1.00
C307   C     0.54645   0.45970   0.45500   0.00000  Uiso   1.00
C308   C     0.40776   0.51284   0.03315   0.00000  Uiso   1.00
C309   C     0.58062   0.45297   0.47508   0.00000  Uiso   1.00
C310   C     0.54332   0.64542   0.24367   0.00000  Uiso   1.00
C311   C     0.45671   0.35458   0.25622   0.00000  Uiso   1.00
C312   C     0.54333   0.35468   0.24354   0.00000  Uiso   1.00
H313   H     0.43005   0.51316   0.08967   0.00000  Uiso   1.00
H314   H     0.64362   0.44776   0.41840   0.00000  Uiso   1.00
H315   H     0.48895   0.52526   0.10744   0.00000  Uiso   1.00
H316   H     0.51886   0.47982   0.38784   0.00000  Uiso   1.00
H317   H     0.61577   0.46176   0.10598   0.00000  Uiso   1.00
H318   H     0.37623   0.51758   0.40000   0.00000  Uiso   1.00
H319   H     0.35009   0.52345   0.48443   0.00000  Uiso   1.00
H320   H     0.63783   0.44277   0.02428   0.00000  Uiso   1.00
H321   H     0.57712   0.62929   0.23854   0.00000  Uiso   1.00
H322   H     0.42292   0.37072   0.26134   0.00000  Uiso   1.00
H323   H     0.39117   0.41527   0.19968   0.00000  Uiso   1.00
H324   H     0.55518   0.44629   0.42088   0.00000  Uiso   1.00
H325   H     0.40854   0.45160   0.15725   0.00000  Uiso   1.00
H326   H     0.60894   0.58483   0.30004   0.00000  Uiso   1.00
H327   H     0.59151   0.54863   0.34260   0.00000  Uiso   1.00
H328   H     0.57714   0.37089   0.23833   0.00000  Uiso   1.00
H329   H     0.42290   0.62911   0.26156   0.00000  Uiso   1.00
H330   H     0.64469   0.45261   0.19894   0.00000  Uiso   1.00
H331   H     0.35534   0.54746   0.30096   0.00000  Uiso   1.00
H332   H     0.34580   0.51024   0.09102   0.00000  Uiso   1.00
H333   H     0.36528   0.55864   0.07278   0.00000  Uiso   1.00
H334   H     0.61621   0.40203   0.44009   0.00000  Uiso   1.00
N335   N     0.38093   0.50001   0.25001   0.00000  Uiso   1.00
N336   N     0.61907   0.49999   0.24999   0.00000  Uiso   1.00
N337   N     0.36045   0.52892   0.06144   0.00000  Uiso   1.00
N338   N     0.62520   0.43133   0.44918   0.00000  Uiso   1.00
N339   N     0.40456   0.44555   0.19157   0.00000  Uiso   1.00
N340   N     0.59550   0.55458   0.30825   0.00000  Uiso   1.00
O341   O     0.46179   0.56108   0.25000   0.00000  Uiso   1.00
O342   O     0.53821   0.43892   0.24999   0.00000  Uiso   1.00
O343   O     0.53823   0.56107   0.25000   0.00000  Uiso   1.00
O344   O     0.46177   0.43893   0.25000   0.00000  Uiso   1.00
O345   O     0.43994   0.50001   0.31612   0.00000  Uiso   1.00
O346   O     0.56006   0.49999   0.18387   0.00000  Uiso   1.00
O347   O     0.51639   0.50000   0.31612   0.00000  Uiso   1.00
O348   O     0.48361   0.50000   0.18388   0.00000  Uiso   1.00
Zn349  Zn    0.44896   0.50001   0.25000   0.00000  Uiso   1.00
Zn350  Zn    0.55104   0.49999   0.25000   0.00000  Uiso   1.00
C351   C     0.83335   0.58002   0.25006   0.00000  Uiso   1.00
C352   C     0.79004   0.64533   0.25635   0.00000  Uiso   1.00
C353   C     0.83335   0.37582   0.24985   0.00000  Uiso   1.00
C354   C     0.83335   0.62419   0.25006   0.00000  Uiso   1.00
C355   C     0.98729   0.47363   0.22161   0.00000  Uiso   1.00
C356   C     0.67940   0.52640   0.27834   0.00000  Uiso   1.00
C357   C     0.70200   0.47351   0.22153   0.00000  Uiso   1.00
C358   C     0.96469   0.52654   0.27840   0.00000  Uiso   1.00
C359   C     0.80267   0.49963   0.33804   0.00000  Uiso   1.00
C360   C     0.86398   0.49960   0.16205   0.00000  Uiso   1.00
C361   C     0.78320   0.49834   0.38886   0.00000  Uiso   1.00
C362   C     0.83333   0.41998   0.24991   0.00000  Uiso   1.00
C363   C     0.88301   0.49396   0.11178   0.00000  Uiso   1.00
C364   C     0.72032   0.51299   0.46427   0.00000  Uiso   1.00
C365   C     0.93749   0.45973   0.04199   0.00000  Uiso   1.00
C366   C     0.73503   0.50959   0.41606   0.00000  Uiso   1.00
C367   C     0.92585   0.47155   0.08820   0.00000  Uiso   1.00
C368   C     0.81517   0.48747   0.41010   0.00000  Uiso   1.00
C369   C     0.85262   0.50500   0.08907   0.00000  Uiso   1.00
C370   C     0.80128   0.48984   0.45835   0.00000  Uiso   1.00
C371   C     0.85986   0.48870   0.04520   0.00000  Uiso   1.00
C372   C     0.75368   0.50486   0.48562   0.00000  Uiso   1.00
C373   C     0.77582   0.50720   0.05275   0.00000  Uiso   1.00
C374   C     0.90432   0.46736   0.02032   0.00000  Uiso   1.00
C375   C     0.83509   0.48072   0.47929   0.00000  Uiso   1.00
C376   C     0.82366   0.49279   0.02603   0.00000  Uiso   1.00
C377   C     0.87978   0.45970   0.45500   0.00000  Uiso   1.00
C378   C     0.74109   0.51284   0.03315   0.00000  Uiso   1.00
C379   C     0.91395   0.45297   0.47508   0.00000  Uiso   1.00
C380   C     0.87666   0.64542   0.24367   0.00000  Uiso   1.00
C381   C     0.79005   0.35458   0.25622   0.00000  Uiso   1.00
C382   C     0.87666   0.35468   0.24354   0.00000  Uiso   1.00
H383   H     0.76339   0.51316   0.08967   0.00000  Uiso   1.00
H384   H     0.97696   0.44776   0.41840   0.00000  Uiso   1.00
H385   H     0.82229   0.52526   0.10744   0.00000  Uiso   1.00
H386   H     0.85219   0.47982   0.38784   0.00000  Uiso   1.00
H387   H     0.94910   0.46176   0.10598   0.00000  Uiso   1.00
H388   H     0.70956   0.51758   0.40000   0.00000  Uiso   1.00
H389   H     0.68343   0.52345   0.48443   0.00000  Uiso   1.00
H390   H     0.97117   0.44277   0.02428   0.00000  Uiso   1.00
H391   H     0.91045   0.62929   0.23854   0.00000  Uiso   1.00
H392   H     0.75625   0.37072   0.26134   0.00000  Uiso   1.00
H393   H     0.72451   0.41527   0.19968   0.00000  Uiso   1.00
H394   H     0.88851   0.44629   0.42088   0.00000  Uiso   1.00
H395   H     0.74187   0.45160   0.15725   0.00000  Uiso   1.00
H396   H     0.94227   0.58483   0.30004   0.00000  Uiso   1.00
H397   H     0.92485   0.54863   0.34260   0.00000  Uiso   1.00
H398   H     0.91048   0.37089   0.23833   0.00000  Uiso   1.00
H399   H     0.75623   0.62911   0.26156   0.00000  Uiso   1.00
H400   H     0.97803   0.45261   0.19894   0.00000  Uiso   1.00
H401   H     0.68868   0.54746   0.30096   0.00000  Uiso   1.00
H402   H     0.67913   0.51024   0.09102   0.00000  Uiso   1.00
H403   H     0.69861   0.55864   0.07278   0.00000  Uiso   1.00
H404   H     0.94954   0.40203   0.44009   0.00000  Uiso   1.00
N405   N     0.71426   0.50001   0.25001   0.00000  Uiso   1.00
N406   N     0.95241   0.49999   0.24999   0.00000  Uiso   1.00
N407   N     0.69378   0.52892   0.06144   0.00000  Uiso   1.00
N408   N     0.95853   0.43133   0.44918   0.00000  Uiso   1.00
N409   N     0.73790   0.44555   0.19157   0.00000  Uiso   1.00
N410   N     0.92884   0.55458   0.30825   0.00000  Uiso   1.00
O411   O     0.79512   0.56108   0.25000   0.00000  Uiso   1.00
O412   O     0.87154   0.43892   0.24999   0.00000  Uiso   1.00
O413   O     0.87157   0.56107   0.25000   0.00000  Uiso   1.00
O414   O     0.79510   0.43893   0.25000   0.00000  Uiso   1.00
O415   O     0.77328   0.50001   0.31612   0.00000  Uiso   1.00
O416   O     0.89339   0.49999   0.18387   0.00000  Uiso   1.00
O417   O     0.84972   0.50000   0.31612   0.00000  Uiso   1.00
O418   O     0.81695   0.50000   0.18388   0.00000  Uiso   1.00
Zn419  Zn    0.78229   0.50001   0.25000   0.00000  Uiso   1.00
Zn420  Zn    0.88438   0.49999   0.25000   0.00000  Uiso   1.00
C421   C     0.16668   0.91335   0.25006   0.00000  Uiso   1.00
C422   C     0.12338   0.97866   0.25635   0.00000  Uiso   1.00
C423   C     0.16668   0.70915   0.24985   0.00000  Uiso   1.00
C424   C     0.16669   0.95752   0.25006   0.00000  Uiso   1.00
C425   C     0.32062   0.80697   0.22161   0.00000  Uiso   1.00
C426   C     0.01273   0.85974   0.27834   0.00000  Uiso   1.00
C427   C     0.03533   0.80684   0.22153   0.00000  Uiso   1.00
C428   C     0.29803   0.85987   0.27840   0.00000  Uiso   1.00
C429   C     0.13600   0.83296   0.33804   0.00000  Uiso   1.00
C430   C     0.19732   0.83293   0.16205   0.00000  Uiso   1.00
C431   C     0.11654   0.83168   0.38886   0.00000  Uiso   1.00
C432   C     0.16666   0.75331   0.24991   0.00000  Uiso   1.00
C433   C     0.21634   0.82729   0.11178   0.00000  Uiso   1.00
C434   C     0.05366   0.84633   0.46427   0.00000  Uiso   1.00
C435   C     0.27082   0.79306   0.04199   0.00000  Uiso   1.00
C436   C     0.06836   0.84293   0.41606   0.00000  Uiso   1.00
C437   C     0.25918   0.80488   0.08820   0.00000  Uiso   1.00
C438   C     0.14851   0.82080   0.41010   0.00000  Uiso   1.00
C439   C     0.18595   0.83833   0.08907   0.00000  Uiso   1.00
C440   C     0.13461   0.82317   0.45835   0.00000  Uiso   1.00
C441   C     0.19319   0.82203   0.04520   0.00000  Uiso   1.00
C442   C     0.08702   0.83819   0.48562   0.00000  Uiso   1.00
C443   C     0.10915   0.84054   0.05275   0.00000  Uiso   1.00
C444   C     0.23765   0.80069   0.02032   0.00000  Uiso   1.00
C445   C     0.16842   0.81405   0.47929   0.00000  Uiso   1.00
C446   C     0.15699   0.82612   0.02603   0.00000  Uiso   1.00
C447   C     0.21312   0.79304   0.45500   0.00000  Uiso   1.00
C448   C     0.07442   0.84618   0.03315   0.00000  Uiso   1.00
C449   C     0.24729   0.78630   0.47508   0.00000  Uiso   1.00
C450   C     0.20999   0.97876   0.24367   0.00000  Uiso   1.00
C451   C     0.12338   0.68791   0.25622   0.00000  Uiso   1.00
C452   C     0.21000   0.68801   0.24354   0.00000  Uiso   1.00
H453   H     0.09672   0.84650   0.08967   0.00000  Uiso   1.00
H454   H     0.31029   0.78110   0.41840   0.00000  Uiso   1.00
H455   H     0.15562   0.85859   0.10744   0.00000  Uiso   1.00
H456   H     0.18553   0.81316   0.38784   0.00000  Uiso   1.00
H457   H     0.28243   0.79509   0.10598   0.00000  Uiso   1.00
H458   H     0.04290   0.85091   0.40000   0.00000  Uiso   1.00
H459   H     0.01676   0.85678   0.48443   0.00000  Uiso   1.00
H460   H     0.30450   0.77610   0.02428   0.00000  Uiso   1.00
H461   H     0.24379   0.96262   0.23854   0.00000  Uiso   1.00
H462   H     0.08958   0.70405   0.26134   0.00000  Uiso   1.00
H463   H     0.05784   0.74861   0.19968   0.00000  Uiso   1.00
H464   H     0.22185   0.77962   0.42088   0.00000  Uiso   1.00
H465   H     0.07521   0.78493   0.15725   0.00000  Uiso   1.00
H466   H     0.27561   0.91816   0.30004   0.00000  Uiso   1.00
H467   H     0.25818   0.88196   0.34260   0.00000  Uiso   1.00
H468   H     0.24381   0.70423   0.23833   0.00000  Uiso   1.00
H469   H     0.08956   0.96245   0.26156   0.00000  Uiso   1.00
H470   H     0.31136   0.78594   0.19894   0.00000  Uiso   1.00
H471   H     0.02201   0.88080   0.30096   0.00000  Uiso   1.00
H472   H     0.01246   0.84357   0.09102   0.00000  Uiso   1.00
H473   H     0.03195   0.89197   0.07278   0.00000  Uiso   1.00
H474   H     0.28287   0.73537   0.44009   0.00000  Uiso   1.00
N475   N     0.04759   0.83334   0.25001   0.00000  Uiso   1.00
N476   N     0.28574   0.83332   0.24999   0.00000  Uiso   1.00
N477   N     0.02712   0.86226   0.06144   0.00000  Uiso   1.00
N478   N     0.29187   0.76467   0.44918   0.00000  Uiso   1.00
N479   N     0.07123   0.77889   0.19157   0.00000  Uiso   1.00
N480   N     0.26217   0.88791   0.30825   0.00000  Uiso   1.00
O481   O     0.12846   0.89442   0.25000   0.00000  Uiso   1.00
O482   O     0.20488   0.77225   0.24999   0.00000  Uiso   1.00
O483   O     0.20490   0.89441   0.25000   0.00000  Uiso   1.00
O484   O     0.12843   0.77226   0.25000   0.00000  Uiso   1.00
O485   O     0.10661   0.83334   0.31612   0.00000  Uiso   1.00
O486   O     0.22672   0.83333   0.18387   0.00000  Uiso   1.00
O487   O     0.18305   0.83333   0.31612   0.00000  Uiso   1.00
O488   O     0.15028   0.83334   0.18388   0.00000  Uiso   1.00
Zn489  Zn    0.11562   0.83334   0.25000   0.00000  Uiso   1.00
Zn490  Zn    0.21771   0.83333   0.25000   0.00000  Uiso   1.00
C491   C     0.50001   0.91335   0.25006   0.00000  Uiso   1.00
C492   C     0.45671   0.97866   0.25635   0.00000  Uiso   1.00
C493   C     0.50001   0.70915   0.24985   0.00000  Uiso   1.00
C494   C     0.50002   0.95752   0.25006   0.00000  Uiso   1.00
C495   C     0.65395   0.80697   0.22161   0.00000  Uiso   1.00
C496   C     0.34607   0.85974   0.27834   0.00000  Uiso   1.00
C497   C     0.36866   0.80684   0.22153   0.00000  Uiso   1.00
C498   C     0.63136   0.85987   0.27840   0.00000  Uiso   1.00
C499   C     0.46933   0.83296   0.33804   0.00000  Uiso   1.00
C500   C     0.53065   0.83293   0.16205   0.00000  Uiso   1.00
C501   C     0.44987   0.83168   0.38886   0.00000  Uiso   1.00
C502   C     0.50000   0.75331   0.24991   0.00000  Uiso   1.00
C503   C     0.54968   0.82729   0.11178   0.00000  Uiso   1.00
C504   C     0.38699   0.84633   0.46427   0.00000  Uiso   1.00
C505   C     0.60415   0.79306   0.04199   0.00000  Uiso   1.00
C506   C     0.40169   0.84293   0.41606   0.00000  Uiso   1.00
C507   C     0.59251   0.80488   0.08820   0.00000  Uiso   1.00
C508   C     0.48184   0.82080   0.41010   0.00000  Uiso   1.00
C509   C     0.51928   0.83833   0.08907   0.00000  Uiso   1.00
C510   C     0.46794   0.82317   0.45835   0.00000  Uiso   1.00
C511   C     0.52652   0.82203   0.04520   0.00000  Uiso   1.00
C512   C     0.42035   0.83819   0.48562   0.00000  Uiso   1.00
C513   C     0.44249   0.84054   0.05275   0.00000  Uiso   1.00
C514   C     0.57098   0.80069   0.02032   0.00000  Uiso   1.00
C515   C     0.50175   0.81405   0.47929   0.00000  Uiso   1.00
C516   C     0.49033   0.82612   0.02603   0.00000  Uiso   1.00
C517   C     0.54645   0.79304   0.45500   0.00000  Uiso   1.00
C518   C     0.40776   0.84618   0.03315   0.00000  Uiso   1.00
C519   C     0.58062   0.78630   0.47508   0.00000  Uiso   1.00
C520   C     0.54332   0.97876   0.24367   0.00000  Uiso   1.00
C521   C     0.45671   0.68791   0.25622   0.00000  Uiso   1.00
C522   C     0.54333   0.68801   0.24354   0.00000  Uiso   1.00
H523   H     0.43005   0.84650   0.08967   0.00000  Uiso   1.00
H524   H     0.64362   0.78110   0.41840   0.00000  Uiso   1.00
H525   H     0.48895   0.85859   0.10744   0.00000  Uiso   1.00
H526   H     0.51886   0.81316   0.38784   0.00000  Uiso   1.00
H527   H     0.61577   0.79509   0.10598   0.00000  Uiso   1.00
H528   H     0.37623   0.85091   0.40000   0.00000  Uiso   1.00
H529   H     0.35009   0.85678   0.48443   0.00000  Uiso   1.00
H530   H     0.63783   0.77610   0.02428   0.00000  Uiso   1.00
H531   H     0.57712   0.96262   0.23854   0.00000  Uiso   1.00
H532   H     0.42292   0.70405   0.26134   0.00000  Uiso   1.00
H533   H     0.39117   0.74861   0.19968   0.00000  Uiso   1.00
H534   H     0.55518   0.77962   0.42088   0.00000  Uiso   1.00
H535   H     0.40854   0.78493   0.15725   0.00000  Uiso   1.00
H536   H     0.60894   0.91816   0.30004   0.00000  Uiso   1.00
H537   H     0.59151   0.88196   0.34260   0.00000  Uiso   1.00
H538   H     0.57714   0.70423   0.23833   0.00000  Uiso   1.00
H539   H     0.42290   0.96245   0.26156   0.00000  Uiso   1.00
H540   H     0.64469   0.78594   0.19894   0.00000  Uiso   1.00
H541   H     0.35534   0.88080   0.30096   0.00000  Uiso   1.00
H542   H     0.34580   0.84357   0.09102   0.00000  Uiso   1.00
H543   H     0.36528   0.89197   0.07278   0.00000  Uiso   1.00
H544   H     0.61621   0.73537   0.44009   0.00000  Uiso   1.00
N545   N     0.38093   0.83334   0.25001   0.00000  Uiso   1.00
N546   N     0.61907   0.83332   0.24999   0.00000  Uiso   1.00
N547   N     0.36045   0.86226   0.06144   0.00000  Uiso   1.00
N548   N     0.62520   0.76467   0.44918   0.00000  Uiso   1.00
N549   N     0.40456   0.77889   0.19157   0.00000  Uiso   1.00
N550   N     0.59550   0.88791   0.30825   0.00000  Uiso   1.00
O551   O     0.46179   0.89442   0.25000   0.00000  Uiso   1.00
O552   O     0.53821   0.77225   0.24999   0.00000  Uiso   1.00
O553   O     0.53823   0.89441   0.25000   0.00000  Uiso   1.00
O554   O     0.46177   0.77226   0.25000   0.00000  Uiso   1.00
O555   O     0.43994   0.83334   0.31612   0.00000  Uiso   1.00
O556   O     0.56006   0.83333   0.18387   0.00000  Uiso   1.00
O557   O     0.51639   0.83333   0.31612   0.00000  Uiso   1.00
O558   O     0.48361   0.83334   0.18388   0.00000  Uiso   1.00
Zn559  Zn    0.44896   0.83334   0.25000   0.00000  Uiso   1.00
Zn560  Zn    0.55104   0.83333   0.25000   0.00000  Uiso   1.00
C561   C     0.83335   0.91335   0.25006   0.00000  Uiso   1.00
C562   C     0.79004   0.97866   0.25635   0.00000  Uiso   1.00
C563   C     0.83335   0.70915   0.24985   0.00000  Uiso   1.00
C564   C     0.83335   0.95752   0.25006   0.00000  Uiso   1.00
C565   C     0.98729   0.80697   0.22161   0.00000  Uiso   1.00
C566   C     0.67940   0.85974   0.27834   0.00000  Uiso   1.00
C567   C     0.70200   0.80684   0.22153   0.00000  Uiso   1.00
C568   C     0.96469   0.85987   0.27840   0.00000  Uiso   1.00
C569   C     0.80267   0.83296   0.33804   0.00000  Uiso   1.00
C570   C     0.86398   0.83293   0.16205   0.00000  Uiso   1.00
C571   C     0.78320   0.83168   0.38886   0.00000  Uiso   1.00
C572   C     0.83333   0.75331   0.24991   0.00000  Uiso   1.00
C573   C     0.88301   0.82729   0.11178   0.00000  Uiso   1.00
C574   C     0.72032   0.84633   0.46427   0.00000  Uiso   1.00
C575   C     0.93749   0.79306   0.04199   0.00000  Uiso   1.00
C576   C     0.73503   0.84293   0.41606   0.00000  Uiso   1.00
C577   C     0.92585   0.80488   0.08820   0.00000  Uiso   1.00
C578   C     0.81517   0.82080   0.41010   0.00000  Uiso   1.00
C579   C     0.85262   0.83833   0.08907   0.00000  Uiso   1.00
C580   C     0.80128   0.82317   0.45835   0.00000  Uiso   1.00
C581   C     0.85986   0.82203   0.04520   0.00000  Uiso   1.00
C582   C     0.75368   0.83819   0.48562   0.00000  Uiso   1.00
C583   C     0.77582   0.84054   0.05275   0.00000  Uiso   1.00
C584   C     0.90432   0.80069   0.02032   0.00000  Uiso   1.00
C585   C     0.83509   0.81405   0.47929   0.00000  Uiso   1.00
C586   C     0.82366   0.82612   0.02603   0.00000  Uiso   1.00
C587   C     0.87978   0.79304   0.45500   0.00000  Uiso   1.00
C588   C     0.74109   0.84618   0.03315   0.00000  Uiso   1.00
C589   C     0.91395   0.78630   0.47508   0.00000  Uiso   1.00
C590   C     0.87666   0.97876   0.24367   0.00000  Uiso   1.00
C591   C     0.79005   0.68791   0.25622   0.00000  Uiso   1.00
C592   C     0.87666   0.68801   0.24354   0.00000  Uiso   1.00
H593   H     0.76339   0.84650   0.08967   0.00000  Uiso   1.00
H594   H     0.97696   0.78110   0.41840   0.00000  Uiso   1.00
H595   H     0.82229   0.85859   0.10744   0.00000  Uiso   1.00
H596   H     0.85219   0.81316   0.38784   0.00000  Uiso   1.00
H597   H     0.94910   0.79509   0.10598   0.00000  Uiso   1.00
H598   H     0.70956   0.85091   0.40000   0.00000  Uiso   1.00
H599   H     0.68343   0.85678   0.48443   0.00000  Uiso   1.00
H600   H     0.97117   0.77610   0.02428   0.00000  Uiso   1.00
H601   H     0.91045   0.96262   0.23854   0.00000  Uiso   1.00
H602   H     0.75625   0.70405   0.26134   0.00000  Uiso   1.00
H603   H     0.72451   0.74861   0.19968   0.00000  Uiso   1.00
H604   H     0.88851   0.77962   0.42088   0.00000  Uiso   1.00
H605   H     0.74187   0.78493   0.15725   0.00000  Uiso   1.00
H606   H     0.94227   0.91816   0.30004   0.00000  Uiso   1.00
H607   H     0.92485   0.88196   0.34260   0.00000  Uiso   1.00
H608   H     0.91048   0.70423   0.23833   0.00000  Uiso   1.00
H609   H     0.75623   0.96245   0.26156   0.00000  Uiso   1.00
H610   H     0.97803   0.78594   0.19894   0.00000  Uiso   1.00
H611   H     0.68868   0.88080   0.30096   0.00000  Uiso   1.00
H612   H     0.67913   0.84357   0.09102   0.00000  Uiso   1.00
H613   H     0.69861   0.89197   0.07278   0.00000  Uiso   1.00
H614   H     0.94954   0.73537   0.44009   0.00000  Uiso   1.00
N615   N     0.71426   0.83334   0.25001   0.00000  Uiso   1.00
N616   N     0.95241   0.83332   0.24999   0.00000  Uiso   1.00
N617   N     0.69378   0.86226   0.06144   0.00000  Uiso   1.00
N618   N     0.95853   0.76467   0.44918   0.00000  Uiso   1.00
N619   N     0.73790   0.77889   0.19157   0.00000  Uiso   1.00
N620   N     0.92884   0.88791   0.30825   0.00000  Uiso   1.00
O621   O     0.79512   0.89442   0.25000   0.00000  Uiso   1.00
O622   O     0.87154   0.77225   0.24999   0.00000  Uiso   1.00
O623   O     0.87157   0.89441   0.25000   0.00000  Uiso   1.00
O624   O     0.79510   0.77226   0.25000   0.00000  Uiso   1.00
O625   O     0.77328   0.83334   0.31612   0.00000  Uiso   1.00
O626   O     0.89339   0.83333   0.18387   0.00000  Uiso   1.00
O627   O     0.84972   0.83333   0.31612   0.00000  Uiso   1.00
O628   O     0.81695   0.83334   0.18388   0.00000  Uiso   1.00
Zn629  Zn    0.78229   0.83334   0.25000   0.00000  Uiso   1.00
Zn630  Zn    0.88438   0.83333   0.25000   0.00000  Uiso   1.00
C631   C     0.16668   0.24669   0.75006   0.00000  Uiso   1.00
C632   C     0.12338   0.31199   0.75635   0.00000  Uiso   1.00
C633   C     0.16668   0.04248   0.74985   0.00000  Uiso   1.00
C634   C     0.16669   0.29085   0.75006   0.00000  Uiso   1.00
C635   C     0.32062   0.14030   0.72161   0.00000  Uiso   1.00
C636   C     0.01273   0.19307   0.77834   0.00000  Uiso   1.00
C637   C     0.03533   0.14018   0.72153   0.00000  Uiso   1.00
C638   C     0.29803   0.19320   0.77840   0.00000  Uiso   1.00
C639   C     0.13600   0.16629   0.83804   0.00000  Uiso   1.00
C640   C     0.19732   0.16626   0.66205   0.00000  Uiso   1.00
C641   C     0.11654   0.16501   0.88886   0.00000  Uiso   1.00
C642   C     0.16666   0.08665   0.74991   0.00000  Uiso   1.00
C643   C     0.21634   0.16063   0.61178   0.00000  Uiso   1.00
C644   C     0.05366   0.17966   0.96427   0.00000  Uiso   1.00
C645   C     0.27082   0.12639   0.54199   0.00000  Uiso   1.00
C646   C     0.06836   0.17626   0.91606   0.00000  Uiso   1.00
C647   C     0.25918   0.13822   0.58820   0.00000  Uiso   1.00
C648   C     0.14851   0.15414   0.91010   0.00000  Uiso   1.00
C649   C     0.18595   0.17166   0.58907   0.00000  Uiso   1.00
C650   C     0.13461   0.15651   0.95835   0.00000  Uiso   1.00
C651   C     0.19319   0.15537   0.54520   0.00000  Uiso   1.00
C652   C     0.08702   0.17153   0.98562   0.00000  Uiso   1.00
C653   C     0.10915   0.17387   0.55275   0.00000  Uiso   1.00
C654   C     0.23765   0.13403   0.52032   0.00000  Uiso   1.00
C655   C     0.16842   0.14738   0.97929   0.00000  Uiso   1.00
C656   C     0.15699   0.15946   0.52603   0.00000  Uiso   1.00
C657   C     0.21312   0.12637   0.95500   0.00000  Uiso   1.00
C658   C     0.07442   0.17951   0.53315   0.00000  Uiso   1.00
C659   C     0.24729   0.11964   0.97508   0.00000  Uiso   1.00
C660   C     0.20999   0.31209   0.74367   0.00000  Uiso   1.00
C661   C     0.12338   0.02125   0.75622   0.00000  Uiso   1.00
C662   C     0.21000   0.02134   0.74354   0.00000  Uiso   1.00
H663   H     0.09672   0.17983   0.58967   0.00000  Uiso   1.00
H664   H     0.31029   0.11443   0.91840   0.00000  Uiso   1.00
H665   H     0.15562   0.19193   0.60744   0.00000  Uiso   1.00
H666   H     0.18553   0.14649   0.88784   0.00000  Uiso   1.00
H667   H     0.28243   0.12842   0.60598   0.00000  Uiso   1.00
H668   H     0.04290   0.18424   0.90000   0.00000  Uiso   1.00
H669   H     0.01676   0.19012   0.98443   0.00000  Uiso   1.00
H670   H     0.30450   0.10943   0.52428   0.00000  Uiso   1.00
H671   H     0.24379   0.29595   0.73854   0.00000  Uiso   1.00
H672   H     0.08958   0.03738   0.76134   0.00000  Uiso   1.00
H673   H     0.05784   0.08194   0.69968   0.00000  Uiso   1.00
H674   H     0.22185   0.11295   0.92088   0.00000  Uiso   1.00
H675   H     0.07521   0.11826   0.65725   0.00000  Uiso   1.00
H676   H     0.27561   0.25149   0.80004   0.00000  Uiso   1.00
H677   H     0.25818   0.21530   0.84260   0.00000  Uiso   1.00
H678   H     0.24381   0.03756   0.73833   0.00000  Uiso   1.00
H679   H     0.08956   0.29578   0.76156   0.00000  Uiso   1.00
H680   H     0.31136   0.11928   0.69894   0.00000  Uiso   1.00
H681   H     0.02201   0.21413   0.80096   0.00000  Uiso   1.00
H682   H     0.01246   0.17690   0.59102   0.00000  Uiso   1.00
H683   H     0.03195   0.22530   0.57278   0.00000  Uiso   1.00
H684   H     0.28287   0.06870   0.94009   0.00000  Uiso   1.00
N685   N     0.04759   0.16668   0.75001   0.00000  Uiso   1.00
N686   N     0.28574   0.16666   0.74999   0.00000  Uiso   1.00
N687   N     0.02712   0.19559   0.56144   0.00000  Uiso   1.00
N688   N     0.29187   0.09800   0.94918   0.00000  Uiso   1.00
N689   N     0.07123   0.11222   0.69157   0.00000  Uiso   1.00
N690   N     0.26217   0.22124   0.80825   0.00000  Uiso   1.00
O691   O     0.12846   0.22775   0.75000   0.00000  Uiso   1.00
O692   O     0.20488   0.10558   0.74999   0.00000  Uiso   1.00
O693   O     0.20490   0.22774   0.75000   0.00000  Uiso   1.00
O694   O     0.12843   0.10559   0.75000   0.00000  Uiso   1.00
O695   O     0.10661   0.16667   0.81612   0.00000  Uiso   1.00
O696   O     0.22672   0.16666   0.68387   0.00000  Uiso   1.00
O697   O     0.18305   0.16666   0.81612   0.00000  Uiso   1.00
O698   O     0.15028   0.16667   0.68388   0.00000  Uiso   1.00
Zn699  Zn    0.11562   0.16667   0.75000   0.00000  Uiso   1.00
Zn700  Zn    0.21771   0.16666   0.75000   0.00000  Uiso   1.00
C701   C     0.50001   0.24669   0.75006   0.00000  Uiso   1.00
C702   C     0.45671   0.31199   0.75635   0.00000  Uiso   1.00
C703   C     0.50001   0.04248   0.74985   0.00000  Uiso   1.00
C704   C     0.50002   0.29085   0.75006   0.00000  Uiso   1.00
C705   C     0.65395   0.14030   0.72161   0.00000  Uiso   1.00
C706   C     0.34607   0.19307   0.77834   0.00000  Uiso   1.00
C707   C     0.36866   0.14018   0.72153   0.00000  Uiso   1.00
C708   C     0.63136   0.19320   0.77840   0.00000  Uiso   1.00
C709   C     0.46933   0.16629   0.83804   0.00000  Uiso   1.00
C710   C     0.53065   0.16626   0.66205   0.00000  Uiso   1.00
C711   C     0.44987   0.16501   0.88886   0.00000  Uiso   1.00
C712   C     0.50000   0.08665   0.74991   0.00000  Uiso   1.00
C713   C     0.54968   0.16063   0.61178   0.00000  Uiso   1.00
C714   C     0.38699   0.17966   0.96427   0.00000  Uiso   1.00
C715   C     0.60415   0.12639   0.54199   0.00000  Uiso   1.00
C716   C     0.40169   0.17626   0.91606   0.00000  Uiso   1.00
C717   C     0.59251   0.13822   0.58820   0.00000  Uiso   1.00
C718   C     0.48184   0.15414   0.91010   0.00000  Uiso   1.00
C719   C     0.51928   0.17166   0.58907   0.00000  Uiso   1.00
C720   C     0.46794   0.15651   0.95835   0.00000  Uiso   1.00
C721   C     0.52652   0.15537   0.54520   0.00000  Uiso   1.00
C722   C     0.42035   0.17153   0.98562   0.00000  Uiso   1.00
C723   C     0.44249   0.17387   0.55275   0.00000  Uiso   1.00
C724   C     0.57098   0.13403   0.52032   0.00000  Uiso   1.00
C725   C     0.50175   0.14738   0.97929   0.00000  Uiso   1.00
C726   C     0.49033   0.15946   0.52603   0.00000  Uiso   1.00
C727   C     0.54645   0.12637   0.95500   0.00000  Uiso   1.00
C728   C     0.40776   0.17951   0.53315   0.00000  Uiso   1.00
C729   C     0.58062   0.11964   0.97508   0.00000  Uiso   1.00
C730   C     0.54332   0.31209   0.74367   0.00000  Uiso   1.00
C731   C     0.45671   0.02125   0.75622   0.00000  Uiso   1.00
C732   C     0.54333   0.02134   0.74354   0.00000  Uiso   1.00
H733   H     0.43005   0.17983   0.58967   0.00000  Uiso   1.00
H734   H     0.64362   0.11443   0.91840   0.00000  Uiso   1.00
H735   H     0.48895   0.19193   0.60744   0.00000  Uiso   1.00
H736   H     0.51886   0.14649   0.88784   0.00000  Uiso   1.00
H737   H     0.61577   0.12842   0.60598   0.00000  Uiso   1.00
H738   H     0.37623   0.18424   0.90000   0.00000  Uiso   1.00
H739   H     0.35009   0.19012   0.98443   0.00000  Uiso   1.00
H740   H     0.63783   0.10943   0.52428   0.00000  Uiso   1.00
H741   H     0.57712   0.29595   0.73854   0.00000  Uiso   1.00
H742   H     0.42292   0.03738   0.76134   0.00000  Uiso   1.00
H743   H     0.39117   0.08194   0.69968   0.00000  Uiso   1.00
H744   H     0.55518   0.11295   0.92088   0.00000  Uiso   1.00
H745   H     0.40854   0.11826   0.65725   0.00000  Uiso   1.00
H746   H     0.60894   0.25149   0.80004   0.00000  Uiso   1.00
H747   H     0.59151   0.21530   0.84260   0.00000  Uiso   1.00
H748   H     0.57714   0.03756   0.73833   0.00000  Uiso   1.00
H749   H     0.42290   0.29578   0.76156   0.00000  Uiso   1.00
H750   H     0.64469   0.11928   0.69894   0.00000  Uiso   1.00
H751   H     0.35534   0.21413   0.80096   0.00000  Uiso   1.00
H752   H     0.34580   0.17690   0.59102   0.00000  Uiso   1.00
H753   H     0.36528   0.22530   0.57278   0.00000  Uiso   1.00
H754   H     0.61621   0.06870   0.94009   0.00000  Uiso   1.00
N755   N     0.38093   0.16668   0.75001   0.00000  Uiso   1.00
N756   N     0.61907   0.16666   0.74999   0.00000  Uiso   1.00
N757   N     0.36045   0.19559   0.56144   0.00000  Uiso   1.00
N758   N     0.62520   0.09800   0.94918   0.00000  Uiso   1.00
N759   N     0.40456   0.11222   0.69157   0.00000  Uiso   1.00
N760   N     0.59550   0.22124   0.80825   0.00000  Uiso   1.00
O761   O     0.46179   0.22775   0.75000   0.00000  Uiso   1.00
O762   O     0.53821   0.10558   0.74999   0.00000  Uiso   1.00
O763   O     0.53823   0.22774   0.75000   0.00000  Uiso   1.00
O764   O     0.46177   0.10559   0.75000   0.00000  Uiso   1.00
O765   O     0.43994   0.16667   0.81612   0.00000  Uiso   1.00
O766   O     0.56006   0.16666   0.68387   0.00000  Uiso   1.00
O767   O     0.51639   0.16666   0.81612   0.00000  Uiso   1.00
O768   O     0.48361   0.16667   0.68388   0.00000  Uiso   1.00
Zn769  Zn    0.44896   0.16667   0.75000   0.00000  Uiso   1.00
Zn770  Zn    0.55104   0.16666   0.75000   0.00000  Uiso   1.00
C771   C     0.83335   0.24669   0.75006   0.00000  Uiso   1.00
C772   C     0.79004   0.31199   0.75635   0.00000  Uiso   1.00
C773   C     0.83335   0.04248   0.74985   0.00000  Uiso   1.00
C774   C     0.83335   0.29085   0.75006   0.00000  Uiso   1.00
C775   C     0.98729   0.14030   0.72161   0.00000  Uiso   1.00
C776   C     0.67940   0.19307   0.77834   0.00000  Uiso   1.00
C777   C     0.70200   0.14018   0.72153   0.00000  Uiso   1.00
C778   C     0.96469   0.19320   0.77840   0.00000  Uiso   1.00
C779   C     0.80267   0.16629   0.83804   0.00000  Uiso   1.00
C780   C     0.86398   0.16626   0.66205   0.00000  Uiso   1.00
C781   C     0.78320   0.16501   0.88886   0.00000  Uiso   1.00
C782   C     0.83333   0.08665   0.74991   0.00000  Uiso   1.00
C783   C     0.88301   0.16063   0.61178   0.00000  Uiso   1.00
C784   C     0.72032   0.17966   0.96427   0.00000  Uiso   1.00
C785   C     0.93749   0.12639   0.54199   0.00000  Uiso   1.00
C786   C     0.73503   0.17626   0.91606   0.00000  Uiso   1.00
C787   C     0.92585   0.13822   0.58820   0.00000  Uiso   1.00
C788   C     0.81517   0.15414   0.91010   0.00000  Uiso   1.00
C789   C     0.85262   0.17166   0.58907   0.00000  Uiso   1.00
C790   C     0.80128   0.15651   0.95835   0.00000  Uiso   1.00
C791   C     0.85986   0.15537   0.54520   0.00000  Uiso   1.00
C792   C     0.75368   0.17153   0.98562   0.00000  Uiso   1.00
C793   C     0.77582   0.17387   0.55275   0.00000  Uiso   1.00
C794   C     0.90432   0.13403   0.52032   0.00000  Uiso   1.00
C795   C     0.83509   0.14738   0.97929   0.00000  Uiso   1.00
C796   C     0.82366   0.15946   0.52603   0.00000  Uiso   1.00
C797   C     0.87978   0.12637   0.95500   0.00000  Uiso   1.00
C798   C     0.74109   0.17951   0.53315   0.00000  Uiso   1.00
C799   C     0.91395   0.11964   0.97508   0.00000  Uiso   1.00
C800   C     0.87666   0.31209   0.74367   0.00000  Uiso   1.00
C801   C     0.79005   0.02125   0.75622   0.00000  Uiso   1.00
C802   C     0.87666   0.02134   0.74354   0.00000  Uiso   1.00
H803   H     0.76339   0.17983   0.58967   0.00000  Uiso   1.00
H804   H     0.97696   0.11443   0.91840   0.00000  Uiso   1.00
H805   H     0.82229   0.19193   0.60744   0.00000  Uiso   1.00
H806   H     0.85219   0.14649   0.88784   0.00000  Uiso   1.00
H807   H     0.94910   0.12842   0.60598   0.00000  Uiso   1.00
H808   H     0.70956   0.18424   0.90000   0.00000  Uiso   1.00
H809   H     0.68343   0.19012   0.98443   0.00000  Uiso   1.00
H810   H     0.97117   0.10943   0.52428   0.00000  Uiso   1.00
H811   H     0.91045   0.29595   0.73854   0.00000  Uiso   1.00
H812   H     0.75625   0.03738   0.76134   0.00000  Uiso   1.00
H813   H     0.72451   0.08194   0.69968   0.00000  Uiso   1.00
H814   H     0.88851   0.11295   0.92088   0.00000  Uiso   1.00
H815   H     0.74187   0.11826   0.65725   0.00000  Uiso   1.00
H816   H     0.94227   0.25149   0.80004   0.00000  Uiso   1.00
H817   H     0.92485   0.21530   0.84260   0.00000  Uiso   1.00
H818   H     0.91048   0.03756   0.73833   0.00000  Uiso   1.00
H819   H     0.75623   0.29578   0.76156   0.00000  Uiso   1.00
H820   H     0.97803   0.11928   0.69894   0.00000  Uiso   1.00
H821   H     0.68868   0.21413   0.80096   0.00000  Uiso   1.00
H822   H     0.67913   0.17690   0.59102   0.00000  Uiso   1.00
H823   H     0.69861   0.22530   0.57278   0.00000  Uiso   1.00
H824   H     0.94954   0.06870   0.94009   0.00000  Uiso   1.00
N825   N     0.71426   0.16668   0.75001   0.00000  Uiso   1.00
N826   N     0.95241   0.16666   0.74999   0.00000  Uiso   1.00
N827   N     0.69378   0.19559   0.56144   0.00000  Uiso   1.00
N828   N     0.95853   0.09800   0.94918   0.00000  Uiso   1.00
N829   N     0.73790   0.11222   0.69157   0.00000  Uiso   1.00
N830   N     0.92884   0.22124   0.80825   0.00000  Uiso   1.00
O831   O     0.79512   0.22775   0.75000   0.00000  Uiso   1.00
O832   O     0.87154   0.10558   0.74999   0.00000  Uiso   1.00
O833   O     0.87157   0.22774   0.75000   0.00000  Uiso   1.00
O834   O     0.79510   0.10559   0.75000   0.00000  Uiso   1.00
O835   O     0.77328   0.16667   0.81612   0.00000  Uiso   1.00
O836   O     0.89339   0.16666   0.68387   0.00000  Uiso   1.00
O837   O     0.84972   0.16666   0.81612   0.00000  Uiso   1.00
O838   O     0.81695   0.16667   0.68388   0.00000  Uiso   1.00
Zn839  Zn    0.78229   0.16667   0.75000   0.00000  Uiso   1.00
Zn840  Zn    0.88438   0.16666   0.75000   0.00000  Uiso   1.00
C841   C     0.16668   0.58002   0.75006   0.00000  Uiso   1.00
C842   C     0.12338   0.64533   0.75635   0.00000  Uiso   1.00
C843   C     0.16668   0.37582   0.74985   0.00000  Uiso   1.00
C844   C     0.16669   0.62419   0.75006   0.00000  Uiso   1.00
C845   C     0.32062   0.47363   0.72161   0.00000  Uiso   1.00
C846   C     0.01273   0.52640   0.77834   0.00000  Uiso   1.00
C847   C     0.03533   0.47351   0.72153   0.00000  Uiso   1.00
C848   C     0.29803   0.52654   0.77840   0.00000  Uiso   1.00
C849   C     0.13600   0.49963   0.83804   0.00000  Uiso   1.00
C850   C     0.19732   0.49960   0.66205   0.00000  Uiso   1.00
C851   C     0.11654   0.49834   0.88886   0.00000  Uiso   1.00
C852   C     0.16666   0.41998   0.74991   0.00000  Uiso   1.00
C853   C     0.21634   0.49396   0.61178   0.00000  Uiso   1.00
C854   C     0.05366   0.51299   0.96427   0.00000  Uiso   1.00
C855   C     0.27082   0.45973   0.54199   0.00000  Uiso   1.00
C856   C     0.06836   0.50959   0.91606   0.00000  Uiso   1.00
C857   C     0.25918   0.47155   0.58820   0.00000  Uiso   1.00
C858   C     0.14851   0.48747   0.91010   0.00000  Uiso   1.00
C859   C     0.18595   0.50500   0.58907   0.00000  Uiso   1.00
C860   C     0.13461   0.48984   0.95835   0.00000  Uiso   1.00
C861   C     0.19319   0.48870   0.54520   0.00000  Uiso   1.00
C862   C     0.08702   0.50486   0.98562   0.00000  Uiso   1.00
C863   C     0.10915   0.50720   0.55275   0.00000  Uiso   1.00
C864   C     0.23765   0.46736   0.52032   0.00000  Uiso   1.00
C865   C     0.16842   0.48072   0.97929   0.00000  Uiso   1.00
C866   C     0.15699   0.49279   0.52603   0.00000  Uiso   1.00
C867   C     0.21312   0.45970   0.95500   0.00000  Uiso   1.00
C868   C     0.07442   0.51284   0.53315   0.00000  Uiso   1.00
C869   C     0.24729   0.45297   0.97508   0.00000  Uiso   1.00
C870   C     0.20999   0.64542   0.74367   0.00000  Uiso   1.00
C871   C     0.12338   0.35458   0.75622   0.00000  Uiso   1.00
C872   C     0.21000   0.35468   0.74354   0.00000  Uiso   1.00
H873   H     0.09672   0.51316   0.58967   0.00000  Uiso   1.00
H874   H     0.31029   0.44776   0.91840   0.00000  Uiso   1.00
H875   H     0.15562   0.52526   0.60744   0.00000  Uiso   1.00
H876   H     0.18553   0.47982   0.88784   0.00000  Uiso   1.00
H877   H     0.28243   0.46176   0.60598   0.00000  Uiso   1.00
H878   H     0.04290   0.51758   0.90000   0.00000  Uiso   1.00
H879   H     0.01676   0.52345   0.98443   0.00000  Uiso   1.00
H880   H     0.30450   0.44277   0.52428   0.00000  Uiso   1.00
H881   H     0.24379   0.62929   0.73854   0.00000  Uiso   1.00
H882   H     0.08958   0.37072   0.76134   0.00000  Uiso   1.00
H883   H     0.05784   0.41527   0.69968   0.00000  Uiso   1.00
H884   H     0.22185   0.44629   0.92088   0.00000  Uiso   1.00
H885   H     0.07521   0.45160   0.65725   0.00000  Uiso   1.00
H886   H     0.27561   0.58483   0.80004   0.00000  Uiso   1.00
H887   H     0.25818   0.54863   0.84260   0.00000  Uiso   1.00
H888   H     0.24381   0.37089   0.73833   0.00000  Uiso   1.00
H889   H     0.08956   0.62911   0.76156   0.00000  Uiso   1.00
H890   H     0.31136   0.45261   0.69894   0.00000  Uiso   1.00
H891   H     0.02201   0.54746   0.80096   0.00000  Uiso   1.00
H892   H     0.01246   0.51024   0.59102   0.00000  Uiso   1.00
H893   H     0.03195   0.55864   0.57278   0.00000  Uiso   1.00
H894   H     0.28287   0.40203   0.94009   0.00000  Uiso   1.00
N895   N     0.04759   0.50001   0.75001   0.00000  Uiso   1.00
N896   N     0.28574   0.49999   0.74999   0.00000  Uiso   1.00
N897   N     0.02712   0.52892   0.56144   0.00000  Uiso   1.00
N898   N     0.29187   0.43133   0.94918   0.00000  Uiso   1.00
N899   N     0.07123   0.44555   0.69157   0.00000  Uiso   1.00
N900   N     0.26217   0.55458   0.80825   0.00000  Uiso   1.00
O901   O     0.12846   0.56108   0.75000   0.00000  Uiso   1.00
O902   O     0.20488   0.43892   0.74999   0.00000  Uiso   1.00
O903   O     0.20490   0.56107   0.75000   0.00000  Uiso   1.00
O904   O     0.12843   0.43893   0.75000   0.00000  Uiso   1.00
O905   O     0.10661   0.50001   0.81612   0.00000  Uiso   1.00
O906   O     0.22672   0.49999   0.68387   0.00000  Uiso   1.00
O907   O     0.18305   0.50000   0.81612   0.00000  Uiso   1.00
O908   O     0.15028   0.50000   0.68388   0.00000  Uiso   1.00
Zn909  Zn    0.11562   0.50001   0.75000   0.00000  Uiso   1.00
Zn910  Zn    0.21771   0.49999   0.75000   0.00000  Uiso   1.00
C911   C     0.50001   0.58002   0.75006   0.00000  Uiso   1.00
C912   C     0.45671   0.64533   0.75635   0.00000  Uiso   1.00
C913   C     0.50001   0.37582   0.74985   0.00000  Uiso   1.00
C914   C     0.50002   0.62419   0.75006   0.00000  Uiso   1.00
C915   C     0.65395   0.47363   0.72161   0.00000  Uiso   1.00
C916   C     0.34607   0.52640   0.77834   0.00000  Uiso   1.00
C917   C     0.36866   0.47351   0.72153   0.00000  Uiso   1.00
C918   C     0.63136   0.52654   0.77840   0.00000  Uiso   1.00
C919   C     0.46933   0.49963   0.83804   0.00000  Uiso   1.00
C920   C     0.53065   0.49960   0.66205   0.00000  Uiso   1.00
C921   C     0.44987   0.49834   0.88886   0.00000  Uiso   1.00
C922   C     0.50000   0.41998   0.74991   0.00000  Uiso   1.00
C923   C     0.54968   0.49396   0.61178   0.00000  Uiso   1.00
C924   C     0.38699   0.51299   0.96427   0.00000  Uiso   1.00
C925   C     0.60415   0.45973   0.54199   0.00000  Uiso   1.00
C926   C     0.40169   0.50959   0.91606   0.00000  Uiso   1.00
C927   C     0.59251   0.47155   0.58820   0.00000  Uiso   1.00
C928   C     0.48184   0.48747   0.91010   0.00000  Uiso   1.00
C929   C     0.51928   0.50500   0.58907   0.00000  Uiso   1.00
C930   C     0.46794   0.48984   0.95835   0.00000  Uiso   1.00
C931   C     0.52652   0.48870   0.54520   0.00000  Uiso   1.00
C932   C     0.42035   0.50486   0.98562   0.00000  Uiso   1.00
C933   C     0.44249   0.50720   0.55275   0.00000  Uiso   1.00
C934   C     0.57098   0.46736   0.52032   0.00000  Uiso   1.00
C935   C     0.50175   0.48072   0.97929   0.00000  Uiso   1.00
C936   C     0.49033   0.49279   0.52603   0.00000  Uiso   1.00
C937   C     0.54645   0.45970   0.95500   0.00000  Uiso   1.00
C938   C     0.40776   0.51284   0.53315   0.00000  Uiso   1.00
C939   C     0.58062   0.45297   0.97508   0.00000  Uiso   1.00
C940   C     0.54332   0.64542   0.74367   0.00000  Uiso   1.00
C941   C     0.45671   0.35458   0.75622   0.00000  Uiso   1.00
C942   C     0.54333   0.35468   0.74354   0.00000  Uiso   1.00
H943   H     0.43005   0.51316   0.58967   0.00000  Uiso   1.00
H944   H     0.64362   0.44776   0.91840   0.00000  Uiso   1.00
H945   H     0.48895   0.52526   0.60744   0.00000  Uiso   1.00
H946   H     0.51886   0.47982   0.88784   0.00000  Uiso   1.00
H947   H     0.61577   0.46176   0.60598   0.00000  Uiso   1.00
H948   H     0.37623   0.51758   0.90000   0.00000  Uiso   1.00
H949   H     0.35009   0.52345   0.98443   0.00000  Uiso   1.00
H950   H     0.63783   0.44277   0.52428   0.00000  Uiso   1.00
H951   H     0.57712   0.62929   0.73854   0.00000  Uiso   1.00
H952   H     0.42292   0.37072   0.76134   0.00000  Uiso   1.00
H953   H     0.39117   0.41527   0.69968   0.00000  Uiso   1.00
H954   H     0.55518   0.44629   0.92088   0.00000  Uiso   1.00
H955   H     0.40854   0.45160   0.65725   0.00000  Uiso   1.00
H956   H     0.60894   0.58483   0.80004   0.00000  Uiso   1.00
H957   H     0.59151   0.54863   0.84260   0.00000  Uiso   1.00
H958   H     0.57714   0.37089   0.73833   0.00000  Uiso   1.00
H959   H     0.42290   0.62911   0.76156   0.00000  Uiso   1.00
H960   H     0.64469   0.45261   0.69894   0.00000  Uiso   1.00
H961   H     0.35534   0.54746   0.80096   0.00000  Uiso   1.00
H962   H     0.34580   0.51024   0.59102   0.00000  Uiso   1.00
H963   H     0.36528   0.55864   0.57278   0.00000  Uiso   1.00
H964   H     0.61621   0.40203   0.94009   0.00000  Uiso   1.00
N965   N     0.38093   0.50001   0.75001   0.00000  Uiso   1.00
N966   N     0.61907   0.49999   0.74999   0.00000  Uiso   1.00
N967   N     0.36045   0.52892   0.56144   0.00000  Uiso   1.00
N968   N     0.62520   0.43133   0.94918   0.00000  Uiso   1.00
N969   N     0.40456   0.44555   0.69157   0.00000  Uiso   1.00
N970   N     0.59550   0.55458   0.80825   0.00000  Uiso   1.00
O971   O     0.46179   0.56108   0.75000   0.00000  Uiso   1.00
O972   O     0.53821   0.43892   0.74999   0.00000  Uiso   1.00
O973   O     0.53823   0.56107   0.75000   0.00000  Uiso   1.00
O974   O     0.46177   0.43893   0.75000   0.00000  Uiso   1.00
O975   O     0.43994   0.50001   0.81612   0.00000  Uiso   1.00
O976   O     0.56006   0.49999   0.68387   0.00000  Uiso   1.00
O977   O     0.51639   0.50000   0.81612   0.00000  Uiso   1.00
O978   O     0.48361   0.50000   0.68388   0.00000  Uiso   1.00
Zn979  Zn    0.44896   0.50001   0.75000   0.00000  Uiso   1.00
Zn980  Zn    0.55104   0.49999   0.75000   0.00000  Uiso   1.00
C981   C     0.83335   0.58002   0.75006   0.00000  Uiso   1.00
C982   C     0.79004   0.64533   0.75635   0.00000  Uiso   1.00
C983   C     0.83335   0.37582   0.74985   0.00000  Uiso   1.00
C984   C     0.83335   0.62419   0.75006   0.00000  Uiso   1.00
C985   C     0.98729   0.47363   0.72161   0.00000  Uiso   1.00
C986   C     0.67940   0.52640   0.77834   0.00000  Uiso   1.00
C987   C     0.70200   0.47351   0.72153   0.00000  Uiso   1.00
C988   C     0.96469   0.52654   0.77840   0.00000  Uiso   1.00
C989   C     0.80267   0.49963   0.83804   0.00000  Uiso   1.00
C990   C     0.86398   0.49960   0.66205   0.00000  Uiso   1.00
C991   C     0.78320   0.49834   0.88886   0.00000  Uiso   1.00
C992   C     0.83333   0.41998   0.74991   0.00000  Uiso   1.00
C993   C     0.88301   0.49396   0.61178   0.00000  Uiso   1.00
C994   C     0.72032   0.51299   0.96427   0.00000  Uiso   1.00
C995   C     0.93749   0.45973   0.54199   0.00000  Uiso   1.00
C996   C     0.73503   0.50959   0.91606   0.00000  Uiso   1.00
C997   C     0.92585   0.47155   0.58820   0.00000  Uiso   1.00
C998   C     0.81517   0.48747   0.91010   0.00000  Uiso   1.00
C999   C     0.85262   0.50500   0.58907   0.00000  Uiso   1.00
C1000  C     0.80128   0.48984   0.95835   0.00000  Uiso   1.00
C1001  C     0.85986   0.48870   0.54520   0.00000  Uiso   1.00
C1002  C     0.75368   0.50486   0.98562   0.00000  Uiso   1.00
C1003  C     0.77582   0.50720   0.55275   0.00000  Uiso   1.00
C1004  C     0.90432   0.46736   0.52032   0.00000  Uiso   1.00
C1005  C     0.83509   0.48072   0.97929   0.00000  Uiso   1.00
C1006  C     0.82366   0.49279   0.52603   0.00000  Uiso   1.00
C1007  C     0.87978   0.45970   0.95500   0.00000  Uiso   1.00
C1008  C     0.74109   0.51284   0.53315   0.00000  Uiso   1.00
C1009  C     0.91395   0.45297   0.97508   0.00000  Uiso   1.00
C1010  C     0.87666   0.64542   0.74367   0.00000  Uiso   1.00
C1011  C     0.79005   0.35458   0.75622   0.00000  Uiso   1.00
C1012  C     0.87666   0.35468   0.74354   0.00000  Uiso   1.00
H1013  H     0.76339   0.51316   0.58967   0.00000  Uiso   1.00
H1014  H     0.97696   0.44776   0.91840   0.00000  Uiso   1.00
H1015  H     0.82229   0.52526   0.60744   0.00000  Uiso   1.00
H1016  H     0.85219   0.47982   0.88784   0.00000  Uiso   1.00
H1017  H     0.94910   0.46176   0.60598   0.00000  Uiso   1.00
H1018  H     0.70956   0.51758   0.90000   0.00000  Uiso   1.00
H1019  H     0.68343   0.52345   0.98443   0.00000  Uiso   1.00
H1020  H     0.97117   0.44277   0.52428   0.00000  Uiso   1.00
H1021  H     0.91045   0.62929   0.73854   0.00000  Uiso   1.00
H1022  H     0.75625   0.37072   0.76134   0.00000  Uiso   1.00
H1023  H     0.72451   0.41527   0.69968   0.00000  Uiso   1.00
H1024  H     0.88851   0.44629   0.92088   0.00000  Uiso   1.00
H1025  H     0.74187   0.45160   0.65725   0.00000  Uiso   1.00
H1026  H     0.94227   0.58483   0.80004   0.00000  Uiso   1.00
H1027  H     0.92485   0.54863   0.84260   0.00000  Uiso   1.00
H1028  H     0.91048   0.37089   0.73833   0.00000  Uiso   1.00
H1029  H     0.75623   0.62911   0.76156   0.00000  Uiso   1.00
H1030  H     0.97803   0.45261   0.69894   0.00000  Uiso   1.00
H1031  H     0.68868   0.54746   0.80096   0.00000  Uiso   1.00
H1032  H     0.67913   0.51024   0.59102   0.00000  Uiso   1.00
H1033  H     0.69861   0.55864   0.57278   0.00000  Uiso   1.00
H1034  H     0.94954   0.40203   0.94009   0.00000  Uiso   1.00
N1035  N     0.71426   0.50001   0.75001   0.00000  Uiso   1.00
N1036  N     0.95241   0.49999   0.74999   0.00000  Uiso   1.00
N1037  N     0.69378   0.52892   0.56144   0.00000  Uiso   1.00
N1038  N     0.95853   0.43133   0.94918   0.00000  Uiso   1.00
N1039  N     0.73790   0.44555   0.69157   0.00000  Uiso   1.00
N1040  N     0.92884   0.55458   0.80825   0.00000  Uiso   1.00
O1041  O     0.79512   0.56108   0.75000   0.00000  Uiso   1.00
O1042  O     0.87154   0.43892   0.74999   0.00000  Uiso   1.00
O1043  O     0.87157   0.56107   0.75000   0.00000  Uiso   1.00
O1044  O     0.79510   0.43893   0.75000   0.00000  Uiso   1.00
O1045  O     0.77328   0.50001   0.81612   0.00000  Uiso   1.00
O1046  O     0.89339   0.49999   0.68387   0.00000  Uiso   1.00
O1047  O     0.84972   0.50000   0.81612   0.00000  Uiso   1.00
O1048  O     0.81695   0.50000   0.68388   0.00000  Uiso   1.00
Zn1049 Zn    0.78229   0.50001   0.75000   0.00000  Uiso   1.00
Zn1050 Zn    0.88438   0.49999   0.75000   0.00000  Uiso   1.00
C1051  C     0.16668   0.91335   0.75006   0.00000  Uiso   1.00
C1052  C     0.12338   0.97866   0.75635   0.00000  Uiso   1.00
C1053  C     0.16668   0.70915   0.74985   0.00000  Uiso   1.00
C1054  C     0.16669   0.95752   0.75006   0.00000  Uiso   1.00
C1055  C     0.32062   0.80697   0.72161   0.00000  Uiso   1.00
C1056  C     0.01273   0.85974   0.77834   0.00000  Uiso   1.00
C1057  C     0.03533   0.80684   0.72153   0.00000  Uiso   1.00
C1058  C     0.29803   0.85987   0.77840   0.00000  Uiso   1.00
C1059  C     0.13600   0.83296   0.83804   0.00000  Uiso   1.00
C1060  C     0.19732   0.83293   0.66205   0.00000  Uiso   1.00
C1061  C     0.11654   0.83168   0.88886   0.00000  Uiso   1.00
C1062  C     0.16666   0.75331   0.74991   0.00000  Uiso   1.00
C1063  C     0.21634   0.82729   0.61178   0.00000  Uiso   1.00
C1064  C     0.05366   0.84633   0.96427   0.00000  Uiso   1.00
C1065  C     0.27082   0.79306   0.54199   0.00000  Uiso   1.00
C1066  C     0.06836   0.84293   0.91606   0.00000  Uiso   1.00
C1067  C     0.25918   0.80488   0.58820   0.00000  Uiso   1.00
C1068  C     0.14851   0.82080   0.91010   0.00000  Uiso   1.00
C1069  C     0.18595   0.83833   0.58907   0.00000  Uiso   1.00
C1070  C     0.13461   0.82317   0.95835   0.00000  Uiso   1.00
C1071  C     0.19319   0.82203   0.54520   0.00000  Uiso   1.00
C1072  C     0.08702   0.83819   0.98562   0.00000  Uiso   1.00
C1073  C     0.10915   0.84054   0.55275   0.00000  Uiso   1.00
C1074  C     0.23765   0.80069   0.52032   0.00000  Uiso   1.00
C1075  C     0.16842   0.81405   0.97929   0.00000  Uiso   1.00
C1076  C     0.15699   0.82612   0.52603   0.00000  Uiso   1.00
C1077  C     0.21312   0.79304   0.95500   0.00000  Uiso   1.00
C1078  C     0.07442   0.84618   0.53315   0.00000  Uiso   1.00
C1079  C     0.24729   0.78630   0.97508   0.00000  Uiso   1.00
C1080  C     0.20999   0.97876   0.74367   0.00000  Uiso   1.00
C1081  C     0.12338   0.68791   0.75622   0.00000  Uiso   1.00
C1082  C     0.21000   0.68801   0.74354   0.00000  Uiso   1.00
H1083  H     0.09672   0.84650   0.58967   0.00000  Uiso   1.00
H1084  H     0.31029   0.78110   0.91840   0.00000  Uiso   1.00
H1085  H     0.15562   0.85859   0.60744   0.00000  Uiso   1.00
H1086  H     0.18553   0.81316   0.88784   0.00000  Uiso   1.00
H1087  H     0.28243   0.79509   0.60598   0.00000  Uiso   1.00
H1088  H     0.04290   0.85091   0.90000   0.00000  Uiso   1.00
H1089  H     0.01676   0.85678   0.98443   0.00000  Uiso   1.00
H1090  H     0.30450   0.77610   0.52428   0.00000  Uiso   1.00
H1091  H     0.24379   0.96262   0.73854   0.00000  Uiso   1.00
H1092  H     0.08958   0.70405   0.76134   0.00000  Uiso   1.00
H1093  H     0.05784   0.74861   0.69968   0.00000  Uiso   1.00
H1094  H     0.22185   0.77962   0.92088   0.00000  Uiso   1.00
H1095  H     0.07521   0.78493   0.65725   0.00000  Uiso   1.00
H1096  H     0.27561   0.91816   0.80004   0.00000  Uiso   1.00
H1097  H     0.25818   0.88196   0.84260   0.00000  Uiso   1.00
H1098  H     0.24381   0.70423   0.73833   0.00000  Uiso   1.00
H1099  H     0.08956   0.96245   0.76156   0.00000  Uiso   1.00
H1100  H     0.31136   0.78594   0.69894   0.00000  Uiso   1.00
H1101  H     0.02201   0.88080   0.80096   0.00000  Uiso   1.00
H1102  H     0.01246   0.84357   0.59102   0.00000  Uiso   1.00
H1103  H     0.03195   0.89197   0.57278   0.00000  Uiso   1.00
H1104  H     0.28287   0.73537   0.94009   0.00000  Uiso   1.00
N1105  N     0.04759   0.83334   0.75001   0.00000  Uiso   1.00
N1106  N     0.28574   0.83332   0.74999   0.00000  Uiso   1.00
N1107  N     0.02712   0.86226   0.56144   0.00000  Uiso   1.00
N1108  N     0.29187   0.76467   0.94918   0.00000  Uiso   1.00
N1109  N     0.07123   0.77889   0.69157   0.00000  Uiso   1.00
N1110  N     0.26217   0.88791   0.80825   0.00000  Uiso   1.00
O1111  O     0.12846   0.89442   0.75000   0.00000  Uiso   1.00
O1112  O     0.20488   0.77225   0.74999   0.00000  Uiso   1.00
O1113  O     0.20490   0.89441   0.75000   0.00000  Uiso   1.00
O1114  O     0.12843   0.77226   0.75000   0.00000  Uiso   1.00
O1115  O     0.10661   0.83334   0.81612   0.00000  Uiso   1.00
O1116  O     0.22672   0.83333   0.68387   0.00000  Uiso   1.00
O1117  O     0.18305   0.83333   0.81612   0.00000  Uiso   1.00
O1118  O     0.15028   0.83334   0.68388   0.00000  Uiso   1.00
Zn1119 Zn    0.11562   0.83334   0.75000   0.00000  Uiso   1.00
Zn1120 Zn    0.21771   0.83333   0.75000   0.00000  Uiso   1.00
C1121  C     0.50001   0.91335   0.75006   0.00000  Uiso   1.00
C1122  C     0.45671   0.97866   0.75635   0.00000  Uiso   1.00
C1123  C     0.50001   0.70915   0.74985   0.00000  Uiso   1.00
C1124  C     0.50002   0.95752   0.75006   0.00000  Uiso   1.00
C1125  C     0.65395   0.80697   0.72161   0.00000  Uiso   1.00
C1126  C     0.34607   0.85974   0.77834   0.00000  Uiso   1.00
C1127  C     0.36866   0.80684   0.72153   0.00000  Uiso   1.00
C1128  C     0.63136   0.85987   0.77840   0.00000  Uiso   1.00
C1129  C     0.46933   0.83296   0.83804   0.00000  Uiso   1.00
C1130  C     0.53065   0.83293   0.66205   0.00000  Uiso   1.00
C1131  C     0.44987   0.83168   0.88886   0.00000  Uiso   1.00
C1132  C     0.50000   0.75331   0.74991   0.00000  Uiso   1.00
C1133  C     0.54968   0.82729   0.61178   0.00000  Uiso   1.00
C1134  C     0.38699   0.84633   0.96427   0.00000  Uiso   1.00
C1135  C     0.60415   0.79306   0.54199   0.00000  Uiso   1.00
C1136  C     0.40169   0.84293   0.91606   0.00000  Uiso   1.00
C1137  C     0.59251   0.80488   0.58820   0.00000  Uiso   1.00
C1138  C     0.48184   0.82080   0.91010   0.00000  Uiso   1.00
C1139  C     0.51928   0.83833   0.58907   0.00000  Uiso   1.00
C1140  C     0.46794   0.82317   0.95835   0.00000  Uiso   1.00
C1141  C     0.52652   0.82203   0.54520   0.00000  Uiso   1.00
C1142  C     0.42035   0.83819   0.98562   0.00000  Uiso   1.00
C1143  C     0.44249   0.84054   0.55275   0.00000  Uiso   1.00
C1144  C     0.57098   0.80069   0.52032   0.00000  Uiso   1.00
C1145  C     0.50175   0.81405   0.97929   0.00000  Uiso   1.00
C1146  C     0.49033   0.82612   0.52603   0.00000  Uiso   1.00
C1147  C     0.54645   0.79304   0.95500   0.00000  Uiso   1.00
C1148  C     0.40776   0.84618   0.53315   0.00000  Uiso   1.00
C1149  C     0.58062   0.78630   0.97508   0.00000  Uiso   1.00
C1150  C     0.54332   0.97876   0.74367   0.00000  Uiso   1.00
C1151  C     0.45671   0.68791   0.75622   0.00000  Uiso   1.00
C1152  C     0.54333   0.68801   0.74354   0.00000  Uiso   1.00
H1153  H     0.43005   0.84650   0.58967   0.00000  Uiso   1.00
H1154  H     0.64362   0.78110   0.91840   0.00000  Uiso   1.00
H1155  H     0.48895   0.85859   0.60744   0.00000  Uiso   1.00
H1156  H     0.51886   0.81316   0.88784   0.00000  Uiso   1.00
H1157  H     0.61577   0.79509   0.60598   0.00000  Uiso   1.00
H1158  H     0.37623   0.85091   0.90000   0.00000  Uiso   1.00
H1159  H     0.35009   0.85678   0.98443   0.00000  Uiso   1.00
H1160  H     0.63783   0.77610   0.52428   0.00000  Uiso   1.00
H1161  H     0.57712   0.96262   0.73854   0.00000  Uiso   1.00
H1162  H     0.42292   0.70405   0.76134   0.00000  Uiso   1.00
H1163  H     0.39117   0.74861   0.69968   0.00000  Uiso   1.00
H1164  H     0.55518   0.77962   0.92088   0.00000  Uiso   1.00
H1165  H     0.40854   0.78493   0.65725   0.00000  Uiso   1.00
H1166  H     0.60894   0.91816   0.80004   0.00000  Uiso   1.00
H1167  H     0.59151   0.88196   0.84260   0.00000  Uiso   1.00
H1168  H     0.57714   0.70423   0.73833   0.00000  Uiso   1.00
H1169  H     0.42290   0.96245   0.76156   0.00000  Uiso   1.00
H1170  H     0.64469   0.78594   0.69894   0.00000  Uiso   1.00
H1171  H     0.35534   0.88080   0.80096   0.00000  Uiso   1.00
H1172  H     0.34580   0.84357   0.59102   0.00000  Uiso   1.00
H1173  H     0.36528   0.89197   0.57278   0.00000  Uiso   1.00
H1174  H     0.61621   0.73537   0.94009   0.00000  Uiso   1.00
N1175  N     0.38093   0.83334   0.75001   0.00000  Uiso   1.00
N1176  N     0.61907   0.83332   0.74999   0.00000  Uiso   1.00
N1177  N     0.36045   0.86226   0.56144   0.00000  Uiso   1.00
N1178  N     0.62520   0.76467   0.94918   0.00000  Uiso   1.00
N1179  N     0.40456   0.77889   0.69157   0.00000  Uiso   1.00
N1180  N     0.59550   0.88791   0.80825   0.00000  Uiso   1.00
O1181  O     0.46179   0.89442   0.75000   0.00000  Uiso   1.00
O1182  O     0.53821   0.77225   0.74999   0.00000  Uiso   1.00
O1183  O     0.53823   0.89441   0.75000   0.00000  Uiso   1.00
O1184  O     0.46177   0.77226   0.75000   0.00000  Uiso   1.00
O1185  O     0.43994   0.83334   0.81612   0.00000  Uiso   1.00
O1186  O     0.56006   0.83333   0.68387   0.00000  Uiso   1.00
O1187  O     0.51639   0.83333   0.81612   0.00000  Uiso   1.00
O1188  O     0.48361   0.83334   0.68388   0.00000  Uiso   1.00
Zn1189 Zn    0.44896   0.83334   0.75000   0.00000  Uiso   1.00
Zn1190 Zn    0.55104   0.83333   0.75000   0.00000  Uiso   1.00
C1191  C     0.83335   0.91335   0.75006   0.00000  Uiso   1.00
C1192  C     0.79004   0.97866   0.75635   0.00000  Uiso   1.00
C1193  C     0.83335   0.70915   0.74985   0.00000  Uiso   1.00
C1194  C     0.83335   0.95752   0.75006   0.00000  Uiso   1.00
C1195  C     0.98729   0.80697   0.72161   0.00000  Uiso   1.00
C1196  C     0.67940   0.85974   0.77834   0.00000  Uiso   1.00
C1197  C     0.70200   0.80684   0.72153   0.00000  Uiso   1.00
C1198  C     0.96469   0.85987   0.77840   0.00000  Uiso   1.00
C1199  C     0.80267   0.83296   0.83804   0.00000  Uiso   1.00
C1200  C     0.86398   0.83293   0.66205   0.00000  Uiso   1.00
C1201  C     0.78320   0.83168   0.88886   0.00000  Uiso   1.00
C1202  C     0.83333   0.75331   0.74991   0.00000  Uiso   1.00
C1203  C     0.88301   0.82729   0.61178   0.00000  Uiso   1.00
C1204  C     0.72032   0.84633   0.96427   0.00000  Uiso   1.00
C1205  C     0.93749   0.79306   0.54199   0.00000  Uiso   1.00
C1206  C     0.73503   0.84293   0.91606   0.00000  Uiso   1.00
C1207  C     0.92585   0.80488   0.58820   0.00000  Uiso   1.00
C1208  C     0.81517   0.82080   0.91010   0.00000  Uiso   1.00
C1209  C     0.85262   0.83833   0.58907   0.00000  Uiso   1.00
C1210  C     0.80128   0.82317   0.95835   0.00000  Uiso   1.00
C1211  C     0.85986   0.82203   0.54520   0.00000  Uiso   1.00
C1212  C     0.75368   0.83819   0.98562   0.00000  Uiso   1.00
C1213  C     0.77582   0.84054   0.55275   0.00000  Uiso   1.00
C1214  C     0.90432   0.80069   0.52032   0.00000  Uiso   1.00
C1215  C     0.83509   0.81405   0.97929   0.00000  Uiso   1.00
C1216  C     0.82366   0.82612   0.52603   0.00000  Uiso   1.00
C1217  C     0.87978   0.79304   0.95500   0.00000  Uiso   1.00
C1218  C     0.74109   0.84618   0.53315   0.00000  Uiso   1.00
C1219  C     0.91395   0.78630   0.97508   0.00000  Uiso   1.00
C1220  C     0.87666   0.97876   0.74367   0.00000  Uiso   1.00
C1221  C     0.79005   0.68791   0.75622   0.00000  Uiso   1.00
C1222  C     0.87666   0.68801   0.74354   0.00000  Uiso   1.00
H1223  H     0.76339   0.84650   0.58967   0.00000  Uiso   1.00
H1224  H     0.97696   0.78110   0.91840   0.00000  Uiso   1.00
H1225  H     0.82229   0.85859   0.60744   0.00000  Uiso   1.00
H1226  H     0.85219   0.81316   0.88784   0.00000  Uiso   1.00
H1227  H     0.94910   0.79509   0.60598   0.00000  Uiso   1.00
H1228  H     0.70956   0.85091   0.90000   0.00000  Uiso   1.00
H1229  H     0.68343   0.85678   0.98443   0.00000  Uiso   1.00
H1230  H     0.97117   0.77610   0.52428   0.00000  Uiso   1.00
H1231  H     0.91045   0.96262   0.73854   0.00000  Uiso   1.00
H1232  H     0.75625   0.70405   0.76134   0.00000  Uiso   1.00
H1233  H     0.72451   0.74861   0.69968   0.00000  Uiso   1.00
H1234  H     0.88851   0.77962   0.92088   0.00000  Uiso   1.00
H1235  H     0.74187   0.78493   0.65725   0.00000  Uiso   1.00
H1236  H     0.94227   0.91816   0.80004   0.00000  Uiso   1.00
H1237  H     0.92485   0.88196   0.84260   0.00000  Uiso   1.00
H1238  H     0.91048   0.70423   0.73833   0.00000  Uiso   1.00
H1239  H     0.75623   0.96245   0.76156   0.00000  Uiso   1.00
H1240  H     0.97803   0.78594   0.69894   0.00000  Uiso   1.00
H1241  H     0.68868   0.88080   0.80096   0.00000  Uiso   1.00
H1242  H     0.67913   0.84357   0.59102   0.00000  Uiso   1.00
H1243  H     0.69861   0.89197   0.57278   0.00000  Uiso   1.00
H1244  H     0.94954   0.73537   0.94009   0.00000  Uiso   1.00
N1245  N     0.71426   0.83334   0.75001   0.00000  Uiso   1.00
N1246  N     0.95241   0.83332   0.74999   0.00000  Uiso   1.00
N1247  N     0.69378   0.86226   0.56144   0.00000  Uiso   1.00
N1248  N     0.95853   0.76467   0.94918   0.00000  Uiso   1.00
N1249  N     0.73790   0.77889   0.69157   0.00000  Uiso   1.00
N1250  N     0.92884   0.88791   0.80825   0.00000  Uiso   1.00
O1251  O     0.79512   0.89442   0.75000   0.00000  Uiso   1.00
O1252  O     0.87154   0.77225   0.74999   0.00000  Uiso   1.00
O1253  O     0.87157   0.89441   0.75000   0.00000  Uiso   1.00
O1254  O     0.79510   0.77226   0.75000   0.00000  Uiso   1.00
O1255  O     0.77328   0.83334   0.81612   0.00000  Uiso   1.00
O1256  O     0.89339   0.83333   0.68387   0.00000  Uiso   1.00
O1257  O     0.84972   0.83333   0.81612   0.00000  Uiso   1.00
O1258  O     0.81695   0.83334   0.68388   0.00000  Uiso   1.00
Zn1259 Zn    0.78229   0.83334   0.75000   0.00000  Uiso   1.00
Zn1260 Zn    0.88438   0.83333   0.75000   0.00000  Uiso   1.00
loop_
_geom_bond_atom_site_label_1
_geom_bond_atom_site_label_2
_geom_bond_distance
_geom_bond_site_symmetry_2
_ccdc_geom_bond_type
C1     C4      1.420   .     S
C1     O63     1.285   .     A
C1     O61     1.285   .     A
C2     C4      1.398   .     A
C2     H49     1.084   .     S
C2     C241    1.370   .     S
C3     C31     1.397   .     A
C3     C32     1.398   .     A
C3     C12     1.420   .     S
C4     C30     1.397   .     A
C5     N56     1.364   .     A
C5     H50     1.082   .     S
C5     C77     1.421   .     S
C6     H51     1.082   .     S
C6     N55     1.364   .     A
C6     C148    1.421   1_455 S
C7     N55     1.371   .     A
C7     N59     1.429   .     S
C7     C145    1.421   1_455 S
C8     N60     1.429   .     S
C8     N56     1.371   .     A
C8     C76     1.421   .     S
C9     O67     1.295   .     A
C9     O65     1.294   .     A
C9     C11     1.459   .     S
C10    O68     1.294   .     A
C10    O66     1.292   .     A
C10    C13     1.453   .     S
C11    C18     1.391   .     A
C11    C16     1.398   .     A
C12    O62     1.285   .     A
C12    O64     1.285   .     A
C13    C17     1.396   .     A
C13    C19     1.387   .     A
C14    C22     1.410   .     A
C14    C16     1.394   .     A
C14    H39     1.083   .     S
C15    C24     1.410   .     A
C15    H40     1.083   .     S
C15    C17     1.393   .     A
C16    H38     1.083   .     S
C17    H37     1.082   .     S
C18    C20     1.395   .     A
C18    H36     1.076   .     S
C19    H35     1.078   .     S
C19    C21     1.396   .     A
C20    C22     1.421   .     A
C20    C25     1.419   .     A
C21    C26     1.418   .     A
C21    C24     1.421   .     A
C22    C658    1.400   .     S
C23    C28     1.394   .     A
C23    C26     1.416   .     A
C23    H33     1.078   .     S
C24    C659    1.399   1_554 S
C25    C27     1.418   .     A
C25    C656    1.411   .     S
C26    C655    1.411   1_554 S
C27    C29     1.395   .     A
C27    H44     1.078   .     S
C28    N57     1.434   .     S
C28    C652    1.400   1_554 S
C29    N58     1.434   .     S
C29    C654    1.399   .     S
C30    H41     1.084   .     S
C30    C242    1.370   .     S
C31    H42     1.084   .     S
C31    C422    1.370   1_545 S
C32    H48     1.084   .     S
C32    C450    1.370   1_545 S
H34    N58     1.046   .     S
H43    N59     1.046   .     S
H45    N59     1.046   .     S
H46    N60     1.045   .     S
H47    N60     1.046   .     S
H52    N57     1.045   .     S
H53    N57     1.046   .     S
H54    N58     1.046   .     S
N55    Zn69    2.014   .     S
N56    Zn70    2.014   .     S
O61    Zn69    2.000   .     S
O62    Zn70    2.000   .     S
O63    Zn70    2.001   .     S
O64    Zn69    2.001   .     S
O65    Zn69    1.967   .     S
O66    Zn70    1.967   .     S
O67    Zn70    1.911   .     S
O68    Zn69    1.911   .     S
C71    C74     1.420   .     S
C71    O133    1.285   .     A
C71    O131    1.285   .     A
C72    C74     1.398   .     A
C72    H119    1.084   .     S
C72    C311    1.370   .     S
C73    C101    1.397   .     A
C73    C102    1.398   .     A
C73    C82     1.420   .     S
C74    C100    1.397   .     A
C75    N126    1.364   .     A
C75    H120    1.082   .     S
C75    C147    1.421   .     S
C76    H121    1.082   .     S
C76    N125    1.364   .     A
C77    N125    1.371   .     A
C77    N129    1.429   .     S
C78    N130    1.429   .     S
C78    N126    1.371   .     A
C78    C146    1.421   .     S
C79    O137    1.295   .     A
C79    O135    1.294   .     A
C79    C81     1.459   .     S
C80    O138    1.294   .     A
C80    O136    1.292   .     A
C80    C83     1.453   .     S
C81    C88     1.391   .     A
C81    C86     1.398   .     A
C82    O132    1.285   .     A
C82    O134    1.285   .     A
C83    C87     1.396   .     A
C83    C89     1.387   .     A
C84    C92     1.410   .     A
C84    C86     1.394   .     A
C84    H109    1.083   .     S
C85    C94     1.410   .     A
C85    H110    1.083   .     S
C85    C87     1.393   .     A
C86    H108    1.083   .     S
C87    H107    1.082   .     S
C88    C90     1.395   .     A
C88    H106    1.076   .     S
C89    H105    1.078   .     S
C89    C91     1.396   .     A
C90    C92     1.421   .     A
C90    C95     1.419   .     A
C91    C96     1.418   .     A
C91    C94     1.421   .     A
C92    C728    1.400   .     S
C93    C98     1.394   .     A
C93    C96     1.416   .     A
C93    H103    1.078   .     S
C94    C729    1.399   1_554 S
C95    C97     1.418   .     A
C95    C726    1.411   .     S
C96    C725    1.411   1_554 S
C97    C99     1.395   .     A
C97    H114    1.078   .     S
C98    N127    1.434   .     S
C98    C722    1.400   1_554 S
C99    N128    1.434   .     S
C99    C724    1.399   .     S
C100   H111    1.084   .     S
C100   C312    1.370   .     S
C101   H112    1.084   .     S
C101   C492    1.370   1_545 S
C102   H118    1.084   .     S
C102   C520    1.370   1_545 S
H104   N128    1.046   .     S
H113   N129    1.046   .     S
H115   N129    1.046   .     S
H116   N130    1.045   .     S
H117   N130    1.046   .     S
H122   N127    1.045   .     S
H123   N127    1.046   .     S
H124   N128    1.046   .     S
N125   Zn139   2.014   .     S
N126   Zn140   2.014   .     S
O131   Zn139   2.000   .     S
O132   Zn140   2.000   .     S
O133   Zn140   2.001   .     S
O134   Zn139   2.001   .     S
O135   Zn139   1.967   .     S
O136   Zn140   1.967   .     S
O137   Zn140   1.911   .     S
O138   Zn139   1.911   .     S
C141   C144    1.420   .     S
C141   O203    1.285   .     A
C141   O201    1.285   .     A
C142   C144    1.398   .     A
C142   H189    1.084   .     S
C142   C381    1.370   .     S
C143   C171    1.397   .     A
C143   C172    1.398   .     A
C143   C152    1.420   .     S
C144   C170    1.397   .     A
C145   N196    1.364   .     A
C145   H190    1.082   .     S
C145   C7      1.421   1_655 S
C146   H191    1.082   .     S
C146   N195    1.364   .     A
C147   N195    1.371   .     A
C147   N199    1.429   .     S
C148   N200    1.429   .     S
C148   N196    1.371   .     A
C148   C6      1.421   1_655 S
C149   O207    1.295   .     A
C149   O205    1.294   .     A
C149   C151    1.459   .     S
C150   O208    1.294   .     A
C150   O206    1.292   .     A
C150   C153    1.453   .     S
C151   C158    1.391   .     A
C151   C156    1.398   .     A
C152   O202    1.285   .     A
C152   O204    1.285   .     A
C153   C157    1.396   .     A
C153   C159    1.387   .     A
C154   C162    1.410   .     A
C154   C156    1.394   .     A
C154   H179    1.083   .     S
C155   C164    1.410   .     A
C155   H180    1.083   .     S
C155   C157    1.393   .     A
C156   H178    1.083   .     S
C157   H177    1.082   .     S
C158   C160    1.395   .     A
C158   H176    1.076   .     S
C159   H175    1.078   .     S
C159   C161    1.396   .     A
C160   C162    1.421   .     A
C160   C165    1.419   .     A
C161   C166    1.418   .     A
C161   C164    1.421   .     A
C162   C798    1.400   .     S
C163   C168    1.394   .     A
C163   C166    1.416   .     A
C163   H173    1.078   .     S
C164   C799    1.399   1_554 S
C165   C167    1.418   .     A
C165   C796    1.411   .     S
C166   C795    1.411   1_554 S
C167   C169    1.395   .     A
C167   H184    1.078   .     S
C168   N197    1.434   .     S
C168   C792    1.400   1_554 S
C169   N198    1.434   .     S
C169   C794    1.399   .     S
C170   H181    1.084   .     S
C170   C382    1.370   .     S
C171   H182    1.084   .     S
C171   C562    1.370   1_545 S
C172   H188    1.084   .     S
C172   C590    1.370   1_545 S
H174   N198    1.046   .     S
H183   N199    1.046   .     S
H185   N199    1.046   .     S
H186   N200    1.045   .     S
H187   N200    1.046   .     S
H192   N197    1.045   .     S
H193   N197    1.046   .     S
H194   N198    1.046   .     S
N195   Zn209   2.014   .     S
N196   Zn210   2.014   .     S
O201   Zn209   2.000   .     S
O202   Zn210   2.000   .     S
O203   Zn210   2.001   .     S
O204   Zn209   2.001   .     S
O205   Zn209   1.967   .     S
O206   Zn210   1.967   .     S
O207   Zn210   1.911   .     S
O208   Zn209   1.911   .     S
C211   C214    1.420   .     S
C211   O273    1.285   .     A
C211   O271    1.285   .     A
C212   C214    1.398   .     A
C212   H259    1.084   .     S
C212   C451    1.370   .     S
C213   C241    1.397   .     A
C213   C242    1.398   .     A
C213   C222    1.420   .     S
C214   C240    1.397   .     A
C215   N266    1.364   .     A
C215   H260    1.082   .     S
C215   C287    1.421   .     S
C216   H261    1.082   .     S
C216   N265    1.364   .     A
C216   C358    1.421   1_455 S
C217   N265    1.371   .     A
C217   N269    1.429   .     S
C217   C355    1.421   1_455 S
C218   N270    1.429   .     S
C218   N266    1.371   .     A
C218   C286    1.421   .     S
C219   O277    1.295   .     A
C219   O275    1.294   .     A
C219   C221    1.459   .     S
C220   O278    1.294   .     A
C220   O276    1.292   .     A
C220   C223    1.453   .     S
C221   C228    1.391   .     A
C221   C226    1.398   .     A
C222   O272    1.285   .     A
C222   O274    1.285   .     A
C223   C227    1.396   .     A
C223   C229    1.387   .     A
C224   C232    1.410   .     A
C224   C226    1.394   .     A
C224   H249    1.083   .     S
C225   C234    1.410   .     A
C225   H250    1.083   .     S
C225   C227    1.393   .     A
C226   H248    1.083   .     S
C227   H247    1.082   .     S
C228   C230    1.395   .     A
C228   H246    1.076   .     S
C229   H245    1.078   .     S
C229   C231    1.396   .     A
C230   C232    1.421   .     A
C230   C235    1.419   .     A
C231   C236    1.418   .     A
C231   C234    1.421   .     A
C232   C868    1.400   .     S
C233   C238    1.394   .     A
C233   C236    1.416   .     A
C233   H243    1.078   .     S
C234   C869    1.399   1_554 S
C235   C237    1.418   .     A
C235   C866    1.411   .     S
C236   C865    1.411   1_554 S
C237   C239    1.395   .     A
C237   H254    1.078   .     S
C238   N267    1.434   .     S
C238   C862    1.400   1_554 S
C239   N268    1.434   .     S
C239   C864    1.399   .     S
C240   H251    1.084   .     S
C240   C452    1.370   .     S
C241   H252    1.084   .     S
C242   H258    1.084   .     S
H244   N268    1.046   .     S
H253   N269    1.046   .     S
H255   N269    1.046   .     S
H256   N270    1.045   .     S
H257   N270    1.046   .     S
H262   N267    1.045   .     S
H263   N267    1.046   .     S
H264   N268    1.046   .     S
N265   Zn279   2.014   .     S
N266   Zn280   2.014   .     S
O271   Zn279   2.000   .     S
O272   Zn280   2.000   .     S
O273   Zn280   2.001   .     S
O274   Zn279   2.001   .     S
O275   Zn279   1.967   .     S
O276   Zn280   1.967   .     S
O277   Zn280   1.911   .     S
O278   Zn279   1.911   .     S
C281   C284    1.420   .     S
C281   O343    1.285   .     A
C281   O341    1.285   .     A
C282   C284    1.398   .     A
C282   H329    1.084   .     S
C282   C521    1.370   .     S
C283   C311    1.397   .     A
C283   C312    1.398   .     A
C283   C292    1.420   .     S
C284   C310    1.397   .     A
C285   N336    1.364   .     A
C285   H330    1.082   .     S
C285   C357    1.421   .     S
C286   H331    1.082   .     S
C286   N335    1.364   .     A
C287   N335    1.371   .     A
C287   N339    1.429   .     S
C288   N340    1.429   .     S
C288   N336    1.371   .     A
C288   C356    1.421   .     S
C289   O347    1.295   .     A
C289   O345    1.294   .     A
C289   C291    1.459   .     S
C290   O348    1.294   .     A
C290   O346    1.292   .     A
C290   C293    1.453   .     S
C291   C298    1.391   .     A
C291   C296    1.398   .     A
C292   O342    1.285   .     A
C292   O344    1.285   .     A
C293   C297    1.396   .     A
C293   C299    1.387   .     A
C294   C302    1.410   .     A
C294   C296    1.394   .     A
C294   H319    1.083   .     S
C295   C304    1.410   .     A
C295   H320    1.083   .     S
C295   C297    1.393   .     A
C296   H318    1.083   .     S
C297   H317    1.082   .     S
C298   C300    1.395   .     A
C298   H316    1.076   .     S
C299   H315    1.078   .     S
C299   C301    1.396   .     A
C300   C302    1.421   .     A
C300   C305    1.419   .     A
C301   C306    1.418   .     A
C301   C304    1.421   .     A
C302   C938    1.400   .     S
C303   C308    1.394   .     A
C303   C306    1.416   .     A
C303   H313    1.078   .     S
C304   C939    1.399   1_554 S
C305   C307    1.418   .     A
C305   C936    1.411   .     S
C306   C935    1.411   1_554 S
C307   C309    1.395   .     A
C307   H324    1.078   .     S
C308   N337    1.434   .     S
C308   C932    1.400   1_554 S
C309   N338    1.434   .     S
C309   C934    1.399   .     S
C310   H321    1.084   .     S
C310   C522    1.370   .     S
C311   H322    1.084   .     S
C312   H328    1.084   .     S
H314   N338    1.046   .     S
H323   N339    1.046   .     S
H325   N339    1.046   .     S
H326   N340    1.045   .     S
H327   N340    1.046   .     S
H332   N337    1.045   .     S
H333   N337    1.046   .     S
H334   N338    1.046   .     S
N335   Zn349   2.014   .     S
N336   Zn350   2.014   .     S
O341   Zn349   2.000   .     S
O342   Zn350   2.000   .     S
O343   Zn350   2.001   .     S
O344   Zn349   2.001   .     S
O345   Zn349   1.967   .     S
O346   Zn350   1.967   .     S
O347   Zn350   1.911   .     S
O348   Zn349   1.911   .     S
C351   C354    1.420   .     S
C351   O413    1.285   .     A
C351   O411    1.285   .     A
C352   C354    1.398   .     A
C352   H399    1.084   .     S
C352   C591    1.370   .     S
C353   C381    1.397   .     A
C353   C382    1.398   .     A
C353   C362    1.420   .     S
C354   C380    1.397   .     A
C355   N406    1.364   .     A
C355   H400    1.082   .     S
C355   C217    1.421   1_655 S
C356   H401    1.082   .     S
C356   N405    1.364   .     A
C357   N405    1.371   .     A
C357   N409    1.429   .     S
C358   N410    1.429   .     S
C358   N406    1.371   .     A
C358   C216    1.421   1_655 S
C359   O417    1.295   .     A
C359   O415    1.294   .     A
C359   C361    1.459   .     S
C360   O418    1.294   .     A
C360   O416    1.292   .     A
C360   C363    1.453   .     S
C361   C368    1.391   .     A
C361   C366    1.398   .     A
C362   O412    1.285   .     A
C362   O414    1.285   .     A
C363   C367    1.396   .     A
C363   C369    1.387   .     A
C364   C372    1.410   .     A
C364   C366    1.394   .     A
C364   H389    1.083   .     S
C365   C374    1.410   .     A
C365   H390    1.083   .     S
C365   C367    1.393   .     A
C366   H388    1.083   .     S
C367   H387    1.082   .     S
C368   C370    1.395   .     A
C368   H386    1.076   .     S
C369   H385    1.078   .     S
C369   C371    1.396   .     A
C370   C372    1.421   .     A
C370   C375    1.419   .     A
C371   C376    1.418   .     A
C371   C374    1.421   .     A
C372   C1008   1.400   .     S
C373   C378    1.394   .     A
C373   C376    1.416   .     A
C373   H383    1.078   .     S
C374   C1009   1.399   1_554 S
C375   C377    1.418   .     A
C375   C1006   1.411   .     S
C376   C1005   1.411   1_554 S
C377   C379    1.395   .     A
C377   H394    1.078   .     S
C378   N407    1.434   .     S
C378   C1002   1.400   1_554 S
C379   N408    1.434   .     S
C379   C1004   1.399   .     S
C380   H391    1.084   .     S
C380   C592    1.370   .     S
C381   H392    1.084   .     S
C382   H398    1.084   .     S
H384   N408    1.046   .     S
H393   N409    1.046   .     S
H395   N409    1.046   .     S
H396   N410    1.045   .     S
H397   N410    1.046   .     S
H402   N407    1.045   .     S
H403   N407    1.046   .     S
H404   N408    1.046   .     S
N405   Zn419   2.014   .     S
N406   Zn420   2.014   .     S
O411   Zn419   2.000   .     S
O412   Zn420   2.000   .     S
O413   Zn420   2.001   .     S
O414   Zn419   2.001   .     S
O415   Zn419   1.967   .     S
O416   Zn420   1.967   .     S
O417   Zn420   1.911   .     S
O418   Zn419   1.911   .     S
C421   C424    1.420   .     S
C421   O483    1.285   .     A
C421   O481    1.285   .     A
C422   C424    1.398   .     A
C422   H469    1.084   .     S
C422   C31     1.370   1_565 S
C423   C451    1.397   .     A
C423   C452    1.398   .     A
C423   C432    1.420   .     S
C424   C450    1.397   .     A
C425   N476    1.364   .     A
C425   H470    1.082   .     S
C425   C497    1.421   .     S
C426   H471    1.082   .     S
C426   N475    1.364   .     A
C426   C568    1.421   1_455 S
C427   N475    1.371   .     A
C427   N479    1.429   .     S
C427   C565    1.421   1_455 S
C428   N480    1.429   .     S
C428   N476    1.371   .     A
C428   C496    1.421   .     S
C429   O487    1.295   .     A
C429   O485    1.294   .     A
C429   C431    1.459   .     S
C430   O488    1.294   .     A
C430   O486    1.292   .     A
C430   C433    1.453   .     S
C431   C438    1.391   .     A
C431   C436    1.398   .     A
C432   O482    1.285   .     A
C432   O484    1.285   .     A
C433   C437    1.396   .     A
C433   C439    1.387   .     A
C434   C442    1.410   .     A
C434   C436    1.394   .     A
C434   H459    1.083   .     S
C435   C444    1.410   .     A
C435   H460    1.083   .     S
C435   C437    1.393   .     A
C436   H458    1.083   .     S
C437   H457    1.082   .     S
C438   C440    1.395   .     A
C438   H456    1.076   .     S
C439   H455    1.078   .     S
C439   C441    1.396   .     A
C440   C442    1.421   .     A
C440   C445    1.419   .     A
C441   C446    1.418   .     A
C441   C444    1.421   .     A
C442   C1078   1.400   .     S
C443   C448    1.394   .     A
C443   C446    1.416   .     A
C443   H453    1.078   .     S
C444   C1079   1.399   1_554 S
C445   C447    1.418   .     A
C445   C1076   1.411   .     S
C446   C1075   1.411   1_554 S
C447   C449    1.395   .     A
C447   H464    1.078   .     S
C448   N477    1.434   .     S
C448   C1072   1.400   1_554 S
C449   N478    1.434   .     S
C449   C1074   1.399   .     S
C450   H461    1.084   .     S
C450   C32     1.370   1_565 S
C451   H462    1.084   .     S
C452   H468    1.084   .     S
H454   N478    1.046   .     S
H463   N479    1.046   .     S
H465   N479    1.046   .     S
H466   N480    1.045   .     S
H467   N480    1.046   .     S
H472   N477    1.045   .     S
H473   N477    1.046   .     S
H474   N478    1.046   .     S
N475   Zn489   2.014   .     S
N476   Zn490   2.014   .     S
O481   Zn489   2.000   .     S
O482   Zn490   2.000   .     S
O483   Zn490   2.001   .     S
O484   Zn489   2.001   .     S
O485   Zn489   1.967   .     S
O486   Zn490   1.967   .     S
O487   Zn490   1.911   .     S
O488   Zn489   1.911   .     S
C491   C494    1.420   .     S
C491   O553    1.285   .     A
C491   O551    1.285   .     A
C492   C494    1.398   .     A
C492   H539    1.084   .     S
C492   C101    1.370   1_565 S
C493   C521    1.397   .     A
C493   C522    1.398   .     A
C493   C502    1.420   .     S
C494   C520    1.397   .     A
C495   N546    1.364   .     A
C495   H540    1.082   .     S
C495   C567    1.421   .     S
C496   H541    1.082   .     S
C496   N545    1.364   .     A
C497   N545    1.371   .     A
C497   N549    1.429   .     S
C498   N550    1.429   .     S
C498   N546    1.371   .     A
C498   C566    1.421   .     S
C499   O557    1.295   .     A
C499   O555    1.294   .     A
C499   C501    1.459   .     S
C500   O558    1.294   .     A
C500   O556    1.292   .     A
C500   C503    1.453   .     S
C501   C508    1.391   .     A
C501   C506    1.398   .     A
C502   O552    1.285   .     A
C502   O554    1.285   .     A
C503   C507    1.396   .     A
C503   C509    1.387   .     A
C504   C512    1.410   .     A
C504   C506    1.394   .     A
C504   H529    1.083   .     S
C505   C514    1.410   .     A
C505   H530    1.083   .     S
C505   C507    1.393   .     A
C506   H528    1.083   .     S
C507   H527    1.082   .     S
C508   C510    1.395   .     A
C508   H526    1.076   .     S
C509   H525    1.078   .     S
C509   C511    1.396   .     A
C510   C512    1.421   .     A
C510   C515    1.419   .     A
C511   C516    1.418   .     A
C511   C514    1.421   .     A
C512   C1148   1.400   .     S
C513   C518    1.394   .     A
C513   C516    1.416   .     A
C513   H523    1.078   .     S
C514   C1149   1.399   1_554 S
C515   C517    1.418   .     A
C515   C1146   1.411   .     S
C516   C1145   1.411   1_554 S
C517   C519    1.395   .     A
C517   H534    1.078   .     S
C518   N547    1.434   .     S
C518   C1142   1.400   1_554 S
C519   N548    1.434   .     S
C519   C1144   1.399   .     S
C520   H531    1.084   .     S
C520   C102    1.370   1_565 S
C521   H532    1.084   .     S
C522   H538    1.084   .     S
H524   N548    1.046   .     S
H533   N549    1.046   .     S
H535   N549    1.046   .     S
H536   N550    1.045   .     S
H537   N550    1.046   .     S
H542   N547    1.045   .     S
H543   N547    1.046   .     S
H544   N548    1.046   .     S
N545   Zn559   2.014   .     S
N546   Zn560   2.014   .     S
O551   Zn559   2.000   .     S
O552   Zn560   2.000   .     S
O553   Zn560   2.001   .     S
O554   Zn559   2.001   .     S
O555   Zn559   1.967   .     S
O556   Zn560   1.967   .     S
O557   Zn560   1.911   .     S
O558   Zn559   1.911   .     S
C561   C564    1.420   .     S
C561   O623    1.285   .     A
C561   O621    1.285   .     A
C562   C564    1.398   .     A
C562   H609    1.084   .     S
C562   C171    1.370   1_565 S
C563   C591    1.397   .     A
C563   C592    1.398   .     A
C563   C572    1.420   .     S
C564   C590    1.397   .     A
C565   N616    1.364   .     A
C565   H610    1.082   .     S
C565   C427    1.421   1_655 S
C566   H611    1.082   .     S
C566   N615    1.364   .     A
C567   N615    1.371   .     A
C567   N619    1.429   .     S
C568   N620    1.429   .     S
C568   N616    1.371   .     A
C568   C426    1.421   1_655 S
C569   O627    1.295   .     A
C569   O625    1.294   .     A
C569   C571    1.459   .     S
C570   O628    1.294   .     A
C570   O626    1.292   .     A
C570   C573    1.453   .     S
C571   C578    1.391   .     A
C571   C576    1.398   .     A
C572   O622    1.285   .     A
C572   O624    1.285   .     A
C573   C577    1.396   .     A
C573   C579    1.387   .     A
C574   C582    1.410   .     A
C574   C576    1.394   .     A
C574   H599    1.083   .     S
C575   C584    1.410   .     A
C575   H600    1.083   .     S
C575   C577    1.393   .     A
C576   H598    1.083   .     S
C577   H597    1.082   .     S
C578   C580    1.395   .     A
C578   H596    1.076   .     S
C579   H595    1.078   .     S
C579   C581    1.396   .     A
C580   C582    1.421   .     A
C580   C585    1.419   .     A
C581   C586    1.418   .     A
C581   C584    1.421   .     A
C582   C1218   1.400   .     S
C583   C588    1.394   .     A
C583   C586    1.416   .     A
C583   H593    1.078   .     S
C584   C1219   1.399   1_554 S
C585   C587    1.418   .     A
C585   C1216   1.411   .     S
C586   C1215   1.411   1_554 S
C587   C589    1.395   .     A
C587   H604    1.078   .     S
C588   N617    1.434   .     S
C588   C1212   1.400   1_554 S
C589   N618    1.434   .     S
C589   C1214   1.399   .     S
C590   H601    1.084   .     S
C590   C172    1.370   1_565 S
C591   H602    1.084   .     S
C592   H608    1.084   .     S
H594   N618    1.046   .     S
H603   N619    1.046   .     S
H605   N619    1.046   .     S
H606   N620    1.045   .     S
H607   N620    1.046   .     S
H612   N617    1.045   .     S
H613   N617    1.046   .     S
H614   N618    1.046   .     S
N615   Zn629   2.014   .     S
N616   Zn630   2.014   .     S
O621   Zn629   2.000   .     S
O622   Zn630   2.000   .     S
O623   Zn630   2.001   .     S
O624   Zn629   2.001   .     S
O625   Zn629   1.967   .     S
O626   Zn630   1.967   .     S
O627   Zn630   1.911   .     S
O628   Zn629   1.911   .     S
C631   C634    1.420   .     S
C631   O693    1.285   .     A
C631   O691    1.285   .     A
C632   C634    1.398   .     A
C632   H679    1.084   .     S
C632   C871    1.370   .     S
C633   C661    1.397   .     A
C633   C662    1.398   .     A
C633   C642    1.420   .     S
C634   C660    1.397   .     A
C635   N686    1.364   .     A
C635   H680    1.082   .     S
C635   C707    1.421   .     S
C636   H681    1.082   .     S
C636   N685    1.364   .     A
C636   C778    1.421   1_455 S
C637   N685    1.371   .     A
C637   N689    1.429   .     S
C637   C775    1.421   1_455 S
C638   N690    1.429   .     S
C638   N686    1.371   .     A
C638   C706    1.421   .     S
C639   O697    1.295   .     A
C639   O695    1.294   .     A
C639   C641    1.459   .     S
C640   O698    1.294   .     A
C640   O696    1.292   .     A
C640   C643    1.453   .     S
C641   C648    1.391   .     A
C641   C646    1.398   .     A
C642   O692    1.285   .     A
C642   O694    1.285   .     A
C643   C647    1.396   .     A
C643   C649    1.387   .     A
C644   C652    1.410   .     A
C644   C646    1.394   .     A
C644   H669    1.083   .     S
C645   C654    1.410   .     A
C645   H670    1.083   .     S
C645   C647    1.393   .     A
C646   H668    1.083   .     S
C647   H667    1.082   .     S
C648   C650    1.395   .     A
C648   H666    1.076   .     S
C649   H665    1.078   .     S
C649   C651    1.396   .     A
C650   C652    1.421   .     A
C650   C655    1.419   .     A
C651   C656    1.418   .     A
C651   C654    1.421   .     A
C652   C28     1.400   1_556 S
C653   C658    1.394   .     A
C653   C656    1.416   .     A
C653   H663    1.078   .     S
C655   C657    1.418   .     A
C655   C26     1.411   1_556 S
C657   C659    1.395   .     A
C657   H674    1.078   .     S
C658   N687    1.434   .     S
C659   N688    1.434   .     S
C659   C24     1.399   1_556 S
C660   H671    1.084   .     S
C660   C872    1.370   .     S
C661   H672    1.084   .     S
C661   C1052   1.370   1_545 S
C662   H678    1.084   .     S
C662   C1080   1.370   1_545 S
H664   N688    1.046   .     S
H673   N689    1.046   .     S
H675   N689    1.046   .     S
H676   N690    1.045   .     S
H677   N690    1.046   .     S
H682   N687    1.045   .     S
H683   N687    1.046   .     S
H684   N688    1.046   .     S
N685   Zn699   2.014   .     S
N686   Zn700   2.014   .     S
O691   Zn699   2.000   .     S
O692   Zn700   2.000   .     S
O693   Zn700   2.001   .     S
O694   Zn699   2.001   .     S
O695   Zn699   1.967   .     S
O696   Zn700   1.967   .     S
O697   Zn700   1.911   .     S
O698   Zn699   1.911   .     S
C701   C704    1.420   .     S
C701   O763    1.285   .     A
C701   O761    1.285   .     A
C702   C704    1.398   .     A
C702   H749    1.084   .     S
C702   C941    1.370   .     S
C703   C731    1.397   .     A
C703   C732    1.398   .     A
C703   C712    1.420   .     S
C704   C730    1.397   .     A
C705   N756    1.364   .     A
C705   H750    1.082   .     S
C705   C777    1.421   .     S
C706   H751    1.082   .     S
C706   N755    1.364   .     A
C707   N755    1.371   .     A
C707   N759    1.429   .     S
C708   N760    1.429   .     S
C708   N756    1.371   .     A
C708   C776    1.421   .     S
C709   O767    1.295   .     A
C709   O765    1.294   .     A
C709   C711    1.459   .     S
C710   O768    1.294   .     A
C710   O766    1.292   .     A
C710   C713    1.453   .     S
C711   C718    1.391   .     A
C711   C716    1.398   .     A
C712   O762    1.285   .     A
C712   O764    1.285   .     A
C713   C717    1.396   .     A
C713   C719    1.387   .     A
C714   C722    1.410   .     A
C714   C716    1.394   .     A
C714   H739    1.083   .     S
C715   C724    1.410   .     A
C715   H740    1.083   .     S
C715   C717    1.393   .     A
C716   H738    1.083   .     S
C717   H737    1.082   .     S
C718   C720    1.395   .     A
C718   H736    1.076   .     S
C719   H735    1.078   .     S
C719   C721    1.396   .     A
C720   C722    1.421   .     A
C720   C725    1.419   .     A
C721   C726    1.418   .     A
C721   C724    1.421   .     A
C722   C98     1.400   1_556 S
C723   C728    1.394   .     A
C723   C726    1.416   .     A
C723   H733    1.078   .     S
C725   C727    1.418   .     A
C725   C96     1.411   1_556 S
C727   C729    1.395   .     A
C727   H744    1.078   .     S
C728   N757    1.434   .     S
C729   N758    1.434   .     S
C729   C94     1.399   1_556 S
C730   H741    1.084   .     S
C730   C942    1.370   .     S
C731   H742    1.084   .     S
C731   C1122   1.370   1_545 S
C732   H748    1.084   .     S
C732   C1150   1.370   1_545 S
H734   N758    1.046   .     S
H743   N759    1.046   .     S
H745   N759    1.046   .     S
H746   N760    1.045   .     S
H747   N760    1.046   .     S
H752   N757    1.045   .     S
H753   N757    1.046   .     S
H754   N758    1.046   .     S
N755   Zn769   2.014   .     S
N756   Zn770   2.014   .     S
O761   Zn769   2.000   .     S
O762   Zn770   2.000   .     S
O763   Zn770   2.001   .     S
O764   Zn769   2.001   .     S
O765   Zn769   1.967   .     S
O766   Zn770   1.967   .     S
O767   Zn770   1.911   .     S
O768   Zn769   1.911   .     S
C771   C774    1.420   .     S
C771   O833    1.285   .     A
C771   O831    1.285   .     A
C772   C774    1.398   .     A
C772   H819    1.084   .     S
C772   C1011   1.370   .     S
C773   C801    1.397   .     A
C773   C802    1.398   .     A
C773   C782    1.420   .     S
C774   C800    1.397   .     A
C775   N826    1.364   .     A
C775   H820    1.082   .     S
C775   C637    1.421   1_655 S
C776   H821    1.082   .     S
C776   N825    1.364   .     A
C777   N825    1.371   .     A
C777   N829    1.429   .     S
C778   N830    1.429   .     S
C778   N826    1.371   .     A
C778   C636    1.421   1_655 S
C779   O837    1.295   .     A
C779   O835    1.294   .     A
C779   C781    1.459   .     S
C780   O838    1.294   .     A
C780   O836    1.292   .     A
C780   C783    1.453   .     S
C781   C788    1.391   .     A
C781   C786    1.398   .     A
C782   O832    1.285   .     A
C782   O834    1.285   .     A
C783   C787    1.396   .     A
C783   C789    1.387   .     A
C784   C792    1.410   .     A
C784   C786    1.394   .     A
C784   H809    1.083   .     S
C785   C794    1.410   .     A
C785   H810    1.083   .     S
C785   C787    1.393   .     A
C786   H808    1.083   .     S
C787   H807    1.082   .     S
C788   C790    1.395   .     A
C788   H806    1.076   .     S
C789   H805    1.078   .     S
C789   C791    1.396   .     A
C790   C792    1.421   .     A
C790   C795    1.419   .     A
C791   C796    1.418   .     A
C791   C794    1.421   .     A
C792   C168    1.400   1_556 S
C793   C798    1.394   .     A
C793   C796    1.416   .     A
C793   H803    1.078   .     S
C795   C797    1.418   .     A
C795   C166    1.411   1_556 S
C797   C799    1.395   .     A
C797   H814    1.078   .     S
C798   N827    1.434   .     S
C799   N828    1.434   .     S
C799   C164    1.399   1_556 S
C800   H811    1.084   .     S
C800   C1012   1.370   .     S
C801   H812    1.084   .     S
C801   C1192   1.370   1_545 S
C802   H818    1.084   .     S
C802   C1220   1.370   1_545 S
H804   N828    1.046   .     S
H813   N829    1.046   .     S
H815   N829    1.046   .     S
H816   N830    1.045   .     S
H817   N830    1.046   .     S
H822   N827    1.045   .     S
H823   N827    1.046   .     S
H824   N828    1.046   .     S
N825   Zn839   2.014   .     S
N826   Zn840   2.014   .     S
O831   Zn839   2.000   .     S
O832   Zn840   2.000   .     S
O833   Zn840   2.001   .     S
O834   Zn839   2.001   .     S
O835   Zn839   1.967   .     S
O836   Zn840   1.967   .     S
O837   Zn840   1.911   .     S
O838   Zn839   1.911   .     S
C841   C844    1.420   .     S
C841   O903    1.285   .     A
C841   O901    1.285   .     A
C842   C844    1.398   .     A
C842   H889    1.084   .     S
C842   C1081   1.370   .     S
C843   C871    1.397   .     A
C843   C872    1.398   .     A
C843   C852    1.420   .     S
C844   C870    1.397   .     A
C845   N896    1.364   .     A
C845   H890    1.082   .     S
C845   C917    1.421   .     S
C846   H891    1.082   .     S
C846   N895    1.364   .     A
C846   C988    1.421   1_455 S
C847   N895    1.371   .     A
C847   N899    1.429   .     S
C847   C985    1.421   1_455 S
C848   N900    1.429   .     S
C848   N896    1.371   .     A
C848   C916    1.421   .     S
C849   O907    1.295   .     A
C849   O905    1.294   .     A
C849   C851    1.459   .     S
C850   O908    1.294   .     A
C850   O906    1.292   .     A
C850   C853    1.453   .     S
C851   C858    1.391   .     A
C851   C856    1.398   .     A
C852   O902    1.285   .     A
C852   O904    1.285   .     A
C853   C857    1.396   .     A
C853   C859    1.387   .     A
C854   C862    1.410   .     A
C854   C856    1.394   .     A
C854   H879    1.083   .     S
C855   C864    1.410   .     A
C855   H880    1.083   .     S
C855   C857    1.393   .     A
C856   H878    1.083   .     S
C857   H877    1.082   .     S
C858   C860    1.395   .     A
C858   H876    1.076   .     S
C859   H875    1.078   .     S
C859   C861    1.396   .     A
C860   C862    1.421   .     A
C860   C865    1.419   .     A
C861   C866    1.418   .     A
C861   C864    1.421   .     A
C862   C238    1.400   1_556 S
C863   C868    1.394   .     A
C863   C866    1.416   .     A
C863   H873    1.078   .     S
C865   C867    1.418   .     A
C865   C236    1.411   1_556 S
C867   C869    1.395   .     A
C867   H884    1.078   .     S
C868   N897    1.434   .     S
C869   N898    1.434   .     S
C869   C234    1.399   1_556 S
C870   H881    1.084   .     S
C870   C1082   1.370   .     S
C871   H882    1.084   .     S
C872   H888    1.084   .     S
H874   N898    1.046   .     S
H883   N899    1.046   .     S
H885   N899    1.046   .     S
H886   N900    1.045   .     S
H887   N900    1.046   .     S
H892   N897    1.045   .     S
H893   N897    1.046   .     S
H894   N898    1.046   .     S
N895   Zn909   2.014   .     S
N896   Zn910   2.014   .     S
O901   Zn909   2.000   .     S
O902   Zn910   2.000   .     S
O903   Zn910   2.001   .     S
O904   Zn909   2.001   .     S
O905   Zn909   1.967   .     S
O906   Zn910   1.967   .     S
O907   Zn910   1.911   .     S
O908   Zn909   1.911   .     S
C911   C914    1.420   .     S
C911   O973    1.285   .     A
C911   O971    1.285   .     A
C912   C914    1.398   .     A
C912   H959    1.084   .     S
C912   C1151   1.370   .     S
C913   C941    1.397   .     A
C913   C942    1.398   .     A
C913   C922    1.420   .     S
C914   C940    1.397   .     A
C915   N966    1.364   .     A
C915   H960    1.082   .     S
C915   C987    1.421   .     S
C916   H961    1.082   .     S
C916   N965    1.364   .     A
C917   N965    1.371   .     A
C917   N969    1.429   .     S
C918   N970    1.429   .     S
C918   N966    1.371   .     A
C918   C986    1.421   .     S
C919   O977    1.295   .     A
C919   O975    1.294   .     A
C919   C921    1.459   .     S
C920   O978    1.294   .     A
C920   O976    1.292   .     A
C920   C923    1.453   .     S
C921   C928    1.391   .     A
C921   C926    1.398   .     A
C922   O972    1.285   .     A
C922   O974    1.285   .     A
C923   C927    1.396   .     A
C923   C929    1.387   .     A
C924   C932    1.410   .     A
C924   C926    1.394   .     A
C924   H949    1.083   .     S
C925   C934    1.410   .     A
C925   H950    1.083   .     S
C925   C927    1.393   .     A
C926   H948    1.083   .     S
C927   H947    1.082   .     S
C928   C930    1.395   .     A
C928   H946    1.076   .     S
C929   H945    1.078   .     S
C929   C931    1.396   .     A
C930   C932    1.421   .     A
C930   C935    1.419   .     A
C931   C936    1.418   .     A
C931   C934    1.421   .     A
C932   C308    1.400   1_556 S
C933   C938    1.394   .     A
C933   C936    1.416   .     A
C933   H943    1.078   .     S
C935   C937    1.418   .     A
C935   C306    1.411   1_556 S
C937   C939    1.395   .     A
C937   H954    1.078   .     S
C938   N967    1.434   .     S
C939   N968    1.434   .     S
C939   C304    1.399   1_556 S
C940   H951    1.084   .     S
C940   C1152   1.370   .     S
C941   H952    1.084   .     S
C942   H958    1.084   .     S
H944   N968    1.046   .     S
H953   N969    1.046   .     S
H955   N969    1.046   .     S
H956   N970    1.045   .     S
H957   N970    1.046   .     S
H962   N967    1.045   .     S
H963   N967    1.046   .     S
H964   N968    1.046   .     S
N965   Zn979   2.014   .     S
N966   Zn980   2.014   .     S
O971   Zn979   2.000   .     S
O972   Zn980   2.000   .     S
O973   Zn980   2.001   .     S
O974   Zn979   2.001   .     S
O975   Zn979   1.967   .     S
O976   Zn980   1.967   .     S
O977   Zn980   1.911   .     S
O978   Zn979   1.911   .     S
C981   C984    1.420   .     S
C981   O1043   1.285   .     A
C981   O1041   1.285   .     A
C982   C984    1.398   .     A
C982   H1029   1.084   .     S
C982   C1221   1.370   .     S
C983   C1011   1.397   .     A
C983   C1012   1.398   .     A
C983   C992    1.420   .     S
C984   C1010   1.397   .     A
C985   N1036   1.364   .     A
C985   H1030   1.082   .     S
C985   C847    1.421   1_655 S
C986   H1031   1.082   .     S
C986   N1035   1.364   .     A
C987   N1035   1.371   .     A
C987   N1039   1.429   .     S
C988   N1040   1.429   .     S
C988   N1036   1.371   .     A
C988   C846    1.421   1_655 S
C989   O1047   1.295   .     A
C989   O1045   1.294   .     A
C989   C991    1.459   .     S
C990   O1048   1.294   .     A
C990   O1046   1.292   .     A
C990   C993    1.453   .     S
C991   C998    1.391   .     A
C991   C996    1.398   .     A
C992   O1042   1.285   .     A
C992   O1044   1.285   .     A
C993   C997    1.396   .     A
C993   C999    1.387   .     A
C994   C1002   1.410   .     A
C994   C996    1.394   .     A
C994   H1019   1.083   .     S
C995   C1004   1.410   .     A
C995   H1020   1.083   .     S
C995   C997    1.393   .     A
C996   H1018   1.083   .     S
C997   H1017   1.082   .     S
C998   C1000   1.395   .     A
C998   H1016   1.076   .     S
C999   H1015   1.078   .     S
C999   C1001   1.396   .     A
C1000  C1002   1.421   .     A
C1000  C1005   1.419   .     A
C1001  C1006   1.418   .     A
C1001  C1004   1.421   .     A
C1002  C378    1.400   1_556 S
C1003  C1008   1.394   .     A
C1003  C1006   1.416   .     A
C1003  H1013   1.078   .     S
C1005  C1007   1.418   .     A
C1005  C376    1.411   1_556 S
C1007  C1009   1.395   .     A
C1007  H1024   1.078   .     S
C1008  N1037   1.434   .     S
C1009  N1038   1.434   .     S
C1009  C374    1.399   1_556 S
C1010  H1021   1.084   .     S
C1010  C1222   1.370   .     S
C1011  H1022   1.084   .     S
C1012  H1028   1.084   .     S
H1014  N1038   1.046   .     S
H1023  N1039   1.046   .     S
H1025  N1039   1.046   .     S
H1026  N1040   1.045   .     S
H1027  N1040   1.046   .     S
H1032  N1037   1.045   .     S
H1033  N1037   1.046   .     S
H1034  N1038   1.046   .     S
N1035  Zn1049  2.014   .     S
N1036  Zn1050  2.014   .     S
O1041  Zn1049  2.000   .     S
O1042  Zn1050  2.000   .     S
O1043  Zn1050  2.001   .     S
O1044  Zn1049  2.001   .     S
O1045  Zn1049  1.967   .     S
O1046  Zn1050  1.967   .     S
O1047  Zn1050  1.911   .     S
O1048  Zn1049  1.911   .     S
C1051  C1054   1.420   .     S
C1051  O1113   1.285   .     A
C1051  O1111   1.285   .     A
C1052  C1054   1.398   .     A
C1052  H1099   1.084   .     S
C1052  C661    1.370   1_565 S
C1053  C1081   1.397   .     A
C1053  C1082   1.398   .     A
C1053  C1062   1.420   .     S
C1054  C1080   1.397   .     A
C1055  N1106   1.364   .     A
C1055  H1100   1.082   .     S
C1055  C1127   1.421   .     S
C1056  H1101   1.082   .     S
C1056  N1105   1.364   .     A
C1056  C1198   1.421   1_455 S
C1057  N1105   1.371   .     A
C1057  N1109   1.429   .     S
C1057  C1195   1.421   1_455 S
C1058  N1110   1.429   .     S
C1058  N1106   1.371   .     A
C1058  C1126   1.421   .     S
C1059  O1117   1.295   .     A
C1059  O1115   1.294   .     A
C1059  C1061   1.459   .     S
C1060  O1118   1.294   .     A
C1060  O1116   1.292   .     A
C1060  C1063   1.453   .     S
C1061  C1068   1.391   .     A
C1061  C1066   1.398   .     A
C1062  O1112   1.285   .     A
C1062  O1114   1.285   .     A
C1063  C1067   1.396   .     A
C1063  C1069   1.387   .     A
C1064  C1072   1.410   .     A
C1064  C1066   1.394   .     A
C1064  H1089   1.083   .     S
C1065  C1074   1.410   .     A
C1065  H1090   1.083   .     S
C1065  C1067   1.393   .     A
C1066  H1088   1.083   .     S
C1067  H1087   1.082   .     S
C1068  C1070   1.395   .     A
C1068  H1086   1.076   .     S
C1069  H1085   1.078   .     S
C1069  C1071   1.396   .     A
C1070  C1072   1.421   .     A
C1070  C1075   1.419   .     A
C1071  C1076   1.418   .     A
C1071  C1074   1.421   .     A
C1072  C448    1.400   1_556 S
C1073  C1078   1.394   .     A
C1073  C1076   1.416   .     A
C1073  H1083   1.078   .     S
C1075  C1077   1.418   .     A
C1075  C446    1.411   1_556 S
C1077  C1079   1.395   .     A
C1077  H1094   1.078   .     S
C1078  N1107   1.434   .     S
C1079  N1108   1.434   .     S
C1079  C444    1.399   1_556 S
C1080  H1091   1.084   .     S
C1080  C662    1.370   1_565 S
C1081  H1092   1.084   .     S
C1082  H1098   1.084   .     S
H1084  N1108   1.046   .     S
H1093  N1109   1.046   .     S
H1095  N1109   1.046   .     S
H1096  N1110   1.045   .     S
H1097  N1110   1.046   .     S
H1102  N1107   1.045   .     S
H1103  N1107   1.046   .     S
H1104  N1108   1.046   .     S
N1105  Zn1119  2.014   .     S
N1106  Zn1120  2.014   .     S
O1111  Zn1119  2.000   .     S
O1112  Zn1120  2.000   .     S
O1113  Zn1120  2.001   .     S
O1114  Zn1119  2.001   .     S
O1115  Zn1119  1.967   .     S
O1116  Zn1120  1.967   .     S
O1117  Zn1120  1.911   .     S
O1118  Zn1119  1.911   .     S
C1121  C1124   1.420   .     S
C1121  O1183   1.285   .     A
C1121  O1181   1.285   .     A
C1122  C1124   1.398   .     A
C1122  H1169   1.084   .     S
C1122  C731    1.370   1_565 S
C1123  C1151   1.397   .     A
C1123  C1152   1.398   .     A
C1123  C1132   1.420   .     S
C1124  C1150   1.397   .     A
C1125  N1176   1.364   .     A
C1125  H1170   1.082   .     S
C1125  C1197   1.421   .     S
C1126  H1171   1.082   .     S
C1126  N1175   1.364   .     A
C1127  N1175   1.371   .     A
C1127  N1179   1.429   .     S
C1128  N1180   1.429   .     S
C1128  N1176   1.371   .     A
C1128  C1196   1.421   .     S
C1129  O1187   1.295   .     A
C1129  O1185   1.294   .     A
C1129  C1131   1.459   .     S
C1130  O1188   1.294   .     A
C1130  O1186   1.292   .     A
C1130  C1133   1.453   .     S
C1131  C1138   1.391   .     A
C1131  C1136   1.398   .     A
C1132  O1182   1.285   .     A
C1132  O1184   1.285   .     A
C1133  C1137   1.396   .     A
C1133  C1139   1.387   .     A
C1134  C1142   1.410   .     A
C1134  C1136   1.394   .     A
C1134  H1159   1.083   .     S
C1135  C1144   1.410   .     A
C1135  H1160   1.083   .     S
C1135  C1137   1.393   .     A
C1136  H1158   1.083   .     S
C1137  H1157   1.082   .     S
C1138  C1140   1.395   .     A
C1138  H1156   1.076   .     S
C1139  H1155   1.078   .     S
C1139  C1141   1.396   .     A
C1140  C1142   1.421   .     A
C1140  C1145   1.419   .     A
C1141  C1146   1.418   .     A
C1141  C1144   1.421   .     A
C1142  C518    1.400   1_556 S
C1143  C1148   1.394   .     A
C1143  C1146   1.416   .     A
C1143  H1153   1.078   .     S
C1145  C1147   1.418   .     A
C1145  C516    1.411   1_556 S
C1147  C1149   1.395   .     A
C1147  H1164   1.078   .     S
C1148  N1177   1.434   .     S
C1149  N1178   1.434   .     S
C1149  C514    1.399   1_556 S
C1150  H1161   1.084   .     S
C1150  C732    1.370   1_565 S
C1151  H1162   1.084   .     S
C1152  H1168   1.084   .     S
H1154  N1178   1.046   .     S
H1163  N1179   1.046   .     S
H1165  N1179   1.046   .     S
H1166  N1180   1.045   .     S
H1167  N1180   1.046   .     S
H1172  N1177   1.045   .     S
H1173  N1177   1.046   .     S
H1174  N1178   1.046   .     S
N1175  Zn1189  2.014   .     S
N1176  Zn1190  2.014   .     S
O1181  Zn1189  2.000   .     S
O1182  Zn1190  2.000   .     S
O1183  Zn1190  2.001   .     S
O1184  Zn1189  2.001   .     S
O1185  Zn1189  1.967   .     S
O1186  Zn1190  1.967   .     S
O1187  Zn1190  1.911   .     S
O1188  Zn1189  1.911   .     S
C1191  C1194   1.420   .     S
C1191  O1253   1.285   .     A
C1191  O1251   1.285   .     A
C1192  C1194   1.398   .     A
C1192  H1239   1.084   .     S
C1192  C801    1.370   1_565 S
C1193  C1221   1.397   .     A
C1193  C1222   1.398   .     A
C1193  C1202   1.420   .     S
C1194  C1220   1.397   .     A
C1195  N1246   1.364   .     A
C1195  H1240   1.082   .     S
C1195  C1057   1.421   1_655 S
C1196  H1241   1.082   .     S
C1196  N1245   1.364   .     A
C1197  N1245   1.371   .     A
C1197  N1249   1.429   .     S
C1198  N1250   1.429   .     S
C1198  N1246   1.371   .     A
C1198  C1056   1.421   1_655 S
C1199  O1257   1.295   .     A
C1199  O1255   1.294   .     A
C1199  C1201   1.459   .     S
C1200  O1258   1.294   .     A
C1200  O1256   1.292   .     A
C1200  C1203   1.453   .     S
C1201  C1208   1.391   .     A
C1201  C1206   1.398   .     A
C1202  O1252   1.285   .     A
C1202  O1254   1.285   .     A
C1203  C1207   1.396   .     A
C1203  C1209   1.387   .     A
C1204  C1212   1.410   .     A
C1204  C1206   1.394   .     A
C1204  H1229   1.083   .     S
C1205  C1214   1.410   .     A
C1205  H1230   1.083   .     S
C1205  C1207   1.393   .     A
C1206  H1228   1.083   .     S
C1207  H1227   1.082   .     S
C1208  C1210   1.395   .     A
C1208  H1226   1.076   .     S
C1209  H1225   1.078   .     S
C1209  C1211   1.396   .     A
C1210  C1212   1.421   .     A
C1210  C1215   1.419   .     A
C1211  C1216   1.418   .     A
C1211  C1214   1.421   .     A
C1212  C588    1.400   1_556 S
C1213  C1218   1.394   .     A
C1213  C1216   1.416   .     A
C1213  H1223   1.078   .     S
C1215  C1217   1.418   .     A
C1215  C586    1.411   1_556 S
C1217  C1219   1.395   .     A
C1217  H1234   1.078   .     S
C1218  N1247   1.434   .     S
C1219  N1248   1.434   .     S
C1219  C584    1.399   1_556 S
C1220  H1231   1.084   .     S
C1220  C802    1.370   1_565 S
C1221  H1232   1.084   .     S
C1222  H1238   1.084   .     S
H1224  N1248   1.046   .     S
H1233  N1249   1.046   .     S
H1235  N1249   1.046   .     S
H1236  N1250   1.045   .     S
H1237  N1250   1.046   .     S
H1242  N1247   1.045   .     S
H1243  N1247   1.046   .     S
H1244  N1248   1.046   .     S
N1245  Zn1259  2.014   .     S
N1246  Zn1260  2.014   .     S
O1251  Zn1259  2.000   .     S
O1252  Zn1260  2.000   .     S
O1253  Zn1260  2.001   .     S
O1254  Zn1259  2.001   .     S
O1255  Zn1259  1.967   .     S
O1256  Zn1260  1.967   .     S
O1257  Zn1260  1.911   .     S
O1258  Zn1259  1.911   .     S
