data_str_m3_o1_o5_pcu_sym.74
_audit_creation_date              2020-01-03
_audit_creation_method            'Materials Studio'
_symmetry_space_group_name_H-M    'P1'
_symmetry_Int_Tables_number       1
_symmetry_cell_setting            triclinic
loop_
_symmetry_equiv_pos_as_xyz
  x,y,z
_cell_length_a                    32.0241
_cell_length_b                    29.6250
_cell_length_c                    26.7476
_cell_angle_alpha                 89.9852
_cell_angle_beta                  90.2513
_cell_angle_gamma                 90.0777
loop_
_atom_site_label
_atom_site_type_symbol
_atom_site_fract_x
_atom_site_fract_y
_atom_site_fract_z
_atom_site_U_iso_or_equiv
_atom_site_adp_type
_atom_site_occupancy
C1     C     0.08672   0.16665   0.16662   0.00000  Uiso   1.00
C2     C     0.02161   0.19817   0.19615   0.00000  Uiso   1.00
C3     C     0.29073   0.16670   0.16668   0.00000  Uiso   1.00
C4     C     0.04260   0.16663   0.16665   0.00000  Uiso   1.00
C5     C     0.19207   0.02398   0.19846   0.00000  Uiso   1.00
C6     C     0.14126   0.30935   0.13487   0.00000  Uiso   1.00
C7     C     0.14129   0.02391   0.13485   0.00000  Uiso   1.00
C8     C     0.19205   0.30943   0.19849   0.00000  Uiso   1.00
C9     C     0.24661   0.16669   0.16672   0.00000  Uiso   1.00
C10    C     0.16664   0.16667   0.07290   0.00000  Uiso   1.00
C11    C     0.16669   0.16666   0.26043   0.00000  Uiso   1.00
C12    C     0.16666   0.16667   0.02179   0.00000  Uiso   1.00
C13    C     0.16668   0.16666   0.31154   0.00000  Uiso   1.00
C14    C     0.02126   0.13514   0.13716   0.00000  Uiso   1.00
C15    C     0.31207   0.19819   0.19617   0.00000  Uiso   1.00
C16    C     0.31172   0.13516   0.13719   0.00000  Uiso   1.00
F17    F     0.04187   0.10547   0.10745   0.00000  Uiso   1.00
F18    F     0.29147   0.22786   0.22589   0.00000  Uiso   1.00
F19    F     0.29076   0.10543   0.10759   0.00000  Uiso   1.00
F20    F     0.04258   0.22790   0.22574   0.00000  Uiso   1.00
F21    F     0.21761   0.04659   0.23033   0.00000  Uiso   1.00
F22    F     0.11572   0.28674   0.10301   0.00000  Uiso   1.00
F23    F     0.11590   0.04643   0.10281   0.00000  Uiso   1.00
F24    F     0.21744   0.28690   0.23052   0.00000  Uiso   1.00
N25    N     0.16667   0.28573   0.16667   0.00000  Uiso   1.00
N26    N     0.16667   0.04760   0.16667   0.00000  Uiso   1.00
O27    O     0.10559   0.20487   0.16666   0.00000  Uiso   1.00
O28    O     0.22774   0.12846   0.16667   0.00000  Uiso   1.00
O29    O     0.22774   0.20487   0.16667   0.00000  Uiso   1.00
O30    O     0.10559   0.12846   0.16666   0.00000  Uiso   1.00
O31    O     0.16667   0.20488   0.09511   0.00000  Uiso   1.00
O32    O     0.16666   0.12845   0.23822   0.00000  Uiso   1.00
O33    O     0.16666   0.20488   0.23822   0.00000  Uiso   1.00
O34    O     0.16667   0.12845   0.09511   0.00000  Uiso   1.00
Zn35   Zn    0.16667   0.21771   0.16667   0.00000  Uiso   1.00
Zn36   Zn    0.16667   0.11563   0.16667   0.00000  Uiso   1.00
C37    C     0.42006   0.16665   0.16662   0.00000  Uiso   1.00
C38    C     0.35494   0.19817   0.19615   0.00000  Uiso   1.00
C39    C     0.62407   0.16670   0.16668   0.00000  Uiso   1.00
C40    C     0.37593   0.16663   0.16665   0.00000  Uiso   1.00
C41    C     0.52541   0.02398   0.19846   0.00000  Uiso   1.00
C42    C     0.47459   0.30935   0.13487   0.00000  Uiso   1.00
C43    C     0.47462   0.02391   0.13485   0.00000  Uiso   1.00
C44    C     0.52538   0.30943   0.19849   0.00000  Uiso   1.00
C45    C     0.57994   0.16669   0.16672   0.00000  Uiso   1.00
C46    C     0.49998   0.16667   0.07290   0.00000  Uiso   1.00
C47    C     0.50002   0.16666   0.26043   0.00000  Uiso   1.00
C48    C     0.49999   0.16667   0.02179   0.00000  Uiso   1.00
C49    C     0.50001   0.16666   0.31154   0.00000  Uiso   1.00
C50    C     0.35459   0.13514   0.13716   0.00000  Uiso   1.00
C51    C     0.64541   0.19819   0.19617   0.00000  Uiso   1.00
C52    C     0.64506   0.13516   0.13719   0.00000  Uiso   1.00
F53    F     0.37520   0.10547   0.10745   0.00000  Uiso   1.00
F54    F     0.62480   0.22786   0.22589   0.00000  Uiso   1.00
F55    F     0.62409   0.10543   0.10759   0.00000  Uiso   1.00
F56    F     0.37591   0.22790   0.22574   0.00000  Uiso   1.00
F57    F     0.55095   0.04659   0.23033   0.00000  Uiso   1.00
F58    F     0.44905   0.28674   0.10301   0.00000  Uiso   1.00
F59    F     0.44923   0.04643   0.10281   0.00000  Uiso   1.00
F60    F     0.55077   0.28690   0.23052   0.00000  Uiso   1.00
N61    N     0.50000   0.28573   0.16667   0.00000  Uiso   1.00
N62    N     0.50000   0.04760   0.16667   0.00000  Uiso   1.00
O63    O     0.43892   0.20487   0.16666   0.00000  Uiso   1.00
O64    O     0.56108   0.12846   0.16667   0.00000  Uiso   1.00
O65    O     0.56108   0.20487   0.16667   0.00000  Uiso   1.00
O66    O     0.43892   0.12846   0.16666   0.00000  Uiso   1.00
O67    O     0.50000   0.20488   0.09511   0.00000  Uiso   1.00
O68    O     0.50000   0.12845   0.23822   0.00000  Uiso   1.00
O69    O     0.50000   0.20488   0.23822   0.00000  Uiso   1.00
O70    O     0.50000   0.12845   0.09511   0.00000  Uiso   1.00
Zn71   Zn    0.50000   0.21771   0.16667   0.00000  Uiso   1.00
Zn72   Zn    0.50000   0.11563   0.16667   0.00000  Uiso   1.00
C73    C     0.75339   0.16665   0.16662   0.00000  Uiso   1.00
C74    C     0.68828   0.19817   0.19615   0.00000  Uiso   1.00
C75    C     0.95740   0.16670   0.16668   0.00000  Uiso   1.00
C76    C     0.70927   0.16663   0.16665   0.00000  Uiso   1.00
C77    C     0.85874   0.02398   0.19846   0.00000  Uiso   1.00
C78    C     0.80793   0.30935   0.13487   0.00000  Uiso   1.00
C79    C     0.80796   0.02391   0.13485   0.00000  Uiso   1.00
C80    C     0.85871   0.30943   0.19849   0.00000  Uiso   1.00
C81    C     0.91328   0.16669   0.16672   0.00000  Uiso   1.00
C82    C     0.83331   0.16667   0.07290   0.00000  Uiso   1.00
C83    C     0.83336   0.16666   0.26043   0.00000  Uiso   1.00
C84    C     0.83332   0.16667   0.02179   0.00000  Uiso   1.00
C85    C     0.83334   0.16666   0.31154   0.00000  Uiso   1.00
C86    C     0.68793   0.13514   0.13716   0.00000  Uiso   1.00
C87    C     0.97874   0.19819   0.19617   0.00000  Uiso   1.00
C88    C     0.97839   0.13516   0.13719   0.00000  Uiso   1.00
F89    F     0.70853   0.10547   0.10745   0.00000  Uiso   1.00
F90    F     0.95813   0.22786   0.22589   0.00000  Uiso   1.00
F91    F     0.95742   0.10543   0.10759   0.00000  Uiso   1.00
F92    F     0.70924   0.22790   0.22574   0.00000  Uiso   1.00
F93    F     0.88428   0.04659   0.23033   0.00000  Uiso   1.00
F94    F     0.78239   0.28674   0.10301   0.00000  Uiso   1.00
F95    F     0.78256   0.04643   0.10281   0.00000  Uiso   1.00
F96    F     0.88410   0.28690   0.23052   0.00000  Uiso   1.00
N97    N     0.83333   0.28573   0.16667   0.00000  Uiso   1.00
N98    N     0.83333   0.04760   0.16667   0.00000  Uiso   1.00
O99    O     0.77226   0.20487   0.16666   0.00000  Uiso   1.00
O100   O     0.89441   0.12846   0.16667   0.00000  Uiso   1.00
O101   O     0.89441   0.20487   0.16667   0.00000  Uiso   1.00
O102   O     0.77226   0.12846   0.16666   0.00000  Uiso   1.00
O103   O     0.83334   0.20488   0.09511   0.00000  Uiso   1.00
O104   O     0.83333   0.12845   0.23822   0.00000  Uiso   1.00
O105   O     0.83333   0.20488   0.23822   0.00000  Uiso   1.00
O106   O     0.83334   0.12845   0.09511   0.00000  Uiso   1.00
Zn107  Zn    0.83333   0.21771   0.16667   0.00000  Uiso   1.00
Zn108  Zn    0.83333   0.11563   0.16667   0.00000  Uiso   1.00
C109   C     0.08672   0.49998   0.16662   0.00000  Uiso   1.00
C110   C     0.02161   0.53150   0.19615   0.00000  Uiso   1.00
C111   C     0.29073   0.50003   0.16668   0.00000  Uiso   1.00
C112   C     0.04260   0.49996   0.16665   0.00000  Uiso   1.00
C113   C     0.19207   0.35732   0.19846   0.00000  Uiso   1.00
C114   C     0.14126   0.64268   0.13487   0.00000  Uiso   1.00
C115   C     0.14129   0.35724   0.13485   0.00000  Uiso   1.00
C116   C     0.19205   0.64276   0.19849   0.00000  Uiso   1.00
C117   C     0.24661   0.50002   0.16672   0.00000  Uiso   1.00
C118   C     0.16664   0.50000   0.07290   0.00000  Uiso   1.00
C119   C     0.16669   0.50000   0.26043   0.00000  Uiso   1.00
C120   C     0.16666   0.50000   0.02179   0.00000  Uiso   1.00
C121   C     0.16668   0.50000   0.31154   0.00000  Uiso   1.00
C122   C     0.02126   0.46848   0.13716   0.00000  Uiso   1.00
C123   C     0.31207   0.53152   0.19617   0.00000  Uiso   1.00
C124   C     0.31172   0.46849   0.13719   0.00000  Uiso   1.00
F125   F     0.04187   0.43881   0.10745   0.00000  Uiso   1.00
F126   F     0.29147   0.56119   0.22589   0.00000  Uiso   1.00
F127   F     0.29076   0.43877   0.10759   0.00000  Uiso   1.00
F128   F     0.04258   0.56123   0.22574   0.00000  Uiso   1.00
F129   F     0.21761   0.37992   0.23033   0.00000  Uiso   1.00
F130   F     0.11572   0.62007   0.10301   0.00000  Uiso   1.00
F131   F     0.11590   0.37976   0.10281   0.00000  Uiso   1.00
F132   F     0.21744   0.62024   0.23052   0.00000  Uiso   1.00
N133   N     0.16667   0.61907   0.16667   0.00000  Uiso   1.00
N134   N     0.16667   0.38093   0.16667   0.00000  Uiso   1.00
O135   O     0.10559   0.53821   0.16666   0.00000  Uiso   1.00
O136   O     0.22774   0.46179   0.16667   0.00000  Uiso   1.00
O137   O     0.22774   0.53821   0.16667   0.00000  Uiso   1.00
O138   O     0.10559   0.46179   0.16666   0.00000  Uiso   1.00
O139   O     0.16667   0.53821   0.09511   0.00000  Uiso   1.00
O140   O     0.16666   0.46179   0.23822   0.00000  Uiso   1.00
O141   O     0.16666   0.53821   0.23822   0.00000  Uiso   1.00
O142   O     0.16667   0.46179   0.09511   0.00000  Uiso   1.00
Zn143  Zn    0.16667   0.55104   0.16667   0.00000  Uiso   1.00
Zn144  Zn    0.16667   0.44896   0.16667   0.00000  Uiso   1.00
C145   C     0.42006   0.49998   0.16662   0.00000  Uiso   1.00
C146   C     0.35494   0.53150   0.19615   0.00000  Uiso   1.00
C147   C     0.62407   0.50003   0.16668   0.00000  Uiso   1.00
C148   C     0.37593   0.49996   0.16665   0.00000  Uiso   1.00
C149   C     0.52541   0.35732   0.19846   0.00000  Uiso   1.00
C150   C     0.47459   0.64268   0.13487   0.00000  Uiso   1.00
C151   C     0.47462   0.35724   0.13485   0.00000  Uiso   1.00
C152   C     0.52538   0.64276   0.19849   0.00000  Uiso   1.00
C153   C     0.57994   0.50002   0.16672   0.00000  Uiso   1.00
C154   C     0.49998   0.50000   0.07290   0.00000  Uiso   1.00
C155   C     0.50002   0.50000   0.26043   0.00000  Uiso   1.00
C156   C     0.49999   0.50000   0.02179   0.00000  Uiso   1.00
C157   C     0.50001   0.50000   0.31154   0.00000  Uiso   1.00
C158   C     0.35459   0.46848   0.13716   0.00000  Uiso   1.00
C159   C     0.64541   0.53152   0.19617   0.00000  Uiso   1.00
C160   C     0.64506   0.46849   0.13719   0.00000  Uiso   1.00
F161   F     0.37520   0.43881   0.10745   0.00000  Uiso   1.00
F162   F     0.62480   0.56119   0.22589   0.00000  Uiso   1.00
F163   F     0.62409   0.43877   0.10759   0.00000  Uiso   1.00
F164   F     0.37591   0.56123   0.22574   0.00000  Uiso   1.00
F165   F     0.55095   0.37992   0.23033   0.00000  Uiso   1.00
F166   F     0.44905   0.62007   0.10301   0.00000  Uiso   1.00
F167   F     0.44923   0.37976   0.10281   0.00000  Uiso   1.00
F168   F     0.55077   0.62024   0.23052   0.00000  Uiso   1.00
N169   N     0.50000   0.61907   0.16667   0.00000  Uiso   1.00
N170   N     0.50000   0.38093   0.16667   0.00000  Uiso   1.00
O171   O     0.43892   0.53821   0.16666   0.00000  Uiso   1.00
O172   O     0.56108   0.46179   0.16667   0.00000  Uiso   1.00
O173   O     0.56108   0.53821   0.16667   0.00000  Uiso   1.00
O174   O     0.43892   0.46179   0.16666   0.00000  Uiso   1.00
O175   O     0.50000   0.53821   0.09511   0.00000  Uiso   1.00
O176   O     0.50000   0.46179   0.23822   0.00000  Uiso   1.00
O177   O     0.50000   0.53821   0.23822   0.00000  Uiso   1.00
O178   O     0.50000   0.46179   0.09511   0.00000  Uiso   1.00
Zn179  Zn    0.50000   0.55104   0.16667   0.00000  Uiso   1.00
Zn180  Zn    0.50000   0.44896   0.16667   0.00000  Uiso   1.00
C181   C     0.75339   0.49998   0.16662   0.00000  Uiso   1.00
C182   C     0.68828   0.53150   0.19615   0.00000  Uiso   1.00
C183   C     0.95740   0.50003   0.16668   0.00000  Uiso   1.00
C184   C     0.70927   0.49996   0.16665   0.00000  Uiso   1.00
C185   C     0.85874   0.35732   0.19846   0.00000  Uiso   1.00
C186   C     0.80793   0.64268   0.13487   0.00000  Uiso   1.00
C187   C     0.80796   0.35724   0.13485   0.00000  Uiso   1.00
C188   C     0.85871   0.64276   0.19849   0.00000  Uiso   1.00
C189   C     0.91328   0.50002   0.16672   0.00000  Uiso   1.00
C190   C     0.83331   0.50000   0.07290   0.00000  Uiso   1.00
C191   C     0.83336   0.50000   0.26043   0.00000  Uiso   1.00
C192   C     0.83332   0.50000   0.02179   0.00000  Uiso   1.00
C193   C     0.83334   0.50000   0.31154   0.00000  Uiso   1.00
C194   C     0.68793   0.46848   0.13716   0.00000  Uiso   1.00
C195   C     0.97874   0.53152   0.19617   0.00000  Uiso   1.00
C196   C     0.97839   0.46849   0.13719   0.00000  Uiso   1.00
F197   F     0.70853   0.43881   0.10745   0.00000  Uiso   1.00
F198   F     0.95813   0.56119   0.22589   0.00000  Uiso   1.00
F199   F     0.95742   0.43877   0.10759   0.00000  Uiso   1.00
F200   F     0.70924   0.56123   0.22574   0.00000  Uiso   1.00
F201   F     0.88428   0.37992   0.23033   0.00000  Uiso   1.00
F202   F     0.78239   0.62007   0.10301   0.00000  Uiso   1.00
F203   F     0.78256   0.37976   0.10281   0.00000  Uiso   1.00
F204   F     0.88410   0.62024   0.23052   0.00000  Uiso   1.00
N205   N     0.83333   0.61907   0.16667   0.00000  Uiso   1.00
N206   N     0.83333   0.38093   0.16667   0.00000  Uiso   1.00
O207   O     0.77226   0.53821   0.16666   0.00000  Uiso   1.00
O208   O     0.89441   0.46179   0.16667   0.00000  Uiso   1.00
O209   O     0.89441   0.53821   0.16667   0.00000  Uiso   1.00
O210   O     0.77226   0.46179   0.16666   0.00000  Uiso   1.00
O211   O     0.83334   0.53821   0.09511   0.00000  Uiso   1.00
O212   O     0.83333   0.46179   0.23822   0.00000  Uiso   1.00
O213   O     0.83333   0.53821   0.23822   0.00000  Uiso   1.00
O214   O     0.83334   0.46179   0.09511   0.00000  Uiso   1.00
Zn215  Zn    0.83333   0.55104   0.16667   0.00000  Uiso   1.00
Zn216  Zn    0.83333   0.44896   0.16667   0.00000  Uiso   1.00
C217   C     0.08672   0.83331   0.16662   0.00000  Uiso   1.00
C218   C     0.02161   0.86484   0.19615   0.00000  Uiso   1.00
C219   C     0.29073   0.83337   0.16668   0.00000  Uiso   1.00
C220   C     0.04260   0.83330   0.16665   0.00000  Uiso   1.00
C221   C     0.19207   0.69065   0.19846   0.00000  Uiso   1.00
C222   C     0.14126   0.97602   0.13487   0.00000  Uiso   1.00
C223   C     0.14129   0.69057   0.13485   0.00000  Uiso   1.00
C224   C     0.19205   0.97609   0.19849   0.00000  Uiso   1.00
C225   C     0.24661   0.83335   0.16672   0.00000  Uiso   1.00
C226   C     0.16664   0.83334   0.07290   0.00000  Uiso   1.00
C227   C     0.16669   0.83333   0.26043   0.00000  Uiso   1.00
C228   C     0.16666   0.83334   0.02179   0.00000  Uiso   1.00
C229   C     0.16668   0.83333   0.31154   0.00000  Uiso   1.00
C230   C     0.02126   0.80181   0.13716   0.00000  Uiso   1.00
C231   C     0.31207   0.86486   0.19617   0.00000  Uiso   1.00
C232   C     0.31172   0.80183   0.13719   0.00000  Uiso   1.00
F233   F     0.04187   0.77214   0.10745   0.00000  Uiso   1.00
F234   F     0.29147   0.89453   0.22589   0.00000  Uiso   1.00
F235   F     0.29076   0.77210   0.10759   0.00000  Uiso   1.00
F236   F     0.04258   0.89457   0.22574   0.00000  Uiso   1.00
F237   F     0.21761   0.71326   0.23033   0.00000  Uiso   1.00
F238   F     0.11572   0.95341   0.10301   0.00000  Uiso   1.00
F239   F     0.11590   0.71310   0.10281   0.00000  Uiso   1.00
F240   F     0.21744   0.95357   0.23052   0.00000  Uiso   1.00
N241   N     0.16667   0.95240   0.16667   0.00000  Uiso   1.00
N242   N     0.16667   0.71427   0.16667   0.00000  Uiso   1.00
O243   O     0.10559   0.87154   0.16666   0.00000  Uiso   1.00
O244   O     0.22774   0.79513   0.16667   0.00000  Uiso   1.00
O245   O     0.22774   0.87154   0.16667   0.00000  Uiso   1.00
O246   O     0.10559   0.79513   0.16666   0.00000  Uiso   1.00
O247   O     0.16667   0.87155   0.09511   0.00000  Uiso   1.00
O248   O     0.16666   0.79512   0.23822   0.00000  Uiso   1.00
O249   O     0.16666   0.87155   0.23822   0.00000  Uiso   1.00
O250   O     0.16667   0.79512   0.09511   0.00000  Uiso   1.00
Zn251  Zn    0.16667   0.88437   0.16667   0.00000  Uiso   1.00
Zn252  Zn    0.16667   0.78229   0.16667   0.00000  Uiso   1.00
C253   C     0.42006   0.83331   0.16662   0.00000  Uiso   1.00
C254   C     0.35494   0.86484   0.19615   0.00000  Uiso   1.00
C255   C     0.62407   0.83337   0.16668   0.00000  Uiso   1.00
C256   C     0.37593   0.83330   0.16665   0.00000  Uiso   1.00
C257   C     0.52541   0.69065   0.19846   0.00000  Uiso   1.00
C258   C     0.47459   0.97602   0.13487   0.00000  Uiso   1.00
C259   C     0.47462   0.69057   0.13485   0.00000  Uiso   1.00
C260   C     0.52538   0.97609   0.19849   0.00000  Uiso   1.00
C261   C     0.57994   0.83335   0.16672   0.00000  Uiso   1.00
C262   C     0.49998   0.83334   0.07290   0.00000  Uiso   1.00
C263   C     0.50002   0.83333   0.26043   0.00000  Uiso   1.00
C264   C     0.49999   0.83334   0.02179   0.00000  Uiso   1.00
C265   C     0.50001   0.83333   0.31154   0.00000  Uiso   1.00
C266   C     0.35459   0.80181   0.13716   0.00000  Uiso   1.00
C267   C     0.64541   0.86486   0.19617   0.00000  Uiso   1.00
C268   C     0.64506   0.80183   0.13719   0.00000  Uiso   1.00
F269   F     0.37520   0.77214   0.10745   0.00000  Uiso   1.00
F270   F     0.62480   0.89453   0.22589   0.00000  Uiso   1.00
F271   F     0.62409   0.77210   0.10759   0.00000  Uiso   1.00
F272   F     0.37591   0.89457   0.22574   0.00000  Uiso   1.00
F273   F     0.55095   0.71326   0.23033   0.00000  Uiso   1.00
F274   F     0.44905   0.95341   0.10301   0.00000  Uiso   1.00
F275   F     0.44923   0.71310   0.10281   0.00000  Uiso   1.00
F276   F     0.55077   0.95357   0.23052   0.00000  Uiso   1.00
N277   N     0.50000   0.95240   0.16667   0.00000  Uiso   1.00
N278   N     0.50000   0.71427   0.16667   0.00000  Uiso   1.00
O279   O     0.43892   0.87154   0.16666   0.00000  Uiso   1.00
O280   O     0.56108   0.79513   0.16667   0.00000  Uiso   1.00
O281   O     0.56108   0.87154   0.16667   0.00000  Uiso   1.00
O282   O     0.43892   0.79513   0.16666   0.00000  Uiso   1.00
O283   O     0.50000   0.87155   0.09511   0.00000  Uiso   1.00
O284   O     0.50000   0.79512   0.23822   0.00000  Uiso   1.00
O285   O     0.50000   0.87155   0.23822   0.00000  Uiso   1.00
O286   O     0.50000   0.79512   0.09511   0.00000  Uiso   1.00
Zn287  Zn    0.50000   0.88437   0.16667   0.00000  Uiso   1.00
Zn288  Zn    0.50000   0.78229   0.16667   0.00000  Uiso   1.00
C289   C     0.75339   0.83331   0.16662   0.00000  Uiso   1.00
C290   C     0.68828   0.86484   0.19615   0.00000  Uiso   1.00
C291   C     0.95740   0.83337   0.16668   0.00000  Uiso   1.00
C292   C     0.70927   0.83330   0.16665   0.00000  Uiso   1.00
C293   C     0.85874   0.69065   0.19846   0.00000  Uiso   1.00
C294   C     0.80793   0.97602   0.13487   0.00000  Uiso   1.00
C295   C     0.80796   0.69057   0.13485   0.00000  Uiso   1.00
C296   C     0.85871   0.97609   0.19849   0.00000  Uiso   1.00
C297   C     0.91328   0.83335   0.16672   0.00000  Uiso   1.00
C298   C     0.83331   0.83334   0.07290   0.00000  Uiso   1.00
C299   C     0.83336   0.83333   0.26043   0.00000  Uiso   1.00
C300   C     0.83332   0.83334   0.02179   0.00000  Uiso   1.00
C301   C     0.83334   0.83333   0.31154   0.00000  Uiso   1.00
C302   C     0.68793   0.80181   0.13716   0.00000  Uiso   1.00
C303   C     0.97874   0.86486   0.19617   0.00000  Uiso   1.00
C304   C     0.97839   0.80183   0.13719   0.00000  Uiso   1.00
F305   F     0.70853   0.77214   0.10745   0.00000  Uiso   1.00
F306   F     0.95813   0.89453   0.22589   0.00000  Uiso   1.00
F307   F     0.95742   0.77210   0.10759   0.00000  Uiso   1.00
F308   F     0.70924   0.89457   0.22574   0.00000  Uiso   1.00
F309   F     0.88428   0.71326   0.23033   0.00000  Uiso   1.00
F310   F     0.78239   0.95341   0.10301   0.00000  Uiso   1.00
F311   F     0.78256   0.71310   0.10281   0.00000  Uiso   1.00
F312   F     0.88410   0.95357   0.23052   0.00000  Uiso   1.00
N313   N     0.83333   0.95240   0.16667   0.00000  Uiso   1.00
N314   N     0.83333   0.71427   0.16667   0.00000  Uiso   1.00
O315   O     0.77226   0.87154   0.16666   0.00000  Uiso   1.00
O316   O     0.89441   0.79513   0.16667   0.00000  Uiso   1.00
O317   O     0.89441   0.87154   0.16667   0.00000  Uiso   1.00
O318   O     0.77226   0.79513   0.16666   0.00000  Uiso   1.00
O319   O     0.83334   0.87155   0.09511   0.00000  Uiso   1.00
O320   O     0.83333   0.79512   0.23822   0.00000  Uiso   1.00
O321   O     0.83333   0.87155   0.23822   0.00000  Uiso   1.00
O322   O     0.83334   0.79512   0.09511   0.00000  Uiso   1.00
Zn323  Zn    0.83333   0.88437   0.16667   0.00000  Uiso   1.00
Zn324  Zn    0.83333   0.78229   0.16667   0.00000  Uiso   1.00
C325   C     0.08672   0.16665   0.49995   0.00000  Uiso   1.00
C326   C     0.02161   0.19817   0.52948   0.00000  Uiso   1.00
C327   C     0.29073   0.16670   0.50001   0.00000  Uiso   1.00
C328   C     0.04260   0.16663   0.49999   0.00000  Uiso   1.00
C329   C     0.19207   0.02398   0.53179   0.00000  Uiso   1.00
C330   C     0.14126   0.30935   0.46821   0.00000  Uiso   1.00
C331   C     0.14129   0.02391   0.46818   0.00000  Uiso   1.00
C332   C     0.19205   0.30943   0.53182   0.00000  Uiso   1.00
C333   C     0.24661   0.16669   0.50005   0.00000  Uiso   1.00
C334   C     0.16664   0.16667   0.40623   0.00000  Uiso   1.00
C335   C     0.16669   0.16666   0.59377   0.00000  Uiso   1.00
C336   C     0.16666   0.16667   0.35513   0.00000  Uiso   1.00
C337   C     0.16668   0.16666   0.64487   0.00000  Uiso   1.00
C338   C     0.02126   0.13514   0.47049   0.00000  Uiso   1.00
C339   C     0.31207   0.19819   0.52951   0.00000  Uiso   1.00
C340   C     0.31172   0.13516   0.47052   0.00000  Uiso   1.00
F341   F     0.04187   0.10547   0.44078   0.00000  Uiso   1.00
F342   F     0.29147   0.22786   0.55922   0.00000  Uiso   1.00
F343   F     0.29076   0.10543   0.44092   0.00000  Uiso   1.00
F344   F     0.04258   0.22790   0.55908   0.00000  Uiso   1.00
F345   F     0.21761   0.04659   0.56366   0.00000  Uiso   1.00
F346   F     0.11572   0.28674   0.43634   0.00000  Uiso   1.00
F347   F     0.11590   0.04643   0.43615   0.00000  Uiso   1.00
F348   F     0.21744   0.28690   0.56385   0.00000  Uiso   1.00
N349   N     0.16667   0.28573   0.50000   0.00000  Uiso   1.00
N350   N     0.16667   0.04760   0.50000   0.00000  Uiso   1.00
O351   O     0.10559   0.20487   0.50000   0.00000  Uiso   1.00
O352   O     0.22774   0.12846   0.50000   0.00000  Uiso   1.00
O353   O     0.22774   0.20487   0.50000   0.00000  Uiso   1.00
O354   O     0.10559   0.12846   0.50000   0.00000  Uiso   1.00
O355   O     0.16667   0.20488   0.42845   0.00000  Uiso   1.00
O356   O     0.16666   0.12845   0.57155   0.00000  Uiso   1.00
O357   O     0.16666   0.20488   0.57155   0.00000  Uiso   1.00
O358   O     0.16667   0.12845   0.42845   0.00000  Uiso   1.00
Zn359  Zn    0.16667   0.21771   0.50000   0.00000  Uiso   1.00
Zn360  Zn    0.16667   0.11563   0.50000   0.00000  Uiso   1.00
C361   C     0.42006   0.16665   0.49995   0.00000  Uiso   1.00
C362   C     0.35494   0.19817   0.52948   0.00000  Uiso   1.00
C363   C     0.62407   0.16670   0.50001   0.00000  Uiso   1.00
C364   C     0.37593   0.16663   0.49999   0.00000  Uiso   1.00
C365   C     0.52541   0.02398   0.53179   0.00000  Uiso   1.00
C366   C     0.47459   0.30935   0.46821   0.00000  Uiso   1.00
C367   C     0.47462   0.02391   0.46818   0.00000  Uiso   1.00
C368   C     0.52538   0.30943   0.53182   0.00000  Uiso   1.00
C369   C     0.57994   0.16669   0.50005   0.00000  Uiso   1.00
C370   C     0.49998   0.16667   0.40623   0.00000  Uiso   1.00
C371   C     0.50002   0.16666   0.59377   0.00000  Uiso   1.00
C372   C     0.49999   0.16667   0.35513   0.00000  Uiso   1.00
C373   C     0.50001   0.16666   0.64487   0.00000  Uiso   1.00
C374   C     0.35459   0.13514   0.47049   0.00000  Uiso   1.00
C375   C     0.64541   0.19819   0.52951   0.00000  Uiso   1.00
C376   C     0.64506   0.13516   0.47052   0.00000  Uiso   1.00
F377   F     0.37520   0.10547   0.44078   0.00000  Uiso   1.00
F378   F     0.62480   0.22786   0.55922   0.00000  Uiso   1.00
F379   F     0.62409   0.10543   0.44092   0.00000  Uiso   1.00
F380   F     0.37591   0.22790   0.55908   0.00000  Uiso   1.00
F381   F     0.55095   0.04659   0.56366   0.00000  Uiso   1.00
F382   F     0.44905   0.28674   0.43634   0.00000  Uiso   1.00
F383   F     0.44923   0.04643   0.43615   0.00000  Uiso   1.00
F384   F     0.55077   0.28690   0.56385   0.00000  Uiso   1.00
N385   N     0.50000   0.28573   0.50000   0.00000  Uiso   1.00
N386   N     0.50000   0.04760   0.50000   0.00000  Uiso   1.00
O387   O     0.43892   0.20487   0.50000   0.00000  Uiso   1.00
O388   O     0.56108   0.12846   0.50000   0.00000  Uiso   1.00
O389   O     0.56108   0.20487   0.50000   0.00000  Uiso   1.00
O390   O     0.43892   0.12846   0.50000   0.00000  Uiso   1.00
O391   O     0.50000   0.20488   0.42845   0.00000  Uiso   1.00
O392   O     0.50000   0.12845   0.57155   0.00000  Uiso   1.00
O393   O     0.50000   0.20488   0.57155   0.00000  Uiso   1.00
O394   O     0.50000   0.12845   0.42845   0.00000  Uiso   1.00
Zn395  Zn    0.50000   0.21771   0.50000   0.00000  Uiso   1.00
Zn396  Zn    0.50000   0.11563   0.50000   0.00000  Uiso   1.00
C397   C     0.75339   0.16665   0.49995   0.00000  Uiso   1.00
C398   C     0.68828   0.19817   0.52948   0.00000  Uiso   1.00
C399   C     0.95740   0.16670   0.50001   0.00000  Uiso   1.00
C400   C     0.70927   0.16663   0.49999   0.00000  Uiso   1.00
C401   C     0.85874   0.02398   0.53179   0.00000  Uiso   1.00
C402   C     0.80793   0.30935   0.46821   0.00000  Uiso   1.00
C403   C     0.80796   0.02391   0.46818   0.00000  Uiso   1.00
C404   C     0.85871   0.30943   0.53182   0.00000  Uiso   1.00
C405   C     0.91328   0.16669   0.50005   0.00000  Uiso   1.00
C406   C     0.83331   0.16667   0.40623   0.00000  Uiso   1.00
C407   C     0.83336   0.16666   0.59377   0.00000  Uiso   1.00
C408   C     0.83332   0.16667   0.35513   0.00000  Uiso   1.00
C409   C     0.83334   0.16666   0.64487   0.00000  Uiso   1.00
C410   C     0.68793   0.13514   0.47049   0.00000  Uiso   1.00
C411   C     0.97874   0.19819   0.52951   0.00000  Uiso   1.00
C412   C     0.97839   0.13516   0.47052   0.00000  Uiso   1.00
F413   F     0.70853   0.10547   0.44078   0.00000  Uiso   1.00
F414   F     0.95813   0.22786   0.55922   0.00000  Uiso   1.00
F415   F     0.95742   0.10543   0.44092   0.00000  Uiso   1.00
F416   F     0.70924   0.22790   0.55908   0.00000  Uiso   1.00
F417   F     0.88428   0.04659   0.56366   0.00000  Uiso   1.00
F418   F     0.78239   0.28674   0.43634   0.00000  Uiso   1.00
F419   F     0.78256   0.04643   0.43615   0.00000  Uiso   1.00
F420   F     0.88410   0.28690   0.56385   0.00000  Uiso   1.00
N421   N     0.83333   0.28573   0.50000   0.00000  Uiso   1.00
N422   N     0.83333   0.04760   0.50000   0.00000  Uiso   1.00
O423   O     0.77226   0.20487   0.50000   0.00000  Uiso   1.00
O424   O     0.89441   0.12846   0.50000   0.00000  Uiso   1.00
O425   O     0.89441   0.20487   0.50000   0.00000  Uiso   1.00
O426   O     0.77226   0.12846   0.50000   0.00000  Uiso   1.00
O427   O     0.83334   0.20488   0.42845   0.00000  Uiso   1.00
O428   O     0.83333   0.12845   0.57155   0.00000  Uiso   1.00
O429   O     0.83333   0.20488   0.57155   0.00000  Uiso   1.00
O430   O     0.83334   0.12845   0.42845   0.00000  Uiso   1.00
Zn431  Zn    0.83333   0.21771   0.50000   0.00000  Uiso   1.00
Zn432  Zn    0.83333   0.11563   0.50000   0.00000  Uiso   1.00
C433   C     0.08672   0.49998   0.49995   0.00000  Uiso   1.00
C434   C     0.02161   0.53150   0.52948   0.00000  Uiso   1.00
C435   C     0.29073   0.50003   0.50001   0.00000  Uiso   1.00
C436   C     0.04260   0.49996   0.49999   0.00000  Uiso   1.00
C437   C     0.19207   0.35732   0.53179   0.00000  Uiso   1.00
C438   C     0.14126   0.64268   0.46821   0.00000  Uiso   1.00
C439   C     0.14129   0.35724   0.46818   0.00000  Uiso   1.00
C440   C     0.19205   0.64276   0.53182   0.00000  Uiso   1.00
C441   C     0.24661   0.50002   0.50005   0.00000  Uiso   1.00
C442   C     0.16664   0.50000   0.40623   0.00000  Uiso   1.00
C443   C     0.16669   0.50000   0.59377   0.00000  Uiso   1.00
C444   C     0.16666   0.50000   0.35513   0.00000  Uiso   1.00
C445   C     0.16668   0.50000   0.64487   0.00000  Uiso   1.00
C446   C     0.02126   0.46848   0.47049   0.00000  Uiso   1.00
C447   C     0.31207   0.53152   0.52951   0.00000  Uiso   1.00
C448   C     0.31172   0.46849   0.47052   0.00000  Uiso   1.00
F449   F     0.04187   0.43881   0.44078   0.00000  Uiso   1.00
F450   F     0.29147   0.56119   0.55922   0.00000  Uiso   1.00
F451   F     0.29076   0.43877   0.44092   0.00000  Uiso   1.00
F452   F     0.04258   0.56123   0.55908   0.00000  Uiso   1.00
F453   F     0.21761   0.37992   0.56366   0.00000  Uiso   1.00
F454   F     0.11572   0.62007   0.43634   0.00000  Uiso   1.00
F455   F     0.11590   0.37976   0.43615   0.00000  Uiso   1.00
F456   F     0.21744   0.62024   0.56385   0.00000  Uiso   1.00
N457   N     0.16667   0.61907   0.50000   0.00000  Uiso   1.00
N458   N     0.16667   0.38093   0.50000   0.00000  Uiso   1.00
O459   O     0.10559   0.53821   0.50000   0.00000  Uiso   1.00
O460   O     0.22774   0.46179   0.50000   0.00000  Uiso   1.00
O461   O     0.22774   0.53821   0.50000   0.00000  Uiso   1.00
O462   O     0.10559   0.46179   0.50000   0.00000  Uiso   1.00
O463   O     0.16667   0.53821   0.42845   0.00000  Uiso   1.00
O464   O     0.16666   0.46179   0.57155   0.00000  Uiso   1.00
O465   O     0.16666   0.53821   0.57155   0.00000  Uiso   1.00
O466   O     0.16667   0.46179   0.42845   0.00000  Uiso   1.00
Zn467  Zn    0.16667   0.55104   0.50000   0.00000  Uiso   1.00
Zn468  Zn    0.16667   0.44896   0.50000   0.00000  Uiso   1.00
C469   C     0.42006   0.49998   0.49995   0.00000  Uiso   1.00
C470   C     0.35494   0.53150   0.52948   0.00000  Uiso   1.00
C471   C     0.62407   0.50003   0.50001   0.00000  Uiso   1.00
C472   C     0.37593   0.49996   0.49999   0.00000  Uiso   1.00
C473   C     0.52541   0.35732   0.53179   0.00000  Uiso   1.00
C474   C     0.47459   0.64268   0.46821   0.00000  Uiso   1.00
C475   C     0.47462   0.35724   0.46818   0.00000  Uiso   1.00
C476   C     0.52538   0.64276   0.53182   0.00000  Uiso   1.00
C477   C     0.57994   0.50002   0.50005   0.00000  Uiso   1.00
C478   C     0.49998   0.50000   0.40623   0.00000  Uiso   1.00
C479   C     0.50002   0.50000   0.59377   0.00000  Uiso   1.00
C480   C     0.49999   0.50000   0.35513   0.00000  Uiso   1.00
C481   C     0.50001   0.50000   0.64487   0.00000  Uiso   1.00
C482   C     0.35459   0.46848   0.47049   0.00000  Uiso   1.00
C483   C     0.64541   0.53152   0.52951   0.00000  Uiso   1.00
C484   C     0.64506   0.46849   0.47052   0.00000  Uiso   1.00
F485   F     0.37520   0.43881   0.44078   0.00000  Uiso   1.00
F486   F     0.62480   0.56119   0.55922   0.00000  Uiso   1.00
F487   F     0.62409   0.43877   0.44092   0.00000  Uiso   1.00
F488   F     0.37591   0.56123   0.55908   0.00000  Uiso   1.00
F489   F     0.55095   0.37992   0.56366   0.00000  Uiso   1.00
F490   F     0.44905   0.62007   0.43634   0.00000  Uiso   1.00
F491   F     0.44923   0.37976   0.43615   0.00000  Uiso   1.00
F492   F     0.55077   0.62024   0.56385   0.00000  Uiso   1.00
N493   N     0.50000   0.61907   0.50000   0.00000  Uiso   1.00
N494   N     0.50000   0.38093   0.50000   0.00000  Uiso   1.00
O495   O     0.43892   0.53821   0.50000   0.00000  Uiso   1.00
O496   O     0.56108   0.46179   0.50000   0.00000  Uiso   1.00
O497   O     0.56108   0.53821   0.50000   0.00000  Uiso   1.00
O498   O     0.43892   0.46179   0.50000   0.00000  Uiso   1.00
O499   O     0.50000   0.53821   0.42845   0.00000  Uiso   1.00
O500   O     0.50000   0.46179   0.57155   0.00000  Uiso   1.00
O501   O     0.50000   0.53821   0.57155   0.00000  Uiso   1.00
O502   O     0.50000   0.46179   0.42845   0.00000  Uiso   1.00
Zn503  Zn    0.50000   0.55104   0.50000   0.00000  Uiso   1.00
Zn504  Zn    0.50000   0.44896   0.50000   0.00000  Uiso   1.00
C505   C     0.75339   0.49998   0.49995   0.00000  Uiso   1.00
C506   C     0.68828   0.53150   0.52948   0.00000  Uiso   1.00
C507   C     0.95740   0.50003   0.50001   0.00000  Uiso   1.00
C508   C     0.70927   0.49996   0.49999   0.00000  Uiso   1.00
C509   C     0.85874   0.35732   0.53179   0.00000  Uiso   1.00
C510   C     0.80793   0.64268   0.46821   0.00000  Uiso   1.00
C511   C     0.80796   0.35724   0.46818   0.00000  Uiso   1.00
C512   C     0.85871   0.64276   0.53182   0.00000  Uiso   1.00
C513   C     0.91328   0.50002   0.50005   0.00000  Uiso   1.00
C514   C     0.83331   0.50000   0.40623   0.00000  Uiso   1.00
C515   C     0.83336   0.50000   0.59377   0.00000  Uiso   1.00
C516   C     0.83332   0.50000   0.35513   0.00000  Uiso   1.00
C517   C     0.83334   0.50000   0.64487   0.00000  Uiso   1.00
C518   C     0.68793   0.46848   0.47049   0.00000  Uiso   1.00
C519   C     0.97874   0.53152   0.52951   0.00000  Uiso   1.00
C520   C     0.97839   0.46849   0.47052   0.00000  Uiso   1.00
F521   F     0.70853   0.43881   0.44078   0.00000  Uiso   1.00
F522   F     0.95813   0.56119   0.55922   0.00000  Uiso   1.00
F523   F     0.95742   0.43877   0.44092   0.00000  Uiso   1.00
F524   F     0.70924   0.56123   0.55908   0.00000  Uiso   1.00
F525   F     0.88428   0.37992   0.56366   0.00000  Uiso   1.00
F526   F     0.78239   0.62007   0.43634   0.00000  Uiso   1.00
F527   F     0.78256   0.37976   0.43615   0.00000  Uiso   1.00
F528   F     0.88410   0.62024   0.56385   0.00000  Uiso   1.00
N529   N     0.83333   0.61907   0.50000   0.00000  Uiso   1.00
N530   N     0.83333   0.38093   0.50000   0.00000  Uiso   1.00
O531   O     0.77226   0.53821   0.50000   0.00000  Uiso   1.00
O532   O     0.89441   0.46179   0.50000   0.00000  Uiso   1.00
O533   O     0.89441   0.53821   0.50000   0.00000  Uiso   1.00
O534   O     0.77226   0.46179   0.50000   0.00000  Uiso   1.00
O535   O     0.83334   0.53821   0.42845   0.00000  Uiso   1.00
O536   O     0.83333   0.46179   0.57155   0.00000  Uiso   1.00
O537   O     0.83333   0.53821   0.57155   0.00000  Uiso   1.00
O538   O     0.83334   0.46179   0.42845   0.00000  Uiso   1.00
Zn539  Zn    0.83333   0.55104   0.50000   0.00000  Uiso   1.00
Zn540  Zn    0.83333   0.44896   0.50000   0.00000  Uiso   1.00
C541   C     0.08672   0.83331   0.49995   0.00000  Uiso   1.00
C542   C     0.02161   0.86484   0.52948   0.00000  Uiso   1.00
C543   C     0.29073   0.83337   0.50001   0.00000  Uiso   1.00
C544   C     0.04260   0.83330   0.49999   0.00000  Uiso   1.00
C545   C     0.19207   0.69065   0.53179   0.00000  Uiso   1.00
C546   C     0.14126   0.97602   0.46821   0.00000  Uiso   1.00
C547   C     0.14129   0.69057   0.46818   0.00000  Uiso   1.00
C548   C     0.19205   0.97609   0.53182   0.00000  Uiso   1.00
C549   C     0.24661   0.83335   0.50005   0.00000  Uiso   1.00
C550   C     0.16664   0.83334   0.40623   0.00000  Uiso   1.00
C551   C     0.16669   0.83333   0.59377   0.00000  Uiso   1.00
C552   C     0.16666   0.83334   0.35513   0.00000  Uiso   1.00
C553   C     0.16668   0.83333   0.64487   0.00000  Uiso   1.00
C554   C     0.02126   0.80181   0.47049   0.00000  Uiso   1.00
C555   C     0.31207   0.86486   0.52951   0.00000  Uiso   1.00
C556   C     0.31172   0.80183   0.47052   0.00000  Uiso   1.00
F557   F     0.04187   0.77214   0.44078   0.00000  Uiso   1.00
F558   F     0.29147   0.89453   0.55922   0.00000  Uiso   1.00
F559   F     0.29076   0.77210   0.44092   0.00000  Uiso   1.00
F560   F     0.04258   0.89457   0.55908   0.00000  Uiso   1.00
F561   F     0.21761   0.71326   0.56366   0.00000  Uiso   1.00
F562   F     0.11572   0.95341   0.43634   0.00000  Uiso   1.00
F563   F     0.11590   0.71310   0.43615   0.00000  Uiso   1.00
F564   F     0.21744   0.95357   0.56385   0.00000  Uiso   1.00
N565   N     0.16667   0.95240   0.50000   0.00000  Uiso   1.00
N566   N     0.16667   0.71427   0.50000   0.00000  Uiso   1.00
O567   O     0.10559   0.87154   0.50000   0.00000  Uiso   1.00
O568   O     0.22774   0.79513   0.50000   0.00000  Uiso   1.00
O569   O     0.22774   0.87154   0.50000   0.00000  Uiso   1.00
O570   O     0.10559   0.79513   0.50000   0.00000  Uiso   1.00
O571   O     0.16667   0.87155   0.42845   0.00000  Uiso   1.00
O572   O     0.16666   0.79512   0.57155   0.00000  Uiso   1.00
O573   O     0.16666   0.87155   0.57155   0.00000  Uiso   1.00
O574   O     0.16667   0.79512   0.42845   0.00000  Uiso   1.00
Zn575  Zn    0.16667   0.88437   0.50000   0.00000  Uiso   1.00
Zn576  Zn    0.16667   0.78229   0.50000   0.00000  Uiso   1.00
C577   C     0.42006   0.83331   0.49995   0.00000  Uiso   1.00
C578   C     0.35494   0.86484   0.52948   0.00000  Uiso   1.00
C579   C     0.62407   0.83337   0.50001   0.00000  Uiso   1.00
C580   C     0.37593   0.83330   0.49999   0.00000  Uiso   1.00
C581   C     0.52541   0.69065   0.53179   0.00000  Uiso   1.00
C582   C     0.47459   0.97602   0.46821   0.00000  Uiso   1.00
C583   C     0.47462   0.69057   0.46818   0.00000  Uiso   1.00
C584   C     0.52538   0.97609   0.53182   0.00000  Uiso   1.00
C585   C     0.57994   0.83335   0.50005   0.00000  Uiso   1.00
C586   C     0.49998   0.83334   0.40623   0.00000  Uiso   1.00
C587   C     0.50002   0.83333   0.59377   0.00000  Uiso   1.00
C588   C     0.49999   0.83334   0.35513   0.00000  Uiso   1.00
C589   C     0.50001   0.83333   0.64487   0.00000  Uiso   1.00
C590   C     0.35459   0.80181   0.47049   0.00000  Uiso   1.00
C591   C     0.64541   0.86486   0.52951   0.00000  Uiso   1.00
C592   C     0.64506   0.80183   0.47052   0.00000  Uiso   1.00
F593   F     0.37520   0.77214   0.44078   0.00000  Uiso   1.00
F594   F     0.62480   0.89453   0.55922   0.00000  Uiso   1.00
F595   F     0.62409   0.77210   0.44092   0.00000  Uiso   1.00
F596   F     0.37591   0.89457   0.55908   0.00000  Uiso   1.00
F597   F     0.55095   0.71326   0.56366   0.00000  Uiso   1.00
F598   F     0.44905   0.95341   0.43634   0.00000  Uiso   1.00
F599   F     0.44923   0.71310   0.43615   0.00000  Uiso   1.00
F600   F     0.55077   0.95357   0.56385   0.00000  Uiso   1.00
N601   N     0.50000   0.95240   0.50000   0.00000  Uiso   1.00
N602   N     0.50000   0.71427   0.50000   0.00000  Uiso   1.00
O603   O     0.43892   0.87154   0.50000   0.00000  Uiso   1.00
O604   O     0.56108   0.79513   0.50000   0.00000  Uiso   1.00
O605   O     0.56108   0.87154   0.50000   0.00000  Uiso   1.00
O606   O     0.43892   0.79513   0.50000   0.00000  Uiso   1.00
O607   O     0.50000   0.87155   0.42845   0.00000  Uiso   1.00
O608   O     0.50000   0.79512   0.57155   0.00000  Uiso   1.00
O609   O     0.50000   0.87155   0.57155   0.00000  Uiso   1.00
O610   O     0.50000   0.79512   0.42845   0.00000  Uiso   1.00
Zn611  Zn    0.50000   0.88437   0.50000   0.00000  Uiso   1.00
Zn612  Zn    0.50000   0.78229   0.50000   0.00000  Uiso   1.00
C613   C     0.75339   0.83331   0.49995   0.00000  Uiso   1.00
C614   C     0.68828   0.86484   0.52948   0.00000  Uiso   1.00
C615   C     0.95740   0.83337   0.50001   0.00000  Uiso   1.00
C616   C     0.70927   0.83330   0.49999   0.00000  Uiso   1.00
C617   C     0.85874   0.69065   0.53179   0.00000  Uiso   1.00
C618   C     0.80793   0.97602   0.46821   0.00000  Uiso   1.00
C619   C     0.80796   0.69057   0.46818   0.00000  Uiso   1.00
C620   C     0.85871   0.97609   0.53182   0.00000  Uiso   1.00
C621   C     0.91328   0.83335   0.50005   0.00000  Uiso   1.00
C622   C     0.83331   0.83334   0.40623   0.00000  Uiso   1.00
C623   C     0.83336   0.83333   0.59377   0.00000  Uiso   1.00
C624   C     0.83332   0.83334   0.35513   0.00000  Uiso   1.00
C625   C     0.83334   0.83333   0.64487   0.00000  Uiso   1.00
C626   C     0.68793   0.80181   0.47049   0.00000  Uiso   1.00
C627   C     0.97874   0.86486   0.52951   0.00000  Uiso   1.00
C628   C     0.97839   0.80183   0.47052   0.00000  Uiso   1.00
F629   F     0.70853   0.77214   0.44078   0.00000  Uiso   1.00
F630   F     0.95813   0.89453   0.55922   0.00000  Uiso   1.00
F631   F     0.95742   0.77210   0.44092   0.00000  Uiso   1.00
F632   F     0.70924   0.89457   0.55908   0.00000  Uiso   1.00
F633   F     0.88428   0.71326   0.56366   0.00000  Uiso   1.00
F634   F     0.78239   0.95341   0.43634   0.00000  Uiso   1.00
F635   F     0.78256   0.71310   0.43615   0.00000  Uiso   1.00
F636   F     0.88410   0.95357   0.56385   0.00000  Uiso   1.00
N637   N     0.83333   0.95240   0.50000   0.00000  Uiso   1.00
N638   N     0.83333   0.71427   0.50000   0.00000  Uiso   1.00
O639   O     0.77226   0.87154   0.50000   0.00000  Uiso   1.00
O640   O     0.89441   0.79513   0.50000   0.00000  Uiso   1.00
O641   O     0.89441   0.87154   0.50000   0.00000  Uiso   1.00
O642   O     0.77226   0.79513   0.50000   0.00000  Uiso   1.00
O643   O     0.83334   0.87155   0.42845   0.00000  Uiso   1.00
O644   O     0.83333   0.79512   0.57155   0.00000  Uiso   1.00
O645   O     0.83333   0.87155   0.57155   0.00000  Uiso   1.00
O646   O     0.83334   0.79512   0.42845   0.00000  Uiso   1.00
Zn647  Zn    0.83333   0.88437   0.50000   0.00000  Uiso   1.00
Zn648  Zn    0.83333   0.78229   0.50000   0.00000  Uiso   1.00
C649   C     0.08672   0.16665   0.83328   0.00000  Uiso   1.00
C650   C     0.02161   0.19817   0.86281   0.00000  Uiso   1.00
C651   C     0.29073   0.16670   0.83335   0.00000  Uiso   1.00
C652   C     0.04260   0.16663   0.83332   0.00000  Uiso   1.00
C653   C     0.19207   0.02398   0.86513   0.00000  Uiso   1.00
C654   C     0.14126   0.30935   0.80154   0.00000  Uiso   1.00
C655   C     0.14129   0.02391   0.80151   0.00000  Uiso   1.00
C656   C     0.19205   0.30943   0.86515   0.00000  Uiso   1.00
C657   C     0.24661   0.16669   0.83338   0.00000  Uiso   1.00
C658   C     0.16664   0.16667   0.73957   0.00000  Uiso   1.00
C659   C     0.16669   0.16666   0.92710   0.00000  Uiso   1.00
C660   C     0.16666   0.16667   0.68846   0.00000  Uiso   1.00
C661   C     0.16668   0.16666   0.97821   0.00000  Uiso   1.00
C662   C     0.02126   0.13514   0.80383   0.00000  Uiso   1.00
C663   C     0.31207   0.19819   0.86284   0.00000  Uiso   1.00
C664   C     0.31172   0.13516   0.80385   0.00000  Uiso   1.00
F665   F     0.04187   0.10547   0.77412   0.00000  Uiso   1.00
F666   F     0.29147   0.22786   0.89255   0.00000  Uiso   1.00
F667   F     0.29076   0.10543   0.77426   0.00000  Uiso   1.00
F668   F     0.04258   0.22790   0.89241   0.00000  Uiso   1.00
F669   F     0.21761   0.04659   0.89699   0.00000  Uiso   1.00
F670   F     0.11572   0.28674   0.76967   0.00000  Uiso   1.00
F671   F     0.11590   0.04643   0.76948   0.00000  Uiso   1.00
F672   F     0.21744   0.28690   0.89719   0.00000  Uiso   1.00
N673   N     0.16667   0.28573   0.83333   0.00000  Uiso   1.00
N674   N     0.16667   0.04760   0.83333   0.00000  Uiso   1.00
O675   O     0.10559   0.20487   0.83333   0.00000  Uiso   1.00
O676   O     0.22774   0.12846   0.83334   0.00000  Uiso   1.00
O677   O     0.22774   0.20487   0.83334   0.00000  Uiso   1.00
O678   O     0.10559   0.12846   0.83333   0.00000  Uiso   1.00
O679   O     0.16667   0.20488   0.76178   0.00000  Uiso   1.00
O680   O     0.16666   0.12845   0.90489   0.00000  Uiso   1.00
O681   O     0.16666   0.20488   0.90489   0.00000  Uiso   1.00
O682   O     0.16667   0.12845   0.76178   0.00000  Uiso   1.00
Zn683  Zn    0.16667   0.21771   0.83333   0.00000  Uiso   1.00
Zn684  Zn    0.16667   0.11563   0.83333   0.00000  Uiso   1.00
C685   C     0.42006   0.16665   0.83328   0.00000  Uiso   1.00
C686   C     0.35494   0.19817   0.86281   0.00000  Uiso   1.00
C687   C     0.62407   0.16670   0.83335   0.00000  Uiso   1.00
C688   C     0.37593   0.16663   0.83332   0.00000  Uiso   1.00
C689   C     0.52541   0.02398   0.86513   0.00000  Uiso   1.00
C690   C     0.47459   0.30935   0.80154   0.00000  Uiso   1.00
C691   C     0.47462   0.02391   0.80151   0.00000  Uiso   1.00
C692   C     0.52538   0.30943   0.86515   0.00000  Uiso   1.00
C693   C     0.57994   0.16669   0.83338   0.00000  Uiso   1.00
C694   C     0.49998   0.16667   0.73957   0.00000  Uiso   1.00
C695   C     0.50002   0.16666   0.92710   0.00000  Uiso   1.00
C696   C     0.49999   0.16667   0.68846   0.00000  Uiso   1.00
C697   C     0.50001   0.16666   0.97821   0.00000  Uiso   1.00
C698   C     0.35459   0.13514   0.80383   0.00000  Uiso   1.00
C699   C     0.64541   0.19819   0.86284   0.00000  Uiso   1.00
C700   C     0.64506   0.13516   0.80385   0.00000  Uiso   1.00
F701   F     0.37520   0.10547   0.77412   0.00000  Uiso   1.00
F702   F     0.62480   0.22786   0.89255   0.00000  Uiso   1.00
F703   F     0.62409   0.10543   0.77426   0.00000  Uiso   1.00
F704   F     0.37591   0.22790   0.89241   0.00000  Uiso   1.00
F705   F     0.55095   0.04659   0.89699   0.00000  Uiso   1.00
F706   F     0.44905   0.28674   0.76967   0.00000  Uiso   1.00
F707   F     0.44923   0.04643   0.76948   0.00000  Uiso   1.00
F708   F     0.55077   0.28690   0.89719   0.00000  Uiso   1.00
N709   N     0.50000   0.28573   0.83333   0.00000  Uiso   1.00
N710   N     0.50000   0.04760   0.83333   0.00000  Uiso   1.00
O711   O     0.43892   0.20487   0.83333   0.00000  Uiso   1.00
O712   O     0.56108   0.12846   0.83334   0.00000  Uiso   1.00
O713   O     0.56108   0.20487   0.83334   0.00000  Uiso   1.00
O714   O     0.43892   0.12846   0.83333   0.00000  Uiso   1.00
O715   O     0.50000   0.20488   0.76178   0.00000  Uiso   1.00
O716   O     0.50000   0.12845   0.90489   0.00000  Uiso   1.00
O717   O     0.50000   0.20488   0.90489   0.00000  Uiso   1.00
O718   O     0.50000   0.12845   0.76178   0.00000  Uiso   1.00
Zn719  Zn    0.50000   0.21771   0.83333   0.00000  Uiso   1.00
Zn720  Zn    0.50000   0.11563   0.83333   0.00000  Uiso   1.00
C721   C     0.75339   0.16665   0.83328   0.00000  Uiso   1.00
C722   C     0.68828   0.19817   0.86281   0.00000  Uiso   1.00
C723   C     0.95740   0.16670   0.83335   0.00000  Uiso   1.00
C724   C     0.70927   0.16663   0.83332   0.00000  Uiso   1.00
C725   C     0.85874   0.02398   0.86513   0.00000  Uiso   1.00
C726   C     0.80793   0.30935   0.80154   0.00000  Uiso   1.00
C727   C     0.80796   0.02391   0.80151   0.00000  Uiso   1.00
C728   C     0.85871   0.30943   0.86515   0.00000  Uiso   1.00
C729   C     0.91328   0.16669   0.83338   0.00000  Uiso   1.00
C730   C     0.83331   0.16667   0.73957   0.00000  Uiso   1.00
C731   C     0.83336   0.16666   0.92710   0.00000  Uiso   1.00
C732   C     0.83332   0.16667   0.68846   0.00000  Uiso   1.00
C733   C     0.83334   0.16666   0.97821   0.00000  Uiso   1.00
C734   C     0.68793   0.13514   0.80383   0.00000  Uiso   1.00
C735   C     0.97874   0.19819   0.86284   0.00000  Uiso   1.00
C736   C     0.97839   0.13516   0.80385   0.00000  Uiso   1.00
F737   F     0.70853   0.10547   0.77412   0.00000  Uiso   1.00
F738   F     0.95813   0.22786   0.89255   0.00000  Uiso   1.00
F739   F     0.95742   0.10543   0.77426   0.00000  Uiso   1.00
F740   F     0.70924   0.22790   0.89241   0.00000  Uiso   1.00
F741   F     0.88428   0.04659   0.89699   0.00000  Uiso   1.00
F742   F     0.78239   0.28674   0.76967   0.00000  Uiso   1.00
F743   F     0.78256   0.04643   0.76948   0.00000  Uiso   1.00
F744   F     0.88410   0.28690   0.89719   0.00000  Uiso   1.00
N745   N     0.83333   0.28573   0.83333   0.00000  Uiso   1.00
N746   N     0.83333   0.04760   0.83333   0.00000  Uiso   1.00
O747   O     0.77226   0.20487   0.83333   0.00000  Uiso   1.00
O748   O     0.89441   0.12846   0.83334   0.00000  Uiso   1.00
O749   O     0.89441   0.20487   0.83334   0.00000  Uiso   1.00
O750   O     0.77226   0.12846   0.83333   0.00000  Uiso   1.00
O751   O     0.83334   0.20488   0.76178   0.00000  Uiso   1.00
O752   O     0.83333   0.12845   0.90489   0.00000  Uiso   1.00
O753   O     0.83333   0.20488   0.90489   0.00000  Uiso   1.00
O754   O     0.83334   0.12845   0.76178   0.00000  Uiso   1.00
Zn755  Zn    0.83333   0.21771   0.83333   0.00000  Uiso   1.00
Zn756  Zn    0.83333   0.11563   0.83333   0.00000  Uiso   1.00
C757   C     0.08672   0.49998   0.83328   0.00000  Uiso   1.00
C758   C     0.02161   0.53150   0.86281   0.00000  Uiso   1.00
C759   C     0.29073   0.50003   0.83335   0.00000  Uiso   1.00
C760   C     0.04260   0.49996   0.83332   0.00000  Uiso   1.00
C761   C     0.19207   0.35732   0.86513   0.00000  Uiso   1.00
C762   C     0.14126   0.64268   0.80154   0.00000  Uiso   1.00
C763   C     0.14129   0.35724   0.80151   0.00000  Uiso   1.00
C764   C     0.19205   0.64276   0.86515   0.00000  Uiso   1.00
C765   C     0.24661   0.50002   0.83338   0.00000  Uiso   1.00
C766   C     0.16664   0.50000   0.73957   0.00000  Uiso   1.00
C767   C     0.16669   0.50000   0.92710   0.00000  Uiso   1.00
C768   C     0.16666   0.50000   0.68846   0.00000  Uiso   1.00
C769   C     0.16668   0.50000   0.97821   0.00000  Uiso   1.00
C770   C     0.02126   0.46848   0.80383   0.00000  Uiso   1.00
C771   C     0.31207   0.53152   0.86284   0.00000  Uiso   1.00
C772   C     0.31172   0.46849   0.80385   0.00000  Uiso   1.00
F773   F     0.04187   0.43881   0.77412   0.00000  Uiso   1.00
F774   F     0.29147   0.56119   0.89255   0.00000  Uiso   1.00
F775   F     0.29076   0.43877   0.77426   0.00000  Uiso   1.00
F776   F     0.04258   0.56123   0.89241   0.00000  Uiso   1.00
F777   F     0.21761   0.37992   0.89699   0.00000  Uiso   1.00
F778   F     0.11572   0.62007   0.76967   0.00000  Uiso   1.00
F779   F     0.11590   0.37976   0.76948   0.00000  Uiso   1.00
F780   F     0.21744   0.62024   0.89719   0.00000  Uiso   1.00
N781   N     0.16667   0.61907   0.83333   0.00000  Uiso   1.00
N782   N     0.16667   0.38093   0.83333   0.00000  Uiso   1.00
O783   O     0.10559   0.53821   0.83333   0.00000  Uiso   1.00
O784   O     0.22774   0.46179   0.83334   0.00000  Uiso   1.00
O785   O     0.22774   0.53821   0.83334   0.00000  Uiso   1.00
O786   O     0.10559   0.46179   0.83333   0.00000  Uiso   1.00
O787   O     0.16667   0.53821   0.76178   0.00000  Uiso   1.00
O788   O     0.16666   0.46179   0.90489   0.00000  Uiso   1.00
O789   O     0.16666   0.53821   0.90489   0.00000  Uiso   1.00
O790   O     0.16667   0.46179   0.76178   0.00000  Uiso   1.00
Zn791  Zn    0.16667   0.55104   0.83333   0.00000  Uiso   1.00
Zn792  Zn    0.16667   0.44896   0.83333   0.00000  Uiso   1.00
C793   C     0.42006   0.49998   0.83328   0.00000  Uiso   1.00
C794   C     0.35494   0.53150   0.86281   0.00000  Uiso   1.00
C795   C     0.62407   0.50003   0.83335   0.00000  Uiso   1.00
C796   C     0.37593   0.49996   0.83332   0.00000  Uiso   1.00
C797   C     0.52541   0.35732   0.86513   0.00000  Uiso   1.00
C798   C     0.47459   0.64268   0.80154   0.00000  Uiso   1.00
C799   C     0.47462   0.35724   0.80151   0.00000  Uiso   1.00
C800   C     0.52538   0.64276   0.86515   0.00000  Uiso   1.00
C801   C     0.57994   0.50002   0.83338   0.00000  Uiso   1.00
C802   C     0.49998   0.50000   0.73957   0.00000  Uiso   1.00
C803   C     0.50002   0.50000   0.92710   0.00000  Uiso   1.00
C804   C     0.49999   0.50000   0.68846   0.00000  Uiso   1.00
C805   C     0.50001   0.50000   0.97821   0.00000  Uiso   1.00
C806   C     0.35459   0.46848   0.80383   0.00000  Uiso   1.00
C807   C     0.64541   0.53152   0.86284   0.00000  Uiso   1.00
C808   C     0.64506   0.46849   0.80385   0.00000  Uiso   1.00
F809   F     0.37520   0.43881   0.77412   0.00000  Uiso   1.00
F810   F     0.62480   0.56119   0.89255   0.00000  Uiso   1.00
F811   F     0.62409   0.43877   0.77426   0.00000  Uiso   1.00
F812   F     0.37591   0.56123   0.89241   0.00000  Uiso   1.00
F813   F     0.55095   0.37992   0.89699   0.00000  Uiso   1.00
F814   F     0.44905   0.62007   0.76967   0.00000  Uiso   1.00
F815   F     0.44923   0.37976   0.76948   0.00000  Uiso   1.00
F816   F     0.55077   0.62024   0.89719   0.00000  Uiso   1.00
N817   N     0.50000   0.61907   0.83333   0.00000  Uiso   1.00
N818   N     0.50000   0.38093   0.83333   0.00000  Uiso   1.00
O819   O     0.43892   0.53821   0.83333   0.00000  Uiso   1.00
O820   O     0.56108   0.46179   0.83334   0.00000  Uiso   1.00
O821   O     0.56108   0.53821   0.83334   0.00000  Uiso   1.00
O822   O     0.43892   0.46179   0.83333   0.00000  Uiso   1.00
O823   O     0.50000   0.53821   0.76178   0.00000  Uiso   1.00
O824   O     0.50000   0.46179   0.90489   0.00000  Uiso   1.00
O825   O     0.50000   0.53821   0.90489   0.00000  Uiso   1.00
O826   O     0.50000   0.46179   0.76178   0.00000  Uiso   1.00
Zn827  Zn    0.50000   0.55104   0.83333   0.00000  Uiso   1.00
Zn828  Zn    0.50000   0.44896   0.83333   0.00000  Uiso   1.00
C829   C     0.75339   0.49998   0.83328   0.00000  Uiso   1.00
C830   C     0.68828   0.53150   0.86281   0.00000  Uiso   1.00
C831   C     0.95740   0.50003   0.83335   0.00000  Uiso   1.00
C832   C     0.70927   0.49996   0.83332   0.00000  Uiso   1.00
C833   C     0.85874   0.35732   0.86513   0.00000  Uiso   1.00
C834   C     0.80793   0.64268   0.80154   0.00000  Uiso   1.00
C835   C     0.80796   0.35724   0.80151   0.00000  Uiso   1.00
C836   C     0.85871   0.64276   0.86515   0.00000  Uiso   1.00
C837   C     0.91328   0.50002   0.83338   0.00000  Uiso   1.00
C838   C     0.83331   0.50000   0.73957   0.00000  Uiso   1.00
C839   C     0.83336   0.50000   0.92710   0.00000  Uiso   1.00
C840   C     0.83332   0.50000   0.68846   0.00000  Uiso   1.00
C841   C     0.83334   0.50000   0.97821   0.00000  Uiso   1.00
C842   C     0.68793   0.46848   0.80383   0.00000  Uiso   1.00
C843   C     0.97874   0.53152   0.86284   0.00000  Uiso   1.00
C844   C     0.97839   0.46849   0.80385   0.00000  Uiso   1.00
F845   F     0.70853   0.43881   0.77412   0.00000  Uiso   1.00
F846   F     0.95813   0.56119   0.89255   0.00000  Uiso   1.00
F847   F     0.95742   0.43877   0.77426   0.00000  Uiso   1.00
F848   F     0.70924   0.56123   0.89241   0.00000  Uiso   1.00
F849   F     0.88428   0.37992   0.89699   0.00000  Uiso   1.00
F850   F     0.78239   0.62007   0.76967   0.00000  Uiso   1.00
F851   F     0.78256   0.37976   0.76948   0.00000  Uiso   1.00
F852   F     0.88410   0.62024   0.89719   0.00000  Uiso   1.00
N853   N     0.83333   0.61907   0.83333   0.00000  Uiso   1.00
N854   N     0.83333   0.38093   0.83333   0.00000  Uiso   1.00
O855   O     0.77226   0.53821   0.83333   0.00000  Uiso   1.00
O856   O     0.89441   0.46179   0.83334   0.00000  Uiso   1.00
O857   O     0.89441   0.53821   0.83334   0.00000  Uiso   1.00
O858   O     0.77226   0.46179   0.83333   0.00000  Uiso   1.00
O859   O     0.83334   0.53821   0.76178   0.00000  Uiso   1.00
O860   O     0.83333   0.46179   0.90489   0.00000  Uiso   1.00
O861   O     0.83333   0.53821   0.90489   0.00000  Uiso   1.00
O862   O     0.83334   0.46179   0.76178   0.00000  Uiso   1.00
Zn863  Zn    0.83333   0.55104   0.83333   0.00000  Uiso   1.00
Zn864  Zn    0.83333   0.44896   0.83333   0.00000  Uiso   1.00
C865   C     0.08672   0.83331   0.83328   0.00000  Uiso   1.00
C866   C     0.02161   0.86484   0.86281   0.00000  Uiso   1.00
C867   C     0.29073   0.83337   0.83335   0.00000  Uiso   1.00
C868   C     0.04260   0.83330   0.83332   0.00000  Uiso   1.00
C869   C     0.19207   0.69065   0.86513   0.00000  Uiso   1.00
C870   C     0.14126   0.97602   0.80154   0.00000  Uiso   1.00
C871   C     0.14129   0.69057   0.80151   0.00000  Uiso   1.00
C872   C     0.19205   0.97609   0.86515   0.00000  Uiso   1.00
C873   C     0.24661   0.83335   0.83338   0.00000  Uiso   1.00
C874   C     0.16664   0.83334   0.73957   0.00000  Uiso   1.00
C875   C     0.16669   0.83333   0.92710   0.00000  Uiso   1.00
C876   C     0.16666   0.83334   0.68846   0.00000  Uiso   1.00
C877   C     0.16668   0.83333   0.97821   0.00000  Uiso   1.00
C878   C     0.02126   0.80181   0.80383   0.00000  Uiso   1.00
C879   C     0.31207   0.86486   0.86284   0.00000  Uiso   1.00
C880   C     0.31172   0.80183   0.80385   0.00000  Uiso   1.00
F881   F     0.04187   0.77214   0.77412   0.00000  Uiso   1.00
F882   F     0.29147   0.89453   0.89255   0.00000  Uiso   1.00
F883   F     0.29076   0.77210   0.77426   0.00000  Uiso   1.00
F884   F     0.04258   0.89457   0.89241   0.00000  Uiso   1.00
F885   F     0.21761   0.71326   0.89699   0.00000  Uiso   1.00
F886   F     0.11572   0.95341   0.76967   0.00000  Uiso   1.00
F887   F     0.11590   0.71310   0.76948   0.00000  Uiso   1.00
F888   F     0.21744   0.95357   0.89719   0.00000  Uiso   1.00
N889   N     0.16667   0.95240   0.83333   0.00000  Uiso   1.00
N890   N     0.16667   0.71427   0.83333   0.00000  Uiso   1.00
O891   O     0.10559   0.87154   0.83333   0.00000  Uiso   1.00
O892   O     0.22774   0.79513   0.83334   0.00000  Uiso   1.00
O893   O     0.22774   0.87154   0.83334   0.00000  Uiso   1.00
O894   O     0.10559   0.79513   0.83333   0.00000  Uiso   1.00
O895   O     0.16667   0.87155   0.76178   0.00000  Uiso   1.00
O896   O     0.16666   0.79512   0.90489   0.00000  Uiso   1.00
O897   O     0.16666   0.87155   0.90489   0.00000  Uiso   1.00
O898   O     0.16667   0.79512   0.76178   0.00000  Uiso   1.00
Zn899  Zn    0.16667   0.88437   0.83333   0.00000  Uiso   1.00
Zn900  Zn    0.16667   0.78229   0.83333   0.00000  Uiso   1.00
C901   C     0.42006   0.83331   0.83328   0.00000  Uiso   1.00
C902   C     0.35494   0.86484   0.86281   0.00000  Uiso   1.00
C903   C     0.62407   0.83337   0.83335   0.00000  Uiso   1.00
C904   C     0.37593   0.83330   0.83332   0.00000  Uiso   1.00
C905   C     0.52541   0.69065   0.86513   0.00000  Uiso   1.00
C906   C     0.47459   0.97602   0.80154   0.00000  Uiso   1.00
C907   C     0.47462   0.69057   0.80151   0.00000  Uiso   1.00
C908   C     0.52538   0.97609   0.86515   0.00000  Uiso   1.00
C909   C     0.57994   0.83335   0.83338   0.00000  Uiso   1.00
C910   C     0.49998   0.83334   0.73957   0.00000  Uiso   1.00
C911   C     0.50002   0.83333   0.92710   0.00000  Uiso   1.00
C912   C     0.49999   0.83334   0.68846   0.00000  Uiso   1.00
C913   C     0.50001   0.83333   0.97821   0.00000  Uiso   1.00
C914   C     0.35459   0.80181   0.80383   0.00000  Uiso   1.00
C915   C     0.64541   0.86486   0.86284   0.00000  Uiso   1.00
C916   C     0.64506   0.80183   0.80385   0.00000  Uiso   1.00
F917   F     0.37520   0.77214   0.77412   0.00000  Uiso   1.00
F918   F     0.62480   0.89453   0.89255   0.00000  Uiso   1.00
F919   F     0.62409   0.77210   0.77426   0.00000  Uiso   1.00
F920   F     0.37591   0.89457   0.89241   0.00000  Uiso   1.00
F921   F     0.55095   0.71326   0.89699   0.00000  Uiso   1.00
F922   F     0.44905   0.95341   0.76967   0.00000  Uiso   1.00
F923   F     0.44923   0.71310   0.76948   0.00000  Uiso   1.00
F924   F     0.55077   0.95357   0.89719   0.00000  Uiso   1.00
N925   N     0.50000   0.95240   0.83333   0.00000  Uiso   1.00
N926   N     0.50000   0.71427   0.83333   0.00000  Uiso   1.00
O927   O     0.43892   0.87154   0.83333   0.00000  Uiso   1.00
O928   O     0.56108   0.79513   0.83334   0.00000  Uiso   1.00
O929   O     0.56108   0.87154   0.83334   0.00000  Uiso   1.00
O930   O     0.43892   0.79513   0.83333   0.00000  Uiso   1.00
O931   O     0.50000   0.87155   0.76178   0.00000  Uiso   1.00
O932   O     0.50000   0.79512   0.90489   0.00000  Uiso   1.00
O933   O     0.50000   0.87155   0.90489   0.00000  Uiso   1.00
O934   O     0.50000   0.79512   0.76178   0.00000  Uiso   1.00
Zn935  Zn    0.50000   0.88437   0.83333   0.00000  Uiso   1.00
Zn936  Zn    0.50000   0.78229   0.83333   0.00000  Uiso   1.00
C937   C     0.75339   0.83331   0.83328   0.00000  Uiso   1.00
C938   C     0.68828   0.86484   0.86281   0.00000  Uiso   1.00
C939   C     0.95740   0.83337   0.83335   0.00000  Uiso   1.00
C940   C     0.70927   0.83330   0.83332   0.00000  Uiso   1.00
C941   C     0.85874   0.69065   0.86513   0.00000  Uiso   1.00
C942   C     0.80793   0.97602   0.80154   0.00000  Uiso   1.00
C943   C     0.80796   0.69057   0.80151   0.00000  Uiso   1.00
C944   C     0.85871   0.97609   0.86515   0.00000  Uiso   1.00
C945   C     0.91328   0.83335   0.83338   0.00000  Uiso   1.00
C946   C     0.83331   0.83334   0.73957   0.00000  Uiso   1.00
C947   C     0.83336   0.83333   0.92710   0.00000  Uiso   1.00
C948   C     0.83332   0.83334   0.68846   0.00000  Uiso   1.00
C949   C     0.83334   0.83333   0.97821   0.00000  Uiso   1.00
C950   C     0.68793   0.80181   0.80383   0.00000  Uiso   1.00
C951   C     0.97874   0.86486   0.86284   0.00000  Uiso   1.00
C952   C     0.97839   0.80183   0.80385   0.00000  Uiso   1.00
F953   F     0.70853   0.77214   0.77412   0.00000  Uiso   1.00
F954   F     0.95813   0.89453   0.89255   0.00000  Uiso   1.00
F955   F     0.95742   0.77210   0.77426   0.00000  Uiso   1.00
F956   F     0.70924   0.89457   0.89241   0.00000  Uiso   1.00
F957   F     0.88428   0.71326   0.89699   0.00000  Uiso   1.00
F958   F     0.78239   0.95341   0.76967   0.00000  Uiso   1.00
F959   F     0.78256   0.71310   0.76948   0.00000  Uiso   1.00
F960   F     0.88410   0.95357   0.89719   0.00000  Uiso   1.00
N961   N     0.83333   0.95240   0.83333   0.00000  Uiso   1.00
N962   N     0.83333   0.71427   0.83333   0.00000  Uiso   1.00
O963   O     0.77226   0.87154   0.83333   0.00000  Uiso   1.00
O964   O     0.89441   0.79513   0.83334   0.00000  Uiso   1.00
O965   O     0.89441   0.87154   0.83334   0.00000  Uiso   1.00
O966   O     0.77226   0.79513   0.83333   0.00000  Uiso   1.00
O967   O     0.83334   0.87155   0.76178   0.00000  Uiso   1.00
O968   O     0.83333   0.79512   0.90489   0.00000  Uiso   1.00
O969   O     0.83333   0.87155   0.90489   0.00000  Uiso   1.00
O970   O     0.83334   0.79512   0.76178   0.00000  Uiso   1.00
Zn971  Zn    0.83333   0.88437   0.83333   0.00000  Uiso   1.00
Zn972  Zn    0.83333   0.78229   0.83333   0.00000  Uiso   1.00
loop_
_geom_bond_atom_site_label_1
_geom_bond_atom_site_label_2
_geom_bond_distance
_geom_bond_site_symmetry_2
_ccdc_geom_bond_type
C1     C4      1.413   .     S
C1     O30     1.283   .     A
C1     O27     1.283   .     A
C2     C4      1.398   .     A
C2     F20     1.359   .     S
C2     C87     1.373   1_455 S
C3     C9      1.413   .     S
C3     C15     1.398   .     A
C3     C16     1.398   .     A
C4     C14     1.398   .     A
C5     F21     1.355   .     S
C5     N26     1.367   .     A
C5     C224    1.419   1_545 S
C6     N25     1.367   .     A
C6     F22     1.355   .     S
C6     C115    1.419   .     S
C7     N26     1.368   .     A
C7     F23     1.355   .     S
C7     C222    1.419   1_545 S
C8     N25     1.368   .     A
C8     F24     1.355   .     S
C8     C113    1.419   .     S
C9     O29     1.283   .     A
C9     O28     1.283   .     A
C10    O34     1.278   .     A
C10    C12     1.367   .     S
C10    O31     1.279   .     A
C11    C13     1.367   .     S
C11    O32     1.279   .     A
C11    O33     1.278   .     A
C12    C661    1.166   1_554 S
C13    C336    1.166   .     S
C14    F17     1.359   .     S
C14    C88     1.373   1_455 S
C15    F18     1.359   .     S
C15    C38     1.373   .     S
C16    F19     1.359   .     S
C16    C50     1.373   .     S
N25    Zn35    2.015   .     S
N26    Zn36    2.015   .     S
O27    Zn35    1.992   .     S
O28    Zn36    1.992   .     S
O29    Zn35    1.993   .     S
O30    Zn36    1.993   .     S
O31    Zn35    1.951   .     S
O32    Zn36    1.951   .     S
O33    Zn35    1.951   .     S
O34    Zn36    1.951   .     S
C37    C40     1.413   .     S
C37    O66     1.283   .     A
C37    O63     1.283   .     A
C38    C40     1.398   .     A
C38    F56     1.359   .     S
C39    C45     1.413   .     S
C39    C51     1.398   .     A
C39    C52     1.398   .     A
C40    C50     1.398   .     A
C41    F57     1.355   .     S
C41    N62     1.367   .     A
C41    C260    1.419   1_545 S
C42    N61     1.367   .     A
C42    F58     1.355   .     S
C42    C151    1.419   .     S
C43    N62     1.368   .     A
C43    F59     1.355   .     S
C43    C258    1.419   1_545 S
C44    N61     1.368   .     A
C44    F60     1.355   .     S
C44    C149    1.419   .     S
C45    O65     1.283   .     A
C45    O64     1.283   .     A
C46    O70     1.278   .     A
C46    C48     1.367   .     S
C46    O67     1.279   .     A
C47    C49     1.367   .     S
C47    O68     1.279   .     A
C47    O69     1.278   .     A
C48    C697    1.166   1_554 S
C49    C372    1.166   .     S
C50    F53     1.359   .     S
C51    F54     1.359   .     S
C51    C74     1.373   .     S
C52    F55     1.359   .     S
C52    C86     1.373   .     S
N61    Zn71    2.015   .     S
N62    Zn72    2.015   .     S
O63    Zn71    1.992   .     S
O64    Zn72    1.992   .     S
O65    Zn71    1.993   .     S
O66    Zn72    1.993   .     S
O67    Zn71    1.951   .     S
O68    Zn72    1.951   .     S
O69    Zn71    1.951   .     S
O70    Zn72    1.951   .     S
C73    C76     1.413   .     S
C73    O102    1.283   .     A
C73    O99     1.283   .     A
C74    C76     1.398   .     A
C74    F92     1.359   .     S
C75    C81     1.413   .     S
C75    C87     1.398   .     A
C75    C88     1.398   .     A
C76    C86     1.398   .     A
C77    F93     1.355   .     S
C77    N98     1.367   .     A
C77    C296    1.419   1_545 S
C78    N97     1.367   .     A
C78    F94     1.355   .     S
C78    C187    1.419   .     S
C79    N98     1.368   .     A
C79    F95     1.355   .     S
C79    C294    1.419   1_545 S
C80    N97     1.368   .     A
C80    F96     1.355   .     S
C80    C185    1.419   .     S
C81    O101    1.283   .     A
C81    O100    1.283   .     A
C82    O106    1.278   .     A
C82    C84     1.367   .     S
C82    O103    1.279   .     A
C83    C85     1.367   .     S
C83    O104    1.279   .     A
C83    O105    1.278   .     A
C84    C733    1.166   1_554 S
C85    C408    1.166   .     S
C86    F89     1.359   .     S
C87    F90     1.359   .     S
C87    C2      1.373   1_655 S
C88    F91     1.359   .     S
C88    C14     1.373   1_655 S
N97    Zn107   2.015   .     S
N98    Zn108   2.015   .     S
O99    Zn107   1.992   .     S
O100   Zn108   1.992   .     S
O101   Zn107   1.993   .     S
O102   Zn108   1.993   .     S
O103   Zn107   1.951   .     S
O104   Zn108   1.951   .     S
O105   Zn107   1.951   .     S
O106   Zn108   1.951   .     S
C109   C112    1.413   .     S
C109   O138    1.283   .     A
C109   O135    1.283   .     A
C110   C112    1.398   .     A
C110   F128    1.359   .     S
C110   C195    1.373   1_455 S
C111   C117    1.413   .     S
C111   C123    1.398   .     A
C111   C124    1.398   .     A
C112   C122    1.398   .     A
C113   F129    1.355   .     S
C113   N134    1.367   .     A
C114   N133    1.367   .     A
C114   F130    1.355   .     S
C114   C223    1.419   .     S
C115   N134    1.368   .     A
C115   F131    1.355   .     S
C116   N133    1.368   .     A
C116   F132    1.355   .     S
C116   C221    1.419   .     S
C117   O137    1.283   .     A
C117   O136    1.283   .     A
C118   O142    1.278   .     A
C118   C120    1.367   .     S
C118   O139    1.279   .     A
C119   C121    1.367   .     S
C119   O140    1.279   .     A
C119   O141    1.278   .     A
C120   C769    1.166   1_554 S
C121   C444    1.166   .     S
C122   F125    1.359   .     S
C122   C196    1.373   1_455 S
C123   F126    1.359   .     S
C123   C146    1.373   .     S
C124   F127    1.359   .     S
C124   C158    1.373   .     S
N133   Zn143   2.015   .     S
N134   Zn144   2.015   .     S
O135   Zn143   1.992   .     S
O136   Zn144   1.992   .     S
O137   Zn143   1.993   .     S
O138   Zn144   1.993   .     S
O139   Zn143   1.951   .     S
O140   Zn144   1.951   .     S
O141   Zn143   1.951   .     S
O142   Zn144   1.951   .     S
C145   C148    1.413   .     S
C145   O174    1.283   .     A
C145   O171    1.283   .     A
C146   C148    1.398   .     A
C146   F164    1.359   .     S
C147   C153    1.413   .     S
C147   C159    1.398   .     A
C147   C160    1.398   .     A
C148   C158    1.398   .     A
C149   F165    1.355   .     S
C149   N170    1.367   .     A
C150   N169    1.367   .     A
C150   F166    1.355   .     S
C150   C259    1.419   .     S
C151   N170    1.368   .     A
C151   F167    1.355   .     S
C152   N169    1.368   .     A
C152   F168    1.355   .     S
C152   C257    1.419   .     S
C153   O173    1.283   .     A
C153   O172    1.283   .     A
C154   O178    1.278   .     A
C154   C156    1.367   .     S
C154   O175    1.279   .     A
C155   C157    1.367   .     S
C155   O176    1.279   .     A
C155   O177    1.278   .     A
C156   C805    1.166   1_554 S
C157   C480    1.166   .     S
C158   F161    1.359   .     S
C159   F162    1.359   .     S
C159   C182    1.373   .     S
C160   F163    1.359   .     S
C160   C194    1.373   .     S
N169   Zn179   2.015   .     S
N170   Zn180   2.015   .     S
O171   Zn179   1.992   .     S
O172   Zn180   1.992   .     S
O173   Zn179   1.993   .     S
O174   Zn180   1.993   .     S
O175   Zn179   1.951   .     S
O176   Zn180   1.951   .     S
O177   Zn179   1.951   .     S
O178   Zn180   1.951   .     S
C181   C184    1.413   .     S
C181   O210    1.283   .     A
C181   O207    1.283   .     A
C182   C184    1.398   .     A
C182   F200    1.359   .     S
C183   C189    1.413   .     S
C183   C195    1.398   .     A
C183   C196    1.398   .     A
C184   C194    1.398   .     A
C185   F201    1.355   .     S
C185   N206    1.367   .     A
C186   N205    1.367   .     A
C186   F202    1.355   .     S
C186   C295    1.419   .     S
C187   N206    1.368   .     A
C187   F203    1.355   .     S
C188   N205    1.368   .     A
C188   F204    1.355   .     S
C188   C293    1.419   .     S
C189   O209    1.283   .     A
C189   O208    1.283   .     A
C190   O214    1.278   .     A
C190   C192    1.367   .     S
C190   O211    1.279   .     A
C191   C193    1.367   .     S
C191   O212    1.279   .     A
C191   O213    1.278   .     A
C192   C841    1.166   1_554 S
C193   C516    1.166   .     S
C194   F197    1.359   .     S
C195   F198    1.359   .     S
C195   C110    1.373   1_655 S
C196   F199    1.359   .     S
C196   C122    1.373   1_655 S
N205   Zn215   2.015   .     S
N206   Zn216   2.015   .     S
O207   Zn215   1.992   .     S
O208   Zn216   1.992   .     S
O209   Zn215   1.993   .     S
O210   Zn216   1.993   .     S
O211   Zn215   1.951   .     S
O212   Zn216   1.951   .     S
O213   Zn215   1.951   .     S
O214   Zn216   1.951   .     S
C217   C220    1.413   .     S
C217   O246    1.283   .     A
C217   O243    1.283   .     A
C218   C220    1.398   .     A
C218   F236    1.359   .     S
C218   C303    1.373   1_455 S
C219   C225    1.413   .     S
C219   C231    1.398   .     A
C219   C232    1.398   .     A
C220   C230    1.398   .     A
C221   F237    1.355   .     S
C221   N242    1.367   .     A
C222   N241    1.367   .     A
C222   F238    1.355   .     S
C222   C7      1.419   1_565 S
C223   N242    1.368   .     A
C223   F239    1.355   .     S
C224   N241    1.368   .     A
C224   F240    1.355   .     S
C224   C5      1.419   1_565 S
C225   O245    1.283   .     A
C225   O244    1.283   .     A
C226   O250    1.278   .     A
C226   C228    1.367   .     S
C226   O247    1.279   .     A
C227   C229    1.367   .     S
C227   O248    1.279   .     A
C227   O249    1.278   .     A
C228   C877    1.166   1_554 S
C229   C552    1.166   .     S
C230   F233    1.359   .     S
C230   C304    1.373   1_455 S
C231   F234    1.359   .     S
C231   C254    1.373   .     S
C232   F235    1.359   .     S
C232   C266    1.373   .     S
N241   Zn251   2.015   .     S
N242   Zn252   2.015   .     S
O243   Zn251   1.992   .     S
O244   Zn252   1.992   .     S
O245   Zn251   1.993   .     S
O246   Zn252   1.993   .     S
O247   Zn251   1.951   .     S
O248   Zn252   1.951   .     S
O249   Zn251   1.951   .     S
O250   Zn252   1.951   .     S
C253   C256    1.413   .     S
C253   O282    1.283   .     A
C253   O279    1.283   .     A
C254   C256    1.398   .     A
C254   F272    1.359   .     S
C255   C261    1.413   .     S
C255   C267    1.398   .     A
C255   C268    1.398   .     A
C256   C266    1.398   .     A
C257   F273    1.355   .     S
C257   N278    1.367   .     A
C258   N277    1.367   .     A
C258   F274    1.355   .     S
C258   C43     1.419   1_565 S
C259   N278    1.368   .     A
C259   F275    1.355   .     S
C260   N277    1.368   .     A
C260   F276    1.355   .     S
C260   C41     1.419   1_565 S
C261   O281    1.283   .     A
C261   O280    1.283   .     A
C262   O286    1.278   .     A
C262   C264    1.367   .     S
C262   O283    1.279   .     A
C263   C265    1.367   .     S
C263   O284    1.279   .     A
C263   O285    1.278   .     A
C264   C913    1.166   1_554 S
C265   C588    1.166   .     S
C266   F269    1.359   .     S
C267   F270    1.359   .     S
C267   C290    1.373   .     S
C268   F271    1.359   .     S
C268   C302    1.373   .     S
N277   Zn287   2.015   .     S
N278   Zn288   2.015   .     S
O279   Zn287   1.992   .     S
O280   Zn288   1.992   .     S
O281   Zn287   1.993   .     S
O282   Zn288   1.993   .     S
O283   Zn287   1.951   .     S
O284   Zn288   1.951   .     S
O285   Zn287   1.951   .     S
O286   Zn288   1.951   .     S
C289   C292    1.413   .     S
C289   O318    1.283   .     A
C289   O315    1.283   .     A
C290   C292    1.398   .     A
C290   F308    1.359   .     S
C291   C297    1.413   .     S
C291   C303    1.398   .     A
C291   C304    1.398   .     A
C292   C302    1.398   .     A
C293   F309    1.355   .     S
C293   N314    1.367   .     A
C294   N313    1.367   .     A
C294   F310    1.355   .     S
C294   C79     1.419   1_565 S
C295   N314    1.368   .     A
C295   F311    1.355   .     S
C296   N313    1.368   .     A
C296   F312    1.355   .     S
C296   C77     1.419   1_565 S
C297   O317    1.283   .     A
C297   O316    1.283   .     A
C298   O322    1.278   .     A
C298   C300    1.367   .     S
C298   O319    1.279   .     A
C299   C301    1.367   .     S
C299   O320    1.279   .     A
C299   O321    1.278   .     A
C300   C949    1.166   1_554 S
C301   C624    1.166   .     S
C302   F305    1.359   .     S
C303   F306    1.359   .     S
C303   C218    1.373   1_655 S
C304   F307    1.359   .     S
C304   C230    1.373   1_655 S
N313   Zn323   2.015   .     S
N314   Zn324   2.015   .     S
O315   Zn323   1.992   .     S
O316   Zn324   1.992   .     S
O317   Zn323   1.993   .     S
O318   Zn324   1.993   .     S
O319   Zn323   1.951   .     S
O320   Zn324   1.951   .     S
O321   Zn323   1.951   .     S
O322   Zn324   1.951   .     S
C325   C328    1.413   .     S
C325   O354    1.283   .     A
C325   O351    1.283   .     A
C326   C328    1.398   .     A
C326   F344    1.359   .     S
C326   C411    1.373   1_455 S
C327   C333    1.413   .     S
C327   C339    1.398   .     A
C327   C340    1.398   .     A
C328   C338    1.398   .     A
C329   F345    1.355   .     S
C329   N350    1.367   .     A
C329   C548    1.419   1_545 S
C330   N349    1.367   .     A
C330   F346    1.355   .     S
C330   C439    1.419   .     S
C331   N350    1.368   .     A
C331   F347    1.355   .     S
C331   C546    1.419   1_545 S
C332   N349    1.368   .     A
C332   F348    1.355   .     S
C332   C437    1.419   .     S
C333   O353    1.283   .     A
C333   O352    1.283   .     A
C334   O358    1.278   .     A
C334   C336    1.367   .     S
C334   O355    1.279   .     A
C335   C337    1.367   .     S
C335   O356    1.279   .     A
C335   O357    1.278   .     A
C337   C660    1.166   .     S
C338   F341    1.359   .     S
C338   C412    1.373   1_455 S
C339   F342    1.359   .     S
C339   C362    1.373   .     S
C340   F343    1.359   .     S
C340   C374    1.373   .     S
N349   Zn359   2.015   .     S
N350   Zn360   2.015   .     S
O351   Zn359   1.992   .     S
O352   Zn360   1.992   .     S
O353   Zn359   1.993   .     S
O354   Zn360   1.993   .     S
O355   Zn359   1.951   .     S
O356   Zn360   1.951   .     S
O357   Zn359   1.951   .     S
O358   Zn360   1.951   .     S
C361   C364    1.413   .     S
C361   O390    1.283   .     A
C361   O387    1.283   .     A
C362   C364    1.398   .     A
C362   F380    1.359   .     S
C363   C369    1.413   .     S
C363   C375    1.398   .     A
C363   C376    1.398   .     A
C364   C374    1.398   .     A
C365   F381    1.355   .     S
C365   N386    1.367   .     A
C365   C584    1.419   1_545 S
C366   N385    1.367   .     A
C366   F382    1.355   .     S
C366   C475    1.419   .     S
C367   N386    1.368   .     A
C367   F383    1.355   .     S
C367   C582    1.419   1_545 S
C368   N385    1.368   .     A
C368   F384    1.355   .     S
C368   C473    1.419   .     S
C369   O389    1.283   .     A
C369   O388    1.283   .     A
C370   O394    1.278   .     A
C370   C372    1.367   .     S
C370   O391    1.279   .     A
C371   C373    1.367   .     S
C371   O392    1.279   .     A
C371   O393    1.278   .     A
C373   C696    1.166   .     S
C374   F377    1.359   .     S
C375   F378    1.359   .     S
C375   C398    1.373   .     S
C376   F379    1.359   .     S
C376   C410    1.373   .     S
N385   Zn395   2.015   .     S
N386   Zn396   2.015   .     S
O387   Zn395   1.992   .     S
O388   Zn396   1.992   .     S
O389   Zn395   1.993   .     S
O390   Zn396   1.993   .     S
O391   Zn395   1.951   .     S
O392   Zn396   1.951   .     S
O393   Zn395   1.951   .     S
O394   Zn396   1.951   .     S
C397   C400    1.413   .     S
C397   O426    1.283   .     A
C397   O423    1.283   .     A
C398   C400    1.398   .     A
C398   F416    1.359   .     S
C399   C405    1.413   .     S
C399   C411    1.398   .     A
C399   C412    1.398   .     A
C400   C410    1.398   .     A
C401   F417    1.355   .     S
C401   N422    1.367   .     A
C401   C620    1.419   1_545 S
C402   N421    1.367   .     A
C402   F418    1.355   .     S
C402   C511    1.419   .     S
C403   N422    1.368   .     A
C403   F419    1.355   .     S
C403   C618    1.419   1_545 S
C404   N421    1.368   .     A
C404   F420    1.355   .     S
C404   C509    1.419   .     S
C405   O425    1.283   .     A
C405   O424    1.283   .     A
C406   O430    1.278   .     A
C406   C408    1.367   .     S
C406   O427    1.279   .     A
C407   C409    1.367   .     S
C407   O428    1.279   .     A
C407   O429    1.278   .     A
C409   C732    1.166   .     S
C410   F413    1.359   .     S
C411   F414    1.359   .     S
C411   C326    1.373   1_655 S
C412   F415    1.359   .     S
C412   C338    1.373   1_655 S
N421   Zn431   2.015   .     S
N422   Zn432   2.015   .     S
O423   Zn431   1.992   .     S
O424   Zn432   1.992   .     S
O425   Zn431   1.993   .     S
O426   Zn432   1.993   .     S
O427   Zn431   1.951   .     S
O428   Zn432   1.951   .     S
O429   Zn431   1.951   .     S
O430   Zn432   1.951   .     S
C433   C436    1.413   .     S
C433   O462    1.283   .     A
C433   O459    1.283   .     A
C434   C436    1.398   .     A
C434   F452    1.359   .     S
C434   C519    1.373   1_455 S
C435   C441    1.413   .     S
C435   C447    1.398   .     A
C435   C448    1.398   .     A
C436   C446    1.398   .     A
C437   F453    1.355   .     S
C437   N458    1.367   .     A
C438   N457    1.367   .     A
C438   F454    1.355   .     S
C438   C547    1.419   .     S
C439   N458    1.368   .     A
C439   F455    1.355   .     S
C440   N457    1.368   .     A
C440   F456    1.355   .     S
C440   C545    1.419   .     S
C441   O461    1.283   .     A
C441   O460    1.283   .     A
C442   O466    1.278   .     A
C442   C444    1.367   .     S
C442   O463    1.279   .     A
C443   C445    1.367   .     S
C443   O464    1.279   .     A
C443   O465    1.278   .     A
C445   C768    1.166   .     S
C446   F449    1.359   .     S
C446   C520    1.373   1_455 S
C447   F450    1.359   .     S
C447   C470    1.373   .     S
C448   F451    1.359   .     S
C448   C482    1.373   .     S
N457   Zn467   2.015   .     S
N458   Zn468   2.015   .     S
O459   Zn467   1.992   .     S
O460   Zn468   1.992   .     S
O461   Zn467   1.993   .     S
O462   Zn468   1.993   .     S
O463   Zn467   1.951   .     S
O464   Zn468   1.951   .     S
O465   Zn467   1.951   .     S
O466   Zn468   1.951   .     S
C469   C472    1.413   .     S
C469   O498    1.283   .     A
C469   O495    1.283   .     A
C470   C472    1.398   .     A
C470   F488    1.359   .     S
C471   C477    1.413   .     S
C471   C483    1.398   .     A
C471   C484    1.398   .     A
C472   C482    1.398   .     A
C473   F489    1.355   .     S
C473   N494    1.367   .     A
C474   N493    1.367   .     A
C474   F490    1.355   .     S
C474   C583    1.419   .     S
C475   N494    1.368   .     A
C475   F491    1.355   .     S
C476   N493    1.368   .     A
C476   F492    1.355   .     S
C476   C581    1.419   .     S
C477   O497    1.283   .     A
C477   O496    1.283   .     A
C478   O502    1.278   .     A
C478   C480    1.367   .     S
C478   O499    1.279   .     A
C479   C481    1.367   .     S
C479   O500    1.279   .     A
C479   O501    1.278   .     A
C481   C804    1.166   .     S
C482   F485    1.359   .     S
C483   F486    1.359   .     S
C483   C506    1.373   .     S
C484   F487    1.359   .     S
C484   C518    1.373   .     S
N493   Zn503   2.015   .     S
N494   Zn504   2.015   .     S
O495   Zn503   1.992   .     S
O496   Zn504   1.992   .     S
O497   Zn503   1.993   .     S
O498   Zn504   1.993   .     S
O499   Zn503   1.951   .     S
O500   Zn504   1.951   .     S
O501   Zn503   1.951   .     S
O502   Zn504   1.951   .     S
C505   C508    1.413   .     S
C505   O534    1.283   .     A
C505   O531    1.283   .     A
C506   C508    1.398   .     A
C506   F524    1.359   .     S
C507   C513    1.413   .     S
C507   C519    1.398   .     A
C507   C520    1.398   .     A
C508   C518    1.398   .     A
C509   F525    1.355   .     S
C509   N530    1.367   .     A
C510   N529    1.367   .     A
C510   F526    1.355   .     S
C510   C619    1.419   .     S
C511   N530    1.368   .     A
C511   F527    1.355   .     S
C512   N529    1.368   .     A
C512   F528    1.355   .     S
C512   C617    1.419   .     S
C513   O533    1.283   .     A
C513   O532    1.283   .     A
C514   O538    1.278   .     A
C514   C516    1.367   .     S
C514   O535    1.279   .     A
C515   C517    1.367   .     S
C515   O536    1.279   .     A
C515   O537    1.278   .     A
C517   C840    1.166   .     S
C518   F521    1.359   .     S
C519   F522    1.359   .     S
C519   C434    1.373   1_655 S
C520   F523    1.359   .     S
C520   C446    1.373   1_655 S
N529   Zn539   2.015   .     S
N530   Zn540   2.015   .     S
O531   Zn539   1.992   .     S
O532   Zn540   1.992   .     S
O533   Zn539   1.993   .     S
O534   Zn540   1.993   .     S
O535   Zn539   1.951   .     S
O536   Zn540   1.951   .     S
O537   Zn539   1.951   .     S
O538   Zn540   1.951   .     S
C541   C544    1.413   .     S
C541   O570    1.283   .     A
C541   O567    1.283   .     A
C542   C544    1.398   .     A
C542   F560    1.359   .     S
C542   C627    1.373   1_455 S
C543   C549    1.413   .     S
C543   C555    1.398   .     A
C543   C556    1.398   .     A
C544   C554    1.398   .     A
C545   F561    1.355   .     S
C545   N566    1.367   .     A
C546   N565    1.367   .     A
C546   F562    1.355   .     S
C546   C331    1.419   1_565 S
C547   N566    1.368   .     A
C547   F563    1.355   .     S
C548   N565    1.368   .     A
C548   F564    1.355   .     S
C548   C329    1.419   1_565 S
C549   O569    1.283   .     A
C549   O568    1.283   .     A
C550   O574    1.278   .     A
C550   C552    1.367   .     S
C550   O571    1.279   .     A
C551   C553    1.367   .     S
C551   O572    1.279   .     A
C551   O573    1.278   .     A
C553   C876    1.166   .     S
C554   F557    1.359   .     S
C554   C628    1.373   1_455 S
C555   F558    1.359   .     S
C555   C578    1.373   .     S
C556   F559    1.359   .     S
C556   C590    1.373   .     S
N565   Zn575   2.015   .     S
N566   Zn576   2.015   .     S
O567   Zn575   1.992   .     S
O568   Zn576   1.992   .     S
O569   Zn575   1.993   .     S
O570   Zn576   1.993   .     S
O571   Zn575   1.951   .     S
O572   Zn576   1.951   .     S
O573   Zn575   1.951   .     S
O574   Zn576   1.951   .     S
C577   C580    1.413   .     S
C577   O606    1.283   .     A
C577   O603    1.283   .     A
C578   C580    1.398   .     A
C578   F596    1.359   .     S
C579   C585    1.413   .     S
C579   C591    1.398   .     A
C579   C592    1.398   .     A
C580   C590    1.398   .     A
C581   F597    1.355   .     S
C581   N602    1.367   .     A
C582   N601    1.367   .     A
C582   F598    1.355   .     S
C582   C367    1.419   1_565 S
C583   N602    1.368   .     A
C583   F599    1.355   .     S
C584   N601    1.368   .     A
C584   F600    1.355   .     S
C584   C365    1.419   1_565 S
C585   O605    1.283   .     A
C585   O604    1.283   .     A
C586   O610    1.278   .     A
C586   C588    1.367   .     S
C586   O607    1.279   .     A
C587   C589    1.367   .     S
C587   O608    1.279   .     A
C587   O609    1.278   .     A
C589   C912    1.166   .     S
C590   F593    1.359   .     S
C591   F594    1.359   .     S
C591   C614    1.373   .     S
C592   F595    1.359   .     S
C592   C626    1.373   .     S
N601   Zn611   2.015   .     S
N602   Zn612   2.015   .     S
O603   Zn611   1.992   .     S
O604   Zn612   1.992   .     S
O605   Zn611   1.993   .     S
O606   Zn612   1.993   .     S
O607   Zn611   1.951   .     S
O608   Zn612   1.951   .     S
O609   Zn611   1.951   .     S
O610   Zn612   1.951   .     S
C613   C616    1.413   .     S
C613   O642    1.283   .     A
C613   O639    1.283   .     A
C614   C616    1.398   .     A
C614   F632    1.359   .     S
C615   C621    1.413   .     S
C615   C627    1.398   .     A
C615   C628    1.398   .     A
C616   C626    1.398   .     A
C617   F633    1.355   .     S
C617   N638    1.367   .     A
C618   N637    1.367   .     A
C618   F634    1.355   .     S
C618   C403    1.419   1_565 S
C619   N638    1.368   .     A
C619   F635    1.355   .     S
C620   N637    1.368   .     A
C620   F636    1.355   .     S
C620   C401    1.419   1_565 S
C621   O641    1.283   .     A
C621   O640    1.283   .     A
C622   O646    1.278   .     A
C622   C624    1.367   .     S
C622   O643    1.279   .     A
C623   C625    1.367   .     S
C623   O644    1.279   .     A
C623   O645    1.278   .     A
C625   C948    1.166   .     S
C626   F629    1.359   .     S
C627   F630    1.359   .     S
C627   C542    1.373   1_655 S
C628   F631    1.359   .     S
C628   C554    1.373   1_655 S
N637   Zn647   2.015   .     S
N638   Zn648   2.015   .     S
O639   Zn647   1.992   .     S
O640   Zn648   1.992   .     S
O641   Zn647   1.993   .     S
O642   Zn648   1.993   .     S
O643   Zn647   1.951   .     S
O644   Zn648   1.951   .     S
O645   Zn647   1.951   .     S
O646   Zn648   1.951   .     S
C649   C652    1.413   .     S
C649   O678    1.283   .     A
C649   O675    1.283   .     A
C650   C652    1.398   .     A
C650   F668    1.359   .     S
C650   C735    1.373   1_455 S
C651   C657    1.413   .     S
C651   C663    1.398   .     A
C651   C664    1.398   .     A
C652   C662    1.398   .     A
C653   F669    1.355   .     S
C653   N674    1.367   .     A
C653   C872    1.419   1_545 S
C654   N673    1.367   .     A
C654   F670    1.355   .     S
C654   C763    1.419   .     S
C655   N674    1.368   .     A
C655   F671    1.355   .     S
C655   C870    1.419   1_545 S
C656   N673    1.368   .     A
C656   F672    1.355   .     S
C656   C761    1.419   .     S
C657   O677    1.283   .     A
C657   O676    1.283   .     A
C658   O682    1.278   .     A
C658   C660    1.367   .     S
C658   O679    1.279   .     A
C659   C661    1.367   .     S
C659   O680    1.279   .     A
C659   O681    1.278   .     A
C661   C12     1.166   1_556 S
C662   F665    1.359   .     S
C662   C736    1.373   1_455 S
C663   F666    1.359   .     S
C663   C686    1.373   .     S
C664   F667    1.359   .     S
C664   C698    1.373   .     S
N673   Zn683   2.015   .     S
N674   Zn684   2.015   .     S
O675   Zn683   1.992   .     S
O676   Zn684   1.992   .     S
O677   Zn683   1.993   .     S
O678   Zn684   1.993   .     S
O679   Zn683   1.951   .     S
O680   Zn684   1.951   .     S
O681   Zn683   1.951   .     S
O682   Zn684   1.951   .     S
C685   C688    1.413   .     S
C685   O714    1.283   .     A
C685   O711    1.283   .     A
C686   C688    1.398   .     A
C686   F704    1.359   .     S
C687   C693    1.413   .     S
C687   C699    1.398   .     A
C687   C700    1.398   .     A
C688   C698    1.398   .     A
C689   F705    1.355   .     S
C689   N710    1.367   .     A
C689   C908    1.419   1_545 S
C690   N709    1.367   .     A
C690   F706    1.355   .     S
C690   C799    1.419   .     S
C691   N710    1.368   .     A
C691   F707    1.355   .     S
C691   C906    1.419   1_545 S
C692   N709    1.368   .     A
C692   F708    1.355   .     S
C692   C797    1.419   .     S
C693   O713    1.283   .     A
C693   O712    1.283   .     A
C694   O718    1.278   .     A
C694   C696    1.367   .     S
C694   O715    1.279   .     A
C695   C697    1.367   .     S
C695   O716    1.279   .     A
C695   O717    1.278   .     A
C697   C48     1.166   1_556 S
C698   F701    1.359   .     S
C699   F702    1.359   .     S
C699   C722    1.373   .     S
C700   F703    1.359   .     S
C700   C734    1.373   .     S
N709   Zn719   2.015   .     S
N710   Zn720   2.015   .     S
O711   Zn719   1.992   .     S
O712   Zn720   1.992   .     S
O713   Zn719   1.993   .     S
O714   Zn720   1.993   .     S
O715   Zn719   1.951   .     S
O716   Zn720   1.951   .     S
O717   Zn719   1.951   .     S
O718   Zn720   1.951   .     S
C721   C724    1.413   .     S
C721   O750    1.283   .     A
C721   O747    1.283   .     A
C722   C724    1.398   .     A
C722   F740    1.359   .     S
C723   C729    1.413   .     S
C723   C735    1.398   .     A
C723   C736    1.398   .     A
C724   C734    1.398   .     A
C725   F741    1.355   .     S
C725   N746    1.367   .     A
C725   C944    1.419   1_545 S
C726   N745    1.367   .     A
C726   F742    1.355   .     S
C726   C835    1.419   .     S
C727   N746    1.368   .     A
C727   F743    1.355   .     S
C727   C942    1.419   1_545 S
C728   N745    1.368   .     A
C728   F744    1.355   .     S
C728   C833    1.419   .     S
C729   O749    1.283   .     A
C729   O748    1.283   .     A
C730   O754    1.278   .     A
C730   C732    1.367   .     S
C730   O751    1.279   .     A
C731   C733    1.367   .     S
C731   O752    1.279   .     A
C731   O753    1.278   .     A
C733   C84     1.166   1_556 S
C734   F737    1.359   .     S
C735   F738    1.359   .     S
C735   C650    1.373   1_655 S
C736   F739    1.359   .     S
C736   C662    1.373   1_655 S
N745   Zn755   2.015   .     S
N746   Zn756   2.015   .     S
O747   Zn755   1.992   .     S
O748   Zn756   1.992   .     S
O749   Zn755   1.993   .     S
O750   Zn756   1.993   .     S
O751   Zn755   1.951   .     S
O752   Zn756   1.951   .     S
O753   Zn755   1.951   .     S
O754   Zn756   1.951   .     S
C757   C760    1.413   .     S
C757   O786    1.283   .     A
C757   O783    1.283   .     A
C758   C760    1.398   .     A
C758   F776    1.359   .     S
C758   C843    1.373   1_455 S
C759   C765    1.413   .     S
C759   C771    1.398   .     A
C759   C772    1.398   .     A
C760   C770    1.398   .     A
C761   F777    1.355   .     S
C761   N782    1.367   .     A
C762   N781    1.367   .     A
C762   F778    1.355   .     S
C762   C871    1.419   .     S
C763   N782    1.368   .     A
C763   F779    1.355   .     S
C764   N781    1.368   .     A
C764   F780    1.355   .     S
C764   C869    1.419   .     S
C765   O785    1.283   .     A
C765   O784    1.283   .     A
C766   O790    1.278   .     A
C766   C768    1.367   .     S
C766   O787    1.279   .     A
C767   C769    1.367   .     S
C767   O788    1.279   .     A
C767   O789    1.278   .     A
C769   C120    1.166   1_556 S
C770   F773    1.359   .     S
C770   C844    1.373   1_455 S
C771   F774    1.359   .     S
C771   C794    1.373   .     S
C772   F775    1.359   .     S
C772   C806    1.373   .     S
N781   Zn791   2.015   .     S
N782   Zn792   2.015   .     S
O783   Zn791   1.992   .     S
O784   Zn792   1.992   .     S
O785   Zn791   1.993   .     S
O786   Zn792   1.993   .     S
O787   Zn791   1.951   .     S
O788   Zn792   1.951   .     S
O789   Zn791   1.951   .     S
O790   Zn792   1.951   .     S
C793   C796    1.413   .     S
C793   O822    1.283   .     A
C793   O819    1.283   .     A
C794   C796    1.398   .     A
C794   F812    1.359   .     S
C795   C801    1.413   .     S
C795   C807    1.398   .     A
C795   C808    1.398   .     A
C796   C806    1.398   .     A
C797   F813    1.355   .     S
C797   N818    1.367   .     A
C798   N817    1.367   .     A
C798   F814    1.355   .     S
C798   C907    1.419   .     S
C799   N818    1.368   .     A
C799   F815    1.355   .     S
C800   N817    1.368   .     A
C800   F816    1.355   .     S
C800   C905    1.419   .     S
C801   O821    1.283   .     A
C801   O820    1.283   .     A
C802   O826    1.278   .     A
C802   C804    1.367   .     S
C802   O823    1.279   .     A
C803   C805    1.367   .     S
C803   O824    1.279   .     A
C803   O825    1.278   .     A
C805   C156    1.166   1_556 S
C806   F809    1.359   .     S
C807   F810    1.359   .     S
C807   C830    1.373   .     S
C808   F811    1.359   .     S
C808   C842    1.373   .     S
N817   Zn827   2.015   .     S
N818   Zn828   2.015   .     S
O819   Zn827   1.992   .     S
O820   Zn828   1.992   .     S
O821   Zn827   1.993   .     S
O822   Zn828   1.993   .     S
O823   Zn827   1.951   .     S
O824   Zn828   1.951   .     S
O825   Zn827   1.951   .     S
O826   Zn828   1.951   .     S
C829   C832    1.413   .     S
C829   O858    1.283   .     A
C829   O855    1.283   .     A
C830   C832    1.398   .     A
C830   F848    1.359   .     S
C831   C837    1.413   .     S
C831   C843    1.398   .     A
C831   C844    1.398   .     A
C832   C842    1.398   .     A
C833   F849    1.355   .     S
C833   N854    1.367   .     A
C834   N853    1.367   .     A
C834   F850    1.355   .     S
C834   C943    1.419   .     S
C835   N854    1.368   .     A
C835   F851    1.355   .     S
C836   N853    1.368   .     A
C836   F852    1.355   .     S
C836   C941    1.419   .     S
C837   O857    1.283   .     A
C837   O856    1.283   .     A
C838   O862    1.278   .     A
C838   C840    1.367   .     S
C838   O859    1.279   .     A
C839   C841    1.367   .     S
C839   O860    1.279   .     A
C839   O861    1.278   .     A
C841   C192    1.166   1_556 S
C842   F845    1.359   .     S
C843   F846    1.359   .     S
C843   C758    1.373   1_655 S
C844   F847    1.359   .     S
C844   C770    1.373   1_655 S
N853   Zn863   2.015   .     S
N854   Zn864   2.015   .     S
O855   Zn863   1.992   .     S
O856   Zn864   1.992   .     S
O857   Zn863   1.993   .     S
O858   Zn864   1.993   .     S
O859   Zn863   1.951   .     S
O860   Zn864   1.951   .     S
O861   Zn863   1.951   .     S
O862   Zn864   1.951   .     S
C865   C868    1.413   .     S
C865   O894    1.283   .     A
C865   O891    1.283   .     A
C866   C868    1.398   .     A
C866   F884    1.359   .     S
C866   C951    1.373   1_455 S
C867   C873    1.413   .     S
C867   C879    1.398   .     A
C867   C880    1.398   .     A
C868   C878    1.398   .     A
C869   F885    1.355   .     S
C869   N890    1.367   .     A
C870   N889    1.367   .     A
C870   F886    1.355   .     S
C870   C655    1.419   1_565 S
C871   N890    1.368   .     A
C871   F887    1.355   .     S
C872   N889    1.368   .     A
C872   F888    1.355   .     S
C872   C653    1.419   1_565 S
C873   O893    1.283   .     A
C873   O892    1.283   .     A
C874   O898    1.278   .     A
C874   C876    1.367   .     S
C874   O895    1.279   .     A
C875   C877    1.367   .     S
C875   O896    1.279   .     A
C875   O897    1.278   .     A
C877   C228    1.166   1_556 S
C878   F881    1.359   .     S
C878   C952    1.373   1_455 S
C879   F882    1.359   .     S
C879   C902    1.373   .     S
C880   F883    1.359   .     S
C880   C914    1.373   .     S
N889   Zn899   2.015   .     S
N890   Zn900   2.015   .     S
O891   Zn899   1.992   .     S
O892   Zn900   1.992   .     S
O893   Zn899   1.993   .     S
O894   Zn900   1.993   .     S
O895   Zn899   1.951   .     S
O896   Zn900   1.951   .     S
O897   Zn899   1.951   .     S
O898   Zn900   1.951   .     S
C901   C904    1.413   .     S
C901   O930    1.283   .     A
C901   O927    1.283   .     A
C902   C904    1.398   .     A
C902   F920    1.359   .     S
C903   C909    1.413   .     S
C903   C915    1.398   .     A
C903   C916    1.398   .     A
C904   C914    1.398   .     A
C905   F921    1.355   .     S
C905   N926    1.367   .     A
C906   N925    1.367   .     A
C906   F922    1.355   .     S
C906   C691    1.419   1_565 S
C907   N926    1.368   .     A
C907   F923    1.355   .     S
C908   N925    1.368   .     A
C908   F924    1.355   .     S
C908   C689    1.419   1_565 S
C909   O929    1.283   .     A
C909   O928    1.283   .     A
C910   O934    1.278   .     A
C910   C912    1.367   .     S
C910   O931    1.279   .     A
C911   C913    1.367   .     S
C911   O932    1.279   .     A
C911   O933    1.278   .     A
C913   C264    1.166   1_556 S
C914   F917    1.359   .     S
C915   F918    1.359   .     S
C915   C938    1.373   .     S
C916   F919    1.359   .     S
C916   C950    1.373   .     S
N925   Zn935   2.015   .     S
N926   Zn936   2.015   .     S
O927   Zn935   1.992   .     S
O928   Zn936   1.992   .     S
O929   Zn935   1.993   .     S
O930   Zn936   1.993   .     S
O931   Zn935   1.951   .     S
O932   Zn936   1.951   .     S
O933   Zn935   1.951   .     S
O934   Zn936   1.951   .     S
C937   C940    1.413   .     S
C937   O966    1.283   .     A
C937   O963    1.283   .     A
C938   C940    1.398   .     A
C938   F956    1.359   .     S
C939   C945    1.413   .     S
C939   C951    1.398   .     A
C939   C952    1.398   .     A
C940   C950    1.398   .     A
C941   F957    1.355   .     S
C941   N962    1.367   .     A
C942   N961    1.367   .     A
C942   F958    1.355   .     S
C942   C727    1.419   1_565 S
C943   N962    1.368   .     A
C943   F959    1.355   .     S
C944   N961    1.368   .     A
C944   F960    1.355   .     S
C944   C725    1.419   1_565 S
C945   O965    1.283   .     A
C945   O964    1.283   .     A
C946   O970    1.278   .     A
C946   C948    1.367   .     S
C946   O967    1.279   .     A
C947   C949    1.367   .     S
C947   O968    1.279   .     A
C947   O969    1.278   .     A
C949   C300    1.166   1_556 S
C950   F953    1.359   .     S
C951   F954    1.359   .     S
C951   C866    1.373   1_655 S
C952   F955    1.359   .     S
C952   C878    1.373   1_655 S
N961   Zn971   2.015   .     S
N962   Zn972   2.015   .     S
O963   Zn971   1.992   .     S
O964   Zn972   1.992   .     S
O965   Zn971   1.993   .     S
O966   Zn972   1.993   .     S
O967   Zn971   1.951   .     S
O968   Zn972   1.951   .     S
O969   Zn971   1.951   .     S
O970   Zn972   1.951   .     S
