data_str_m3_o2_o10_pcu_sym.77
_audit_creation_date              2020-01-03
_audit_creation_method            'Materials Studio'
_symmetry_space_group_name_H-M    'P1'
_symmetry_Int_Tables_number       1
_symmetry_cell_setting            triclinic
loop_
_symmetry_equiv_pos_as_xyz
  x,y,z
_cell_length_a                    25.7701
_cell_length_b                    29.9152
_cell_length_c                    28.3397
_cell_angle_alpha                 90.1097
_cell_angle_beta                  98.6007
_cell_angle_gamma                 90.0191
loop_
_atom_site_label
_atom_site_type_symbol
_atom_site_fract_x
_atom_site_fract_y
_atom_site_fract_z
_atom_site_U_iso_or_equiv
_atom_site_adp_type
_atom_site_occupancy
C1     C     0.16734   0.16383   0.25005   0.00000  Uiso   1.00
C2     C     0.13955   0.21628   0.44358   0.00000  Uiso   1.00
C3     C     0.16712   0.24969   0.02661   0.00000  Uiso   1.00
C4     C     0.16664   0.24949   0.47326   0.00000  Uiso   1.00
C5     C     0.06701   0.24990   0.23755   0.00000  Uiso   1.00
C6     C     0.26633   0.24995   0.26246   0.00000  Uiso   1.00
C7     C     0.01203   0.24968   0.23083   0.00000  Uiso   1.00
C8     C     0.32135   0.24990   0.26921   0.00000  Uiso   1.00
C9     C     0.15963   0.04566   0.28775   0.00000  Uiso   1.00
C10    C     0.16164   0.45440   0.21026   0.00000  Uiso   1.00
C11    C     0.15427   0.09154   0.28689   0.00000  Uiso   1.00
C12    C     0.16742   0.33619   0.25016   0.00000  Uiso   1.00
C13    C     0.15628   0.40851   0.20948   0.00000  Uiso   1.00
C14    C     0.17242   0.11599   0.25074   0.00000  Uiso   1.00
C15    C     0.17259   0.38407   0.25098   0.00000  Uiso   1.00
C16    C     0.19730   0.09481   0.21619   0.00000  Uiso   1.00
C17    C     0.19562   0.40535   0.29296   0.00000  Uiso   1.00
C18    C     0.20453   0.04890   0.21779   0.00000  Uiso   1.00
C19    C     0.20277   0.45126   0.29361   0.00000  Uiso   1.00
C20    C     0.18436   0.02422   0.25322   0.00000  Uiso   1.00
C21    C     0.18447   0.47590   0.25217   0.00000  Uiso   1.00
C22    C     0.28138   0.02270   0.19888   0.00000  Uiso   1.00
C23    C     0.12014   0.24554   0.04596   0.00000  Uiso   1.00
C24    C     0.27775   0.47863   0.33593   0.00000  Uiso   1.00
C25    C     0.29037   0.21775   0.05071   0.00000  Uiso   1.00
C26    C     0.14344   0.14456   0.46910   0.00000  Uiso   1.00
C27    C     0.19386   0.28246   0.45134   0.00000  Uiso   1.00
C28    C     0.12077   0.24546   0.09567   0.00000  Uiso   1.00
C29    C     0.19359   0.28200   0.40169   0.00000  Uiso   1.00
C30    C     0.21280   0.25450   0.10853   0.00000  Uiso   1.00
C31    C     0.13957   0.21779   0.39375   0.00000  Uiso   1.00
C32    C     0.21437   0.25344   0.05886   0.00000  Uiso   1.00
H33    H     0.32483   0.24936   0.19442   0.00000  Uiso   1.00
H34    H     0.21487   0.30879   0.47244   0.00000  Uiso   1.00
H35    H     0.08420   0.24202   0.10967   0.00000  Uiso   1.00
H36    H     0.21483   0.30748   0.38539   0.00000  Uiso   1.00
H37    H     0.28777   0.49684   0.22722   0.00000  Uiso   1.00
H38    H     0.30061   0.05474   0.21177   0.00000  Uiso   1.00
H39    H     0.30071   0.01077   0.16876   0.00000  Uiso   1.00
H40    H     0.28457   0.00515   0.31018   0.00000  Uiso   1.00
H41    H     0.29813   0.44715   0.32834   0.00000  Uiso   1.00
H42    H     0.29551   0.49024   0.37194   0.00000  Uiso   1.00
H43    H     0.24888   0.25888   0.13281   0.00000  Uiso   1.00
H44    H     0.00861   0.25014   0.30564   0.00000  Uiso   1.00
H45    H     0.11810   0.19282   0.37102   0.00000  Uiso   1.00
H46    H     0.26709   0.18816   0.03600   0.00000  Uiso   1.00
H47    H     0.30431   0.21333   0.08949   0.00000  Uiso   1.00
H48    H     0.32550   0.21958   0.03250   0.00000  Uiso   1.00
H49    H     0.18056   0.15114   0.49372   0.00000  Uiso   1.00
H50    H     0.15211   0.13136   0.43437   0.00000  Uiso   1.00
H51    H     0.12175   0.11823   0.48558   0.00000  Uiso   1.00
H52    H     0.14316   0.02676   0.31453   0.00000  Uiso   1.00
H53    H     0.14656   0.47326   0.17857   0.00000  Uiso   1.00
H54    H     0.13488   0.10779   0.31368   0.00000  Uiso   1.00
H55    H     0.13827   0.39226   0.17690   0.00000  Uiso   1.00
H56    H     0.21187   0.11383   0.18841   0.00000  Uiso   1.00
H57    H     0.20873   0.38640   0.32509   0.00000  Uiso   1.00
H58    H     0.08295   0.24283   0.02268   0.00000  Uiso   1.00
N59    N     0.16667   0.24999   0.12623   0.00000  Uiso   1.00
N60    N     0.16667   0.25001   0.37376   0.00000  Uiso   1.00
O61    O     0.16667   0.18453   0.28974   0.00000  Uiso   1.00
O62    O     0.22362   0.47191   0.33591   0.00000  Uiso   1.00
O63    O     0.26170   0.25777   0.04184   0.00000  Uiso   1.00
O64    O     0.11178   0.18312   0.46271   0.00000  Uiso   1.00
O65    O     0.16666   0.31546   0.21026   0.00000  Uiso   1.00
O66    O     0.16667   0.18453   0.21026   0.00000  Uiso   1.00
O67    O     0.16666   0.31547   0.28974   0.00000  Uiso   1.00
O68    O     0.09058   0.25000   0.28044   0.00000  Uiso   1.00
O69    O     0.24275   0.25000   0.21955   0.00000  Uiso   1.00
O70    O     0.09058   0.24999   0.20096   0.00000  Uiso   1.00
O71    O     0.24275   0.25000   0.29903   0.00000  Uiso   1.00
O72    O     0.22743   0.02828   0.18237   0.00000  Uiso   1.00
Zn73   Zn    0.16667   0.25000   0.30307   0.00000  Uiso   1.00
Zn74   Zn    0.16667   0.24999   0.19693   0.00000  Uiso   1.00
C75    C     0.50067   0.16383   0.25005   0.00000  Uiso   1.00
C76    C     0.47289   0.21628   0.44358   0.00000  Uiso   1.00
C77    C     0.50045   0.24969   0.02661   0.00000  Uiso   1.00
C78    C     0.49997   0.24949   0.47326   0.00000  Uiso   1.00
C79    C     0.40035   0.24990   0.23755   0.00000  Uiso   1.00
C80    C     0.59967   0.24995   0.26246   0.00000  Uiso   1.00
C81    C     0.34536   0.24968   0.23083   0.00000  Uiso   1.00
C82    C     0.65468   0.24990   0.26921   0.00000  Uiso   1.00
C83    C     0.49297   0.04566   0.28775   0.00000  Uiso   1.00
C84    C     0.49498   0.45440   0.21026   0.00000  Uiso   1.00
C85    C     0.48760   0.09154   0.28689   0.00000  Uiso   1.00
C86    C     0.50075   0.33619   0.25016   0.00000  Uiso   1.00
C87    C     0.48961   0.40851   0.20948   0.00000  Uiso   1.00
C88    C     0.50575   0.11599   0.25074   0.00000  Uiso   1.00
C89    C     0.50592   0.38407   0.25098   0.00000  Uiso   1.00
C90    C     0.53064   0.09481   0.21619   0.00000  Uiso   1.00
C91    C     0.52895   0.40535   0.29296   0.00000  Uiso   1.00
C92    C     0.53786   0.04890   0.21779   0.00000  Uiso   1.00
C93    C     0.53611   0.45126   0.29361   0.00000  Uiso   1.00
C94    C     0.51769   0.02422   0.25322   0.00000  Uiso   1.00
C95    C     0.51781   0.47590   0.25217   0.00000  Uiso   1.00
C96    C     0.61472   0.02270   0.19888   0.00000  Uiso   1.00
C97    C     0.45347   0.24554   0.04596   0.00000  Uiso   1.00
C98    C     0.61108   0.47863   0.33593   0.00000  Uiso   1.00
C99    C     0.62370   0.21775   0.05071   0.00000  Uiso   1.00
C100   C     0.47678   0.14456   0.46910   0.00000  Uiso   1.00
C101   C     0.52720   0.28246   0.45134   0.00000  Uiso   1.00
C102   C     0.45410   0.24546   0.09567   0.00000  Uiso   1.00
C103   C     0.52692   0.28200   0.40169   0.00000  Uiso   1.00
C104   C     0.54613   0.25450   0.10853   0.00000  Uiso   1.00
C105   C     0.47290   0.21779   0.39375   0.00000  Uiso   1.00
C106   C     0.54770   0.25344   0.05886   0.00000  Uiso   1.00
H107   H     0.65817   0.24936   0.19442   0.00000  Uiso   1.00
H108   H     0.54821   0.30879   0.47244   0.00000  Uiso   1.00
H109   H     0.41753   0.24202   0.10967   0.00000  Uiso   1.00
H110   H     0.54816   0.30748   0.38539   0.00000  Uiso   1.00
H111   H     0.62111   0.49684   0.22722   0.00000  Uiso   1.00
H112   H     0.63394   0.05474   0.21177   0.00000  Uiso   1.00
H113   H     0.63404   0.01077   0.16876   0.00000  Uiso   1.00
H114   H     0.61790   0.00515   0.31018   0.00000  Uiso   1.00
H115   H     0.63146   0.44715   0.32834   0.00000  Uiso   1.00
H116   H     0.62884   0.49024   0.37194   0.00000  Uiso   1.00
H117   H     0.58221   0.25888   0.13281   0.00000  Uiso   1.00
H118   H     0.34194   0.25014   0.30564   0.00000  Uiso   1.00
H119   H     0.45143   0.19282   0.37102   0.00000  Uiso   1.00
H120   H     0.60043   0.18816   0.03600   0.00000  Uiso   1.00
H121   H     0.63765   0.21333   0.08949   0.00000  Uiso   1.00
H122   H     0.65883   0.21958   0.03250   0.00000  Uiso   1.00
H123   H     0.51389   0.15114   0.49372   0.00000  Uiso   1.00
H124   H     0.48544   0.13136   0.43437   0.00000  Uiso   1.00
H125   H     0.45509   0.11823   0.48558   0.00000  Uiso   1.00
H126   H     0.47649   0.02676   0.31453   0.00000  Uiso   1.00
H127   H     0.47989   0.47326   0.17857   0.00000  Uiso   1.00
H128   H     0.46821   0.10779   0.31368   0.00000  Uiso   1.00
H129   H     0.47161   0.39226   0.17690   0.00000  Uiso   1.00
H130   H     0.54520   0.11383   0.18841   0.00000  Uiso   1.00
H131   H     0.54207   0.38640   0.32509   0.00000  Uiso   1.00
H132   H     0.41628   0.24283   0.02268   0.00000  Uiso   1.00
N133   N     0.50000   0.24999   0.12623   0.00000  Uiso   1.00
N134   N     0.50000   0.25001   0.37376   0.00000  Uiso   1.00
O135   O     0.50000   0.18453   0.28974   0.00000  Uiso   1.00
O136   O     0.55696   0.47191   0.33591   0.00000  Uiso   1.00
O137   O     0.59503   0.25777   0.04184   0.00000  Uiso   1.00
O138   O     0.44512   0.18312   0.46271   0.00000  Uiso   1.00
O139   O     0.50000   0.31546   0.21026   0.00000  Uiso   1.00
O140   O     0.50000   0.18453   0.21026   0.00000  Uiso   1.00
O141   O     0.50000   0.31547   0.28974   0.00000  Uiso   1.00
O142   O     0.42392   0.25000   0.28044   0.00000  Uiso   1.00
O143   O     0.57608   0.25000   0.21955   0.00000  Uiso   1.00
O144   O     0.42392   0.24999   0.20096   0.00000  Uiso   1.00
O145   O     0.57608   0.25000   0.29903   0.00000  Uiso   1.00
O146   O     0.56076   0.02828   0.18237   0.00000  Uiso   1.00
Zn147  Zn    0.50000   0.25000   0.30307   0.00000  Uiso   1.00
Zn148  Zn    0.50000   0.24999   0.19693   0.00000  Uiso   1.00
C149   C     0.83401   0.16383   0.25005   0.00000  Uiso   1.00
C150   C     0.80622   0.21628   0.44358   0.00000  Uiso   1.00
C151   C     0.83379   0.24969   0.02661   0.00000  Uiso   1.00
C152   C     0.83331   0.24949   0.47326   0.00000  Uiso   1.00
C153   C     0.73368   0.24990   0.23755   0.00000  Uiso   1.00
C154   C     0.93300   0.24995   0.26246   0.00000  Uiso   1.00
C155   C     0.67869   0.24968   0.23083   0.00000  Uiso   1.00
C156   C     0.98801   0.24990   0.26921   0.00000  Uiso   1.00
C157   C     0.82630   0.04566   0.28775   0.00000  Uiso   1.00
C158   C     0.82831   0.45440   0.21026   0.00000  Uiso   1.00
C159   C     0.82094   0.09154   0.28689   0.00000  Uiso   1.00
C160   C     0.83408   0.33619   0.25016   0.00000  Uiso   1.00
C161   C     0.82294   0.40851   0.20948   0.00000  Uiso   1.00
C162   C     0.83908   0.11599   0.25074   0.00000  Uiso   1.00
C163   C     0.83925   0.38407   0.25098   0.00000  Uiso   1.00
C164   C     0.86397   0.09481   0.21619   0.00000  Uiso   1.00
C165   C     0.86228   0.40535   0.29296   0.00000  Uiso   1.00
C166   C     0.87120   0.04890   0.21779   0.00000  Uiso   1.00
C167   C     0.86944   0.45126   0.29361   0.00000  Uiso   1.00
C168   C     0.85103   0.02422   0.25322   0.00000  Uiso   1.00
C169   C     0.85114   0.47590   0.25217   0.00000  Uiso   1.00
C170   C     0.94805   0.02270   0.19888   0.00000  Uiso   1.00
C171   C     0.78681   0.24554   0.04596   0.00000  Uiso   1.00
C172   C     0.94441   0.47863   0.33593   0.00000  Uiso   1.00
C173   C     0.95704   0.21775   0.05071   0.00000  Uiso   1.00
C174   C     0.81011   0.14456   0.46910   0.00000  Uiso   1.00
C175   C     0.86053   0.28246   0.45134   0.00000  Uiso   1.00
C176   C     0.78743   0.24546   0.09567   0.00000  Uiso   1.00
C177   C     0.86026   0.28200   0.40169   0.00000  Uiso   1.00
C178   C     0.87946   0.25450   0.10853   0.00000  Uiso   1.00
C179   C     0.80624   0.21779   0.39375   0.00000  Uiso   1.00
C180   C     0.88104   0.25344   0.05886   0.00000  Uiso   1.00
H181   H     0.99150   0.24936   0.19442   0.00000  Uiso   1.00
H182   H     0.88154   0.30879   0.47244   0.00000  Uiso   1.00
H183   H     0.75086   0.24202   0.10967   0.00000  Uiso   1.00
H184   H     0.88149   0.30748   0.38539   0.00000  Uiso   1.00
H185   H     0.95444   0.49684   0.22722   0.00000  Uiso   1.00
H186   H     0.96728   0.05474   0.21177   0.00000  Uiso   1.00
H187   H     0.96738   0.01077   0.16876   0.00000  Uiso   1.00
H188   H     0.95124   0.00515   0.31018   0.00000  Uiso   1.00
H189   H     0.96479   0.44715   0.32834   0.00000  Uiso   1.00
H190   H     0.96217   0.49024   0.37194   0.00000  Uiso   1.00
H191   H     0.91554   0.25888   0.13281   0.00000  Uiso   1.00
H192   H     0.67528   0.25014   0.30564   0.00000  Uiso   1.00
H193   H     0.78476   0.19282   0.37102   0.00000  Uiso   1.00
H194   H     0.93376   0.18816   0.03600   0.00000  Uiso   1.00
H195   H     0.97098   0.21333   0.08949   0.00000  Uiso   1.00
H196   H     0.99217   0.21958   0.03250   0.00000  Uiso   1.00
H197   H     0.84723   0.15114   0.49372   0.00000  Uiso   1.00
H198   H     0.81878   0.13136   0.43437   0.00000  Uiso   1.00
H199   H     0.78842   0.11823   0.48558   0.00000  Uiso   1.00
H200   H     0.80983   0.02676   0.31453   0.00000  Uiso   1.00
H201   H     0.81323   0.47326   0.17857   0.00000  Uiso   1.00
H202   H     0.80154   0.10779   0.31368   0.00000  Uiso   1.00
H203   H     0.80494   0.39226   0.17690   0.00000  Uiso   1.00
H204   H     0.87854   0.11383   0.18841   0.00000  Uiso   1.00
H205   H     0.87540   0.38640   0.32509   0.00000  Uiso   1.00
H206   H     0.74962   0.24283   0.02268   0.00000  Uiso   1.00
N207   N     0.83333   0.24999   0.12623   0.00000  Uiso   1.00
N208   N     0.83333   0.25001   0.37376   0.00000  Uiso   1.00
O209   O     0.83334   0.18453   0.28974   0.00000  Uiso   1.00
O210   O     0.89029   0.47191   0.33591   0.00000  Uiso   1.00
O211   O     0.92836   0.25777   0.04184   0.00000  Uiso   1.00
O212   O     0.77845   0.18312   0.46271   0.00000  Uiso   1.00
O213   O     0.83333   0.31546   0.21026   0.00000  Uiso   1.00
O214   O     0.83334   0.18453   0.21026   0.00000  Uiso   1.00
O215   O     0.83333   0.31547   0.28974   0.00000  Uiso   1.00
O216   O     0.75725   0.25000   0.28044   0.00000  Uiso   1.00
O217   O     0.90942   0.25000   0.21955   0.00000  Uiso   1.00
O218   O     0.75725   0.24999   0.20096   0.00000  Uiso   1.00
O219   O     0.90942   0.25000   0.29903   0.00000  Uiso   1.00
O220   O     0.89410   0.02828   0.18237   0.00000  Uiso   1.00
Zn221  Zn    0.83333   0.25000   0.30307   0.00000  Uiso   1.00
Zn222  Zn    0.83333   0.24999   0.19693   0.00000  Uiso   1.00
C223   C     0.16734   0.66383   0.25005   0.00000  Uiso   1.00
C224   C     0.13955   0.71628   0.44358   0.00000  Uiso   1.00
C225   C     0.16712   0.74969   0.02661   0.00000  Uiso   1.00
C226   C     0.16664   0.74949   0.47326   0.00000  Uiso   1.00
C227   C     0.06701   0.74990   0.23755   0.00000  Uiso   1.00
C228   C     0.26633   0.74995   0.26246   0.00000  Uiso   1.00
C229   C     0.01203   0.74968   0.23083   0.00000  Uiso   1.00
C230   C     0.32135   0.74990   0.26921   0.00000  Uiso   1.00
C231   C     0.15963   0.54566   0.28775   0.00000  Uiso   1.00
C232   C     0.16164   0.95440   0.21026   0.00000  Uiso   1.00
C233   C     0.15427   0.59154   0.28689   0.00000  Uiso   1.00
C234   C     0.16742   0.83619   0.25016   0.00000  Uiso   1.00
C235   C     0.15628   0.90851   0.20948   0.00000  Uiso   1.00
C236   C     0.17242   0.61599   0.25074   0.00000  Uiso   1.00
C237   C     0.17259   0.88407   0.25098   0.00000  Uiso   1.00
C238   C     0.19730   0.59481   0.21619   0.00000  Uiso   1.00
C239   C     0.19562   0.90535   0.29296   0.00000  Uiso   1.00
C240   C     0.20453   0.54890   0.21779   0.00000  Uiso   1.00
C241   C     0.20277   0.95126   0.29361   0.00000  Uiso   1.00
C242   C     0.18436   0.52422   0.25322   0.00000  Uiso   1.00
C243   C     0.18447   0.97590   0.25217   0.00000  Uiso   1.00
C244   C     0.28138   0.52270   0.19888   0.00000  Uiso   1.00
C245   C     0.12014   0.74554   0.04596   0.00000  Uiso   1.00
C246   C     0.27775   0.97863   0.33593   0.00000  Uiso   1.00
C247   C     0.29037   0.71775   0.05071   0.00000  Uiso   1.00
C248   C     0.14344   0.64456   0.46910   0.00000  Uiso   1.00
C249   C     0.19386   0.78246   0.45134   0.00000  Uiso   1.00
C250   C     0.12077   0.74546   0.09567   0.00000  Uiso   1.00
C251   C     0.19359   0.78200   0.40169   0.00000  Uiso   1.00
C252   C     0.21280   0.75450   0.10853   0.00000  Uiso   1.00
C253   C     0.13957   0.71779   0.39375   0.00000  Uiso   1.00
C254   C     0.21437   0.75344   0.05886   0.00000  Uiso   1.00
H255   H     0.32483   0.74936   0.19442   0.00000  Uiso   1.00
H256   H     0.21487   0.80879   0.47244   0.00000  Uiso   1.00
H257   H     0.08420   0.74202   0.10967   0.00000  Uiso   1.00
H258   H     0.21483   0.80748   0.38539   0.00000  Uiso   1.00
H259   H     0.28777   0.99684   0.22722   0.00000  Uiso   1.00
H260   H     0.30061   0.55474   0.21177   0.00000  Uiso   1.00
H261   H     0.30071   0.51077   0.16876   0.00000  Uiso   1.00
H262   H     0.28457   0.50515   0.31018   0.00000  Uiso   1.00
H263   H     0.29813   0.94715   0.32834   0.00000  Uiso   1.00
H264   H     0.29551   0.99024   0.37194   0.00000  Uiso   1.00
H265   H     0.24888   0.75888   0.13281   0.00000  Uiso   1.00
H266   H     0.00861   0.75014   0.30564   0.00000  Uiso   1.00
H267   H     0.11810   0.69282   0.37102   0.00000  Uiso   1.00
H268   H     0.26709   0.68816   0.03600   0.00000  Uiso   1.00
H269   H     0.30431   0.71333   0.08949   0.00000  Uiso   1.00
H270   H     0.32550   0.71958   0.03250   0.00000  Uiso   1.00
H271   H     0.18056   0.65114   0.49372   0.00000  Uiso   1.00
H272   H     0.15211   0.63136   0.43437   0.00000  Uiso   1.00
H273   H     0.12175   0.61823   0.48558   0.00000  Uiso   1.00
H274   H     0.14316   0.52676   0.31453   0.00000  Uiso   1.00
H275   H     0.14656   0.97326   0.17857   0.00000  Uiso   1.00
H276   H     0.13488   0.60779   0.31368   0.00000  Uiso   1.00
H277   H     0.13827   0.89226   0.17690   0.00000  Uiso   1.00
H278   H     0.21187   0.61383   0.18841   0.00000  Uiso   1.00
H279   H     0.20873   0.88640   0.32509   0.00000  Uiso   1.00
H280   H     0.08295   0.74283   0.02268   0.00000  Uiso   1.00
N281   N     0.16667   0.74999   0.12623   0.00000  Uiso   1.00
N282   N     0.16667   0.75001   0.37376   0.00000  Uiso   1.00
O283   O     0.16667   0.68453   0.28974   0.00000  Uiso   1.00
O284   O     0.22362   0.97191   0.33591   0.00000  Uiso   1.00
O285   O     0.26170   0.75777   0.04184   0.00000  Uiso   1.00
O286   O     0.11178   0.68312   0.46271   0.00000  Uiso   1.00
O287   O     0.16666   0.81546   0.21026   0.00000  Uiso   1.00
O288   O     0.16667   0.68453   0.21026   0.00000  Uiso   1.00
O289   O     0.16666   0.81547   0.28974   0.00000  Uiso   1.00
O290   O     0.09058   0.75000   0.28044   0.00000  Uiso   1.00
O291   O     0.24275   0.75000   0.21955   0.00000  Uiso   1.00
O292   O     0.09058   0.74999   0.20096   0.00000  Uiso   1.00
O293   O     0.24275   0.75000   0.29903   0.00000  Uiso   1.00
O294   O     0.22743   0.52828   0.18237   0.00000  Uiso   1.00
Zn295  Zn    0.16667   0.75000   0.30307   0.00000  Uiso   1.00
Zn296  Zn    0.16667   0.74999   0.19693   0.00000  Uiso   1.00
C297   C     0.50067   0.66383   0.25005   0.00000  Uiso   1.00
C298   C     0.47289   0.71628   0.44358   0.00000  Uiso   1.00
C299   C     0.50045   0.74969   0.02661   0.00000  Uiso   1.00
C300   C     0.49997   0.74949   0.47326   0.00000  Uiso   1.00
C301   C     0.40035   0.74990   0.23755   0.00000  Uiso   1.00
C302   C     0.59967   0.74995   0.26246   0.00000  Uiso   1.00
C303   C     0.34536   0.74968   0.23083   0.00000  Uiso   1.00
C304   C     0.65468   0.74990   0.26921   0.00000  Uiso   1.00
C305   C     0.49297   0.54566   0.28775   0.00000  Uiso   1.00
C306   C     0.49498   0.95440   0.21026   0.00000  Uiso   1.00
C307   C     0.48760   0.59154   0.28689   0.00000  Uiso   1.00
C308   C     0.50075   0.83619   0.25016   0.00000  Uiso   1.00
C309   C     0.48961   0.90851   0.20948   0.00000  Uiso   1.00
C310   C     0.50575   0.61599   0.25074   0.00000  Uiso   1.00
C311   C     0.50592   0.88407   0.25098   0.00000  Uiso   1.00
C312   C     0.53064   0.59481   0.21619   0.00000  Uiso   1.00
C313   C     0.52895   0.90535   0.29296   0.00000  Uiso   1.00
C314   C     0.53786   0.54890   0.21779   0.00000  Uiso   1.00
C315   C     0.53611   0.95126   0.29361   0.00000  Uiso   1.00
C316   C     0.51769   0.52422   0.25322   0.00000  Uiso   1.00
C317   C     0.51781   0.97590   0.25217   0.00000  Uiso   1.00
C318   C     0.61472   0.52270   0.19888   0.00000  Uiso   1.00
C319   C     0.45347   0.74554   0.04596   0.00000  Uiso   1.00
C320   C     0.61108   0.97863   0.33593   0.00000  Uiso   1.00
C321   C     0.62370   0.71775   0.05071   0.00000  Uiso   1.00
C322   C     0.47678   0.64456   0.46910   0.00000  Uiso   1.00
C323   C     0.52720   0.78246   0.45134   0.00000  Uiso   1.00
C324   C     0.45410   0.74546   0.09567   0.00000  Uiso   1.00
C325   C     0.52692   0.78200   0.40169   0.00000  Uiso   1.00
C326   C     0.54613   0.75450   0.10853   0.00000  Uiso   1.00
C327   C     0.47290   0.71779   0.39375   0.00000  Uiso   1.00
C328   C     0.54770   0.75344   0.05886   0.00000  Uiso   1.00
H329   H     0.65817   0.74936   0.19442   0.00000  Uiso   1.00
H330   H     0.54821   0.80879   0.47244   0.00000  Uiso   1.00
H331   H     0.41753   0.74202   0.10967   0.00000  Uiso   1.00
H332   H     0.54816   0.80748   0.38539   0.00000  Uiso   1.00
H333   H     0.62111   0.99684   0.22722   0.00000  Uiso   1.00
H334   H     0.63394   0.55474   0.21177   0.00000  Uiso   1.00
H335   H     0.63404   0.51077   0.16876   0.00000  Uiso   1.00
H336   H     0.61790   0.50515   0.31018   0.00000  Uiso   1.00
H337   H     0.63146   0.94715   0.32834   0.00000  Uiso   1.00
H338   H     0.62884   0.99024   0.37194   0.00000  Uiso   1.00
H339   H     0.58221   0.75888   0.13281   0.00000  Uiso   1.00
H340   H     0.34194   0.75014   0.30564   0.00000  Uiso   1.00
H341   H     0.45143   0.69282   0.37102   0.00000  Uiso   1.00
H342   H     0.60043   0.68816   0.03600   0.00000  Uiso   1.00
H343   H     0.63765   0.71333   0.08949   0.00000  Uiso   1.00
H344   H     0.65883   0.71958   0.03250   0.00000  Uiso   1.00
H345   H     0.51389   0.65114   0.49372   0.00000  Uiso   1.00
H346   H     0.48544   0.63136   0.43437   0.00000  Uiso   1.00
H347   H     0.45509   0.61823   0.48558   0.00000  Uiso   1.00
H348   H     0.47649   0.52676   0.31453   0.00000  Uiso   1.00
H349   H     0.47989   0.97326   0.17857   0.00000  Uiso   1.00
H350   H     0.46821   0.60779   0.31368   0.00000  Uiso   1.00
H351   H     0.47161   0.89226   0.17690   0.00000  Uiso   1.00
H352   H     0.54520   0.61383   0.18841   0.00000  Uiso   1.00
H353   H     0.54207   0.88640   0.32509   0.00000  Uiso   1.00
H354   H     0.41628   0.74283   0.02268   0.00000  Uiso   1.00
N355   N     0.50000   0.74999   0.12623   0.00000  Uiso   1.00
N356   N     0.50000   0.75001   0.37376   0.00000  Uiso   1.00
O357   O     0.50000   0.68453   0.28974   0.00000  Uiso   1.00
O358   O     0.55696   0.97191   0.33591   0.00000  Uiso   1.00
O359   O     0.59503   0.75777   0.04184   0.00000  Uiso   1.00
O360   O     0.44512   0.68312   0.46271   0.00000  Uiso   1.00
O361   O     0.50000   0.81546   0.21026   0.00000  Uiso   1.00
O362   O     0.50000   0.68453   0.21026   0.00000  Uiso   1.00
O363   O     0.50000   0.81547   0.28974   0.00000  Uiso   1.00
O364   O     0.42392   0.75000   0.28044   0.00000  Uiso   1.00
O365   O     0.57608   0.75000   0.21955   0.00000  Uiso   1.00
O366   O     0.42392   0.74999   0.20096   0.00000  Uiso   1.00
O367   O     0.57608   0.75000   0.29903   0.00000  Uiso   1.00
O368   O     0.56076   0.52828   0.18237   0.00000  Uiso   1.00
Zn369  Zn    0.50000   0.75000   0.30307   0.00000  Uiso   1.00
Zn370  Zn    0.50000   0.74999   0.19693   0.00000  Uiso   1.00
C371   C     0.83401   0.66383   0.25005   0.00000  Uiso   1.00
C372   C     0.80622   0.71628   0.44358   0.00000  Uiso   1.00
C373   C     0.83379   0.74969   0.02661   0.00000  Uiso   1.00
C374   C     0.83331   0.74949   0.47326   0.00000  Uiso   1.00
C375   C     0.73368   0.74990   0.23755   0.00000  Uiso   1.00
C376   C     0.93300   0.74995   0.26246   0.00000  Uiso   1.00
C377   C     0.67869   0.74968   0.23083   0.00000  Uiso   1.00
C378   C     0.98801   0.74990   0.26921   0.00000  Uiso   1.00
C379   C     0.82630   0.54566   0.28775   0.00000  Uiso   1.00
C380   C     0.82831   0.95440   0.21026   0.00000  Uiso   1.00
C381   C     0.82094   0.59154   0.28689   0.00000  Uiso   1.00
C382   C     0.83408   0.83619   0.25016   0.00000  Uiso   1.00
C383   C     0.82294   0.90851   0.20948   0.00000  Uiso   1.00
C384   C     0.83908   0.61599   0.25074   0.00000  Uiso   1.00
C385   C     0.83925   0.88407   0.25098   0.00000  Uiso   1.00
C386   C     0.86397   0.59481   0.21619   0.00000  Uiso   1.00
C387   C     0.86228   0.90535   0.29296   0.00000  Uiso   1.00
C388   C     0.87120   0.54890   0.21779   0.00000  Uiso   1.00
C389   C     0.86944   0.95126   0.29361   0.00000  Uiso   1.00
C390   C     0.85103   0.52422   0.25322   0.00000  Uiso   1.00
C391   C     0.85114   0.97590   0.25217   0.00000  Uiso   1.00
C392   C     0.94805   0.52270   0.19888   0.00000  Uiso   1.00
C393   C     0.78681   0.74554   0.04596   0.00000  Uiso   1.00
C394   C     0.94441   0.97863   0.33593   0.00000  Uiso   1.00
C395   C     0.95704   0.71775   0.05071   0.00000  Uiso   1.00
C396   C     0.81011   0.64456   0.46910   0.00000  Uiso   1.00
C397   C     0.86053   0.78246   0.45134   0.00000  Uiso   1.00
C398   C     0.78743   0.74546   0.09567   0.00000  Uiso   1.00
C399   C     0.86026   0.78200   0.40169   0.00000  Uiso   1.00
C400   C     0.87946   0.75450   0.10853   0.00000  Uiso   1.00
C401   C     0.80624   0.71779   0.39375   0.00000  Uiso   1.00
C402   C     0.88104   0.75344   0.05886   0.00000  Uiso   1.00
H403   H     0.99150   0.74936   0.19442   0.00000  Uiso   1.00
H404   H     0.88154   0.80879   0.47244   0.00000  Uiso   1.00
H405   H     0.75086   0.74202   0.10967   0.00000  Uiso   1.00
H406   H     0.88149   0.80748   0.38539   0.00000  Uiso   1.00
H407   H     0.95444   0.99684   0.22722   0.00000  Uiso   1.00
H408   H     0.96728   0.55474   0.21177   0.00000  Uiso   1.00
H409   H     0.96738   0.51077   0.16876   0.00000  Uiso   1.00
H410   H     0.95124   0.50515   0.31018   0.00000  Uiso   1.00
H411   H     0.96479   0.94715   0.32834   0.00000  Uiso   1.00
H412   H     0.96217   0.99024   0.37194   0.00000  Uiso   1.00
H413   H     0.91554   0.75888   0.13281   0.00000  Uiso   1.00
H414   H     0.67528   0.75014   0.30564   0.00000  Uiso   1.00
H415   H     0.78476   0.69282   0.37102   0.00000  Uiso   1.00
H416   H     0.93376   0.68816   0.03600   0.00000  Uiso   1.00
H417   H     0.97098   0.71333   0.08949   0.00000  Uiso   1.00
H418   H     0.99217   0.71958   0.03250   0.00000  Uiso   1.00
H419   H     0.84723   0.65114   0.49372   0.00000  Uiso   1.00
H420   H     0.81878   0.63136   0.43437   0.00000  Uiso   1.00
H421   H     0.78842   0.61823   0.48558   0.00000  Uiso   1.00
H422   H     0.80983   0.52676   0.31453   0.00000  Uiso   1.00
H423   H     0.81323   0.97326   0.17857   0.00000  Uiso   1.00
H424   H     0.80154   0.60779   0.31368   0.00000  Uiso   1.00
H425   H     0.80494   0.89226   0.17690   0.00000  Uiso   1.00
H426   H     0.87854   0.61383   0.18841   0.00000  Uiso   1.00
H427   H     0.87540   0.88640   0.32509   0.00000  Uiso   1.00
H428   H     0.74962   0.74283   0.02268   0.00000  Uiso   1.00
N429   N     0.83333   0.74999   0.12623   0.00000  Uiso   1.00
N430   N     0.83333   0.75001   0.37376   0.00000  Uiso   1.00
O431   O     0.83334   0.68453   0.28974   0.00000  Uiso   1.00
O432   O     0.89029   0.97191   0.33591   0.00000  Uiso   1.00
O433   O     0.92836   0.75777   0.04184   0.00000  Uiso   1.00
O434   O     0.77845   0.68312   0.46271   0.00000  Uiso   1.00
O435   O     0.83333   0.81546   0.21026   0.00000  Uiso   1.00
O436   O     0.83334   0.68453   0.21026   0.00000  Uiso   1.00
O437   O     0.83333   0.81547   0.28974   0.00000  Uiso   1.00
O438   O     0.75725   0.75000   0.28044   0.00000  Uiso   1.00
O439   O     0.90942   0.75000   0.21955   0.00000  Uiso   1.00
O440   O     0.75725   0.74999   0.20096   0.00000  Uiso   1.00
O441   O     0.90942   0.75000   0.29903   0.00000  Uiso   1.00
O442   O     0.89410   0.52828   0.18237   0.00000  Uiso   1.00
Zn443  Zn    0.83333   0.75000   0.30307   0.00000  Uiso   1.00
Zn444  Zn    0.83333   0.74999   0.19693   0.00000  Uiso   1.00
C445   C     0.16734   0.16383   0.75005   0.00000  Uiso   1.00
C446   C     0.13955   0.21628   0.94358   0.00000  Uiso   1.00
C447   C     0.16712   0.24969   0.52661   0.00000  Uiso   1.00
C448   C     0.16664   0.24949   0.97326   0.00000  Uiso   1.00
C449   C     0.06701   0.24990   0.73755   0.00000  Uiso   1.00
C450   C     0.26633   0.24995   0.76246   0.00000  Uiso   1.00
C451   C     0.01203   0.24968   0.73083   0.00000  Uiso   1.00
C452   C     0.32135   0.24990   0.76921   0.00000  Uiso   1.00
C453   C     0.15963   0.04566   0.78775   0.00000  Uiso   1.00
C454   C     0.16164   0.45440   0.71026   0.00000  Uiso   1.00
C455   C     0.15427   0.09154   0.78689   0.00000  Uiso   1.00
C456   C     0.16742   0.33619   0.75016   0.00000  Uiso   1.00
C457   C     0.15628   0.40851   0.70948   0.00000  Uiso   1.00
C458   C     0.17242   0.11599   0.75074   0.00000  Uiso   1.00
C459   C     0.17259   0.38407   0.75098   0.00000  Uiso   1.00
C460   C     0.19730   0.09481   0.71619   0.00000  Uiso   1.00
C461   C     0.19562   0.40535   0.79296   0.00000  Uiso   1.00
C462   C     0.20453   0.04890   0.71779   0.00000  Uiso   1.00
C463   C     0.20277   0.45126   0.79361   0.00000  Uiso   1.00
C464   C     0.18436   0.02422   0.75322   0.00000  Uiso   1.00
C465   C     0.18447   0.47590   0.75217   0.00000  Uiso   1.00
C466   C     0.28138   0.02270   0.69888   0.00000  Uiso   1.00
C467   C     0.12014   0.24554   0.54596   0.00000  Uiso   1.00
C468   C     0.27775   0.47863   0.83593   0.00000  Uiso   1.00
C469   C     0.29037   0.21775   0.55071   0.00000  Uiso   1.00
C470   C     0.14344   0.14456   0.96910   0.00000  Uiso   1.00
C471   C     0.19386   0.28246   0.95134   0.00000  Uiso   1.00
C472   C     0.12077   0.24546   0.59567   0.00000  Uiso   1.00
C473   C     0.19359   0.28200   0.90169   0.00000  Uiso   1.00
C474   C     0.21280   0.25450   0.60853   0.00000  Uiso   1.00
C475   C     0.13957   0.21779   0.89375   0.00000  Uiso   1.00
C476   C     0.21437   0.25344   0.55886   0.00000  Uiso   1.00
H477   H     0.32483   0.24936   0.69442   0.00000  Uiso   1.00
H478   H     0.21487   0.30879   0.97244   0.00000  Uiso   1.00
H479   H     0.08420   0.24202   0.60967   0.00000  Uiso   1.00
H480   H     0.21483   0.30748   0.88539   0.00000  Uiso   1.00
H481   H     0.28777   0.49684   0.72722   0.00000  Uiso   1.00
H482   H     0.30061   0.05474   0.71177   0.00000  Uiso   1.00
H483   H     0.30071   0.01077   0.66876   0.00000  Uiso   1.00
H484   H     0.28457   0.00515   0.81018   0.00000  Uiso   1.00
H485   H     0.29813   0.44715   0.82834   0.00000  Uiso   1.00
H486   H     0.29551   0.49024   0.87194   0.00000  Uiso   1.00
H487   H     0.24888   0.25888   0.63281   0.00000  Uiso   1.00
H488   H     0.00861   0.25014   0.80564   0.00000  Uiso   1.00
H489   H     0.11810   0.19282   0.87102   0.00000  Uiso   1.00
H490   H     0.26709   0.18816   0.53600   0.00000  Uiso   1.00
H491   H     0.30431   0.21333   0.58949   0.00000  Uiso   1.00
H492   H     0.32550   0.21958   0.53250   0.00000  Uiso   1.00
H493   H     0.18056   0.15114   0.99372   0.00000  Uiso   1.00
H494   H     0.15211   0.13136   0.93437   0.00000  Uiso   1.00
H495   H     0.12175   0.11823   0.98558   0.00000  Uiso   1.00
H496   H     0.14316   0.02676   0.81453   0.00000  Uiso   1.00
H497   H     0.14656   0.47326   0.67857   0.00000  Uiso   1.00
H498   H     0.13488   0.10779   0.81368   0.00000  Uiso   1.00
H499   H     0.13827   0.39226   0.67690   0.00000  Uiso   1.00
H500   H     0.21187   0.11383   0.68841   0.00000  Uiso   1.00
H501   H     0.20873   0.38640   0.82509   0.00000  Uiso   1.00
H502   H     0.08295   0.24283   0.52268   0.00000  Uiso   1.00
N503   N     0.16667   0.24999   0.62623   0.00000  Uiso   1.00
N504   N     0.16667   0.25001   0.87376   0.00000  Uiso   1.00
O505   O     0.16667   0.18453   0.78974   0.00000  Uiso   1.00
O506   O     0.22362   0.47191   0.83591   0.00000  Uiso   1.00
O507   O     0.26170   0.25777   0.54184   0.00000  Uiso   1.00
O508   O     0.11178   0.18312   0.96271   0.00000  Uiso   1.00
O509   O     0.16666   0.31546   0.71026   0.00000  Uiso   1.00
O510   O     0.16667   0.18453   0.71026   0.00000  Uiso   1.00
O511   O     0.16666   0.31547   0.78974   0.00000  Uiso   1.00
O512   O     0.09058   0.25000   0.78044   0.00000  Uiso   1.00
O513   O     0.24275   0.25000   0.71955   0.00000  Uiso   1.00
O514   O     0.09058   0.24999   0.70096   0.00000  Uiso   1.00
O515   O     0.24275   0.25000   0.79903   0.00000  Uiso   1.00
O516   O     0.22743   0.02828   0.68237   0.00000  Uiso   1.00
Zn517  Zn    0.16667   0.25000   0.80307   0.00000  Uiso   1.00
Zn518  Zn    0.16667   0.24999   0.69693   0.00000  Uiso   1.00
C519   C     0.50067   0.16383   0.75005   0.00000  Uiso   1.00
C520   C     0.47289   0.21628   0.94358   0.00000  Uiso   1.00
C521   C     0.50045   0.24969   0.52661   0.00000  Uiso   1.00
C522   C     0.49997   0.24949   0.97326   0.00000  Uiso   1.00
C523   C     0.40035   0.24990   0.73755   0.00000  Uiso   1.00
C524   C     0.59967   0.24995   0.76246   0.00000  Uiso   1.00
C525   C     0.34536   0.24968   0.73083   0.00000  Uiso   1.00
C526   C     0.65468   0.24990   0.76921   0.00000  Uiso   1.00
C527   C     0.49297   0.04566   0.78775   0.00000  Uiso   1.00
C528   C     0.49498   0.45440   0.71026   0.00000  Uiso   1.00
C529   C     0.48760   0.09154   0.78689   0.00000  Uiso   1.00
C530   C     0.50075   0.33619   0.75016   0.00000  Uiso   1.00
C531   C     0.48961   0.40851   0.70948   0.00000  Uiso   1.00
C532   C     0.50575   0.11599   0.75074   0.00000  Uiso   1.00
C533   C     0.50592   0.38407   0.75098   0.00000  Uiso   1.00
C534   C     0.53064   0.09481   0.71619   0.00000  Uiso   1.00
C535   C     0.52895   0.40535   0.79296   0.00000  Uiso   1.00
C536   C     0.53786   0.04890   0.71779   0.00000  Uiso   1.00
C537   C     0.53611   0.45126   0.79361   0.00000  Uiso   1.00
C538   C     0.51769   0.02422   0.75322   0.00000  Uiso   1.00
C539   C     0.51781   0.47590   0.75217   0.00000  Uiso   1.00
C540   C     0.61472   0.02270   0.69888   0.00000  Uiso   1.00
C541   C     0.45347   0.24554   0.54596   0.00000  Uiso   1.00
C542   C     0.61108   0.47863   0.83593   0.00000  Uiso   1.00
C543   C     0.62370   0.21775   0.55071   0.00000  Uiso   1.00
C544   C     0.47678   0.14456   0.96910   0.00000  Uiso   1.00
C545   C     0.52720   0.28246   0.95134   0.00000  Uiso   1.00
C546   C     0.45410   0.24546   0.59567   0.00000  Uiso   1.00
C547   C     0.52692   0.28200   0.90169   0.00000  Uiso   1.00
C548   C     0.54613   0.25450   0.60853   0.00000  Uiso   1.00
C549   C     0.47290   0.21779   0.89375   0.00000  Uiso   1.00
C550   C     0.54770   0.25344   0.55886   0.00000  Uiso   1.00
H551   H     0.65817   0.24936   0.69442   0.00000  Uiso   1.00
H552   H     0.54821   0.30879   0.97244   0.00000  Uiso   1.00
H553   H     0.41753   0.24202   0.60967   0.00000  Uiso   1.00
H554   H     0.54816   0.30748   0.88539   0.00000  Uiso   1.00
H555   H     0.62111   0.49684   0.72722   0.00000  Uiso   1.00
H556   H     0.63394   0.05474   0.71177   0.00000  Uiso   1.00
H557   H     0.63404   0.01077   0.66876   0.00000  Uiso   1.00
H558   H     0.61790   0.00515   0.81018   0.00000  Uiso   1.00
H559   H     0.63146   0.44715   0.82834   0.00000  Uiso   1.00
H560   H     0.62884   0.49024   0.87194   0.00000  Uiso   1.00
H561   H     0.58221   0.25888   0.63281   0.00000  Uiso   1.00
H562   H     0.34194   0.25014   0.80564   0.00000  Uiso   1.00
H563   H     0.45143   0.19282   0.87102   0.00000  Uiso   1.00
H564   H     0.60043   0.18816   0.53600   0.00000  Uiso   1.00
H565   H     0.63765   0.21333   0.58949   0.00000  Uiso   1.00
H566   H     0.65883   0.21958   0.53250   0.00000  Uiso   1.00
H567   H     0.51389   0.15114   0.99372   0.00000  Uiso   1.00
H568   H     0.48544   0.13136   0.93437   0.00000  Uiso   1.00
H569   H     0.45509   0.11823   0.98558   0.00000  Uiso   1.00
H570   H     0.47649   0.02676   0.81453   0.00000  Uiso   1.00
H571   H     0.47989   0.47326   0.67857   0.00000  Uiso   1.00
H572   H     0.46821   0.10779   0.81368   0.00000  Uiso   1.00
H573   H     0.47161   0.39226   0.67690   0.00000  Uiso   1.00
H574   H     0.54520   0.11383   0.68841   0.00000  Uiso   1.00
H575   H     0.54207   0.38640   0.82509   0.00000  Uiso   1.00
H576   H     0.41628   0.24283   0.52268   0.00000  Uiso   1.00
N577   N     0.50000   0.24999   0.62623   0.00000  Uiso   1.00
N578   N     0.50000   0.25001   0.87376   0.00000  Uiso   1.00
O579   O     0.50000   0.18453   0.78974   0.00000  Uiso   1.00
O580   O     0.55696   0.47191   0.83591   0.00000  Uiso   1.00
O581   O     0.59503   0.25777   0.54184   0.00000  Uiso   1.00
O582   O     0.44512   0.18312   0.96271   0.00000  Uiso   1.00
O583   O     0.50000   0.31546   0.71026   0.00000  Uiso   1.00
O584   O     0.50000   0.18453   0.71026   0.00000  Uiso   1.00
O585   O     0.50000   0.31547   0.78974   0.00000  Uiso   1.00
O586   O     0.42392   0.25000   0.78044   0.00000  Uiso   1.00
O587   O     0.57608   0.25000   0.71955   0.00000  Uiso   1.00
O588   O     0.42392   0.24999   0.70096   0.00000  Uiso   1.00
O589   O     0.57608   0.25000   0.79903   0.00000  Uiso   1.00
O590   O     0.56076   0.02828   0.68237   0.00000  Uiso   1.00
Zn591  Zn    0.50000   0.25000   0.80307   0.00000  Uiso   1.00
Zn592  Zn    0.50000   0.24999   0.69693   0.00000  Uiso   1.00
C593   C     0.83401   0.16383   0.75005   0.00000  Uiso   1.00
C594   C     0.80622   0.21628   0.94358   0.00000  Uiso   1.00
C595   C     0.83379   0.24969   0.52661   0.00000  Uiso   1.00
C596   C     0.83331   0.24949   0.97326   0.00000  Uiso   1.00
C597   C     0.73368   0.24990   0.73755   0.00000  Uiso   1.00
C598   C     0.93300   0.24995   0.76246   0.00000  Uiso   1.00
C599   C     0.67869   0.24968   0.73083   0.00000  Uiso   1.00
C600   C     0.98801   0.24990   0.76921   0.00000  Uiso   1.00
C601   C     0.82630   0.04566   0.78775   0.00000  Uiso   1.00
C602   C     0.82831   0.45440   0.71026   0.00000  Uiso   1.00
C603   C     0.82094   0.09154   0.78689   0.00000  Uiso   1.00
C604   C     0.83408   0.33619   0.75016   0.00000  Uiso   1.00
C605   C     0.82294   0.40851   0.70948   0.00000  Uiso   1.00
C606   C     0.83908   0.11599   0.75074   0.00000  Uiso   1.00
C607   C     0.83925   0.38407   0.75098   0.00000  Uiso   1.00
C608   C     0.86397   0.09481   0.71619   0.00000  Uiso   1.00
C609   C     0.86228   0.40535   0.79296   0.00000  Uiso   1.00
C610   C     0.87120   0.04890   0.71779   0.00000  Uiso   1.00
C611   C     0.86944   0.45126   0.79361   0.00000  Uiso   1.00
C612   C     0.85103   0.02422   0.75322   0.00000  Uiso   1.00
C613   C     0.85114   0.47590   0.75217   0.00000  Uiso   1.00
C614   C     0.94805   0.02270   0.69888   0.00000  Uiso   1.00
C615   C     0.78681   0.24554   0.54596   0.00000  Uiso   1.00
C616   C     0.94441   0.47863   0.83593   0.00000  Uiso   1.00
C617   C     0.95704   0.21775   0.55071   0.00000  Uiso   1.00
C618   C     0.81011   0.14456   0.96910   0.00000  Uiso   1.00
C619   C     0.86053   0.28246   0.95134   0.00000  Uiso   1.00
C620   C     0.78743   0.24546   0.59567   0.00000  Uiso   1.00
C621   C     0.86026   0.28200   0.90169   0.00000  Uiso   1.00
C622   C     0.87946   0.25450   0.60853   0.00000  Uiso   1.00
C623   C     0.80624   0.21779   0.89375   0.00000  Uiso   1.00
C624   C     0.88104   0.25344   0.55886   0.00000  Uiso   1.00
H625   H     0.99150   0.24936   0.69442   0.00000  Uiso   1.00
H626   H     0.88154   0.30879   0.97244   0.00000  Uiso   1.00
H627   H     0.75086   0.24202   0.60967   0.00000  Uiso   1.00
H628   H     0.88149   0.30748   0.88539   0.00000  Uiso   1.00
H629   H     0.95444   0.49684   0.72722   0.00000  Uiso   1.00
H630   H     0.96728   0.05474   0.71177   0.00000  Uiso   1.00
H631   H     0.96738   0.01077   0.66876   0.00000  Uiso   1.00
H632   H     0.95124   0.00515   0.81018   0.00000  Uiso   1.00
H633   H     0.96479   0.44715   0.82834   0.00000  Uiso   1.00
H634   H     0.96217   0.49024   0.87194   0.00000  Uiso   1.00
H635   H     0.91554   0.25888   0.63281   0.00000  Uiso   1.00
H636   H     0.67528   0.25014   0.80564   0.00000  Uiso   1.00
H637   H     0.78476   0.19282   0.87102   0.00000  Uiso   1.00
H638   H     0.93376   0.18816   0.53600   0.00000  Uiso   1.00
H639   H     0.97098   0.21333   0.58949   0.00000  Uiso   1.00
H640   H     0.99217   0.21958   0.53250   0.00000  Uiso   1.00
H641   H     0.84723   0.15114   0.99372   0.00000  Uiso   1.00
H642   H     0.81878   0.13136   0.93437   0.00000  Uiso   1.00
H643   H     0.78842   0.11823   0.98558   0.00000  Uiso   1.00
H644   H     0.80983   0.02676   0.81453   0.00000  Uiso   1.00
H645   H     0.81323   0.47326   0.67857   0.00000  Uiso   1.00
H646   H     0.80154   0.10779   0.81368   0.00000  Uiso   1.00
H647   H     0.80494   0.39226   0.67690   0.00000  Uiso   1.00
H648   H     0.87854   0.11383   0.68841   0.00000  Uiso   1.00
H649   H     0.87540   0.38640   0.82509   0.00000  Uiso   1.00
H650   H     0.74962   0.24283   0.52268   0.00000  Uiso   1.00
N651   N     0.83333   0.24999   0.62623   0.00000  Uiso   1.00
N652   N     0.83333   0.25001   0.87376   0.00000  Uiso   1.00
O653   O     0.83334   0.18453   0.78974   0.00000  Uiso   1.00
O654   O     0.89029   0.47191   0.83591   0.00000  Uiso   1.00
O655   O     0.92836   0.25777   0.54184   0.00000  Uiso   1.00
O656   O     0.77845   0.18312   0.96271   0.00000  Uiso   1.00
O657   O     0.83333   0.31546   0.71026   0.00000  Uiso   1.00
O658   O     0.83334   0.18453   0.71026   0.00000  Uiso   1.00
O659   O     0.83333   0.31547   0.78974   0.00000  Uiso   1.00
O660   O     0.75725   0.25000   0.78044   0.00000  Uiso   1.00
O661   O     0.90942   0.25000   0.71955   0.00000  Uiso   1.00
O662   O     0.75725   0.24999   0.70096   0.00000  Uiso   1.00
O663   O     0.90942   0.25000   0.79903   0.00000  Uiso   1.00
O664   O     0.89410   0.02828   0.68237   0.00000  Uiso   1.00
Zn665  Zn    0.83333   0.25000   0.80307   0.00000  Uiso   1.00
Zn666  Zn    0.83333   0.24999   0.69693   0.00000  Uiso   1.00
C667   C     0.16734   0.66383   0.75005   0.00000  Uiso   1.00
C668   C     0.13955   0.71628   0.94358   0.00000  Uiso   1.00
C669   C     0.16712   0.74969   0.52661   0.00000  Uiso   1.00
C670   C     0.16664   0.74949   0.97326   0.00000  Uiso   1.00
C671   C     0.06701   0.74990   0.73755   0.00000  Uiso   1.00
C672   C     0.26633   0.74995   0.76246   0.00000  Uiso   1.00
C673   C     0.01203   0.74968   0.73083   0.00000  Uiso   1.00
C674   C     0.32135   0.74990   0.76921   0.00000  Uiso   1.00
C675   C     0.15963   0.54566   0.78775   0.00000  Uiso   1.00
C676   C     0.16164   0.95440   0.71026   0.00000  Uiso   1.00
C677   C     0.15427   0.59154   0.78689   0.00000  Uiso   1.00
C678   C     0.16742   0.83619   0.75016   0.00000  Uiso   1.00
C679   C     0.15628   0.90851   0.70948   0.00000  Uiso   1.00
C680   C     0.17242   0.61599   0.75074   0.00000  Uiso   1.00
C681   C     0.17259   0.88407   0.75098   0.00000  Uiso   1.00
C682   C     0.19730   0.59481   0.71619   0.00000  Uiso   1.00
C683   C     0.19562   0.90535   0.79296   0.00000  Uiso   1.00
C684   C     0.20453   0.54890   0.71779   0.00000  Uiso   1.00
C685   C     0.20277   0.95126   0.79361   0.00000  Uiso   1.00
C686   C     0.18436   0.52422   0.75322   0.00000  Uiso   1.00
C687   C     0.18447   0.97590   0.75217   0.00000  Uiso   1.00
C688   C     0.28138   0.52270   0.69888   0.00000  Uiso   1.00
C689   C     0.12014   0.74554   0.54596   0.00000  Uiso   1.00
C690   C     0.27775   0.97863   0.83593   0.00000  Uiso   1.00
C691   C     0.29037   0.71775   0.55071   0.00000  Uiso   1.00
C692   C     0.14344   0.64456   0.96910   0.00000  Uiso   1.00
C693   C     0.19386   0.78246   0.95134   0.00000  Uiso   1.00
C694   C     0.12077   0.74546   0.59567   0.00000  Uiso   1.00
C695   C     0.19359   0.78200   0.90169   0.00000  Uiso   1.00
C696   C     0.21280   0.75450   0.60853   0.00000  Uiso   1.00
C697   C     0.13957   0.71779   0.89375   0.00000  Uiso   1.00
C698   C     0.21437   0.75344   0.55886   0.00000  Uiso   1.00
H699   H     0.32483   0.74936   0.69442   0.00000  Uiso   1.00
H700   H     0.21487   0.80879   0.97244   0.00000  Uiso   1.00
H701   H     0.08420   0.74202   0.60967   0.00000  Uiso   1.00
H702   H     0.21483   0.80748   0.88539   0.00000  Uiso   1.00
H703   H     0.28777   0.99684   0.72722   0.00000  Uiso   1.00
H704   H     0.30061   0.55474   0.71177   0.00000  Uiso   1.00
H705   H     0.30071   0.51077   0.66876   0.00000  Uiso   1.00
H706   H     0.28457   0.50515   0.81018   0.00000  Uiso   1.00
H707   H     0.29813   0.94715   0.82834   0.00000  Uiso   1.00
H708   H     0.29551   0.99024   0.87194   0.00000  Uiso   1.00
H709   H     0.24888   0.75888   0.63281   0.00000  Uiso   1.00
H710   H     0.00861   0.75014   0.80564   0.00000  Uiso   1.00
H711   H     0.11810   0.69282   0.87102   0.00000  Uiso   1.00
H712   H     0.26709   0.68816   0.53600   0.00000  Uiso   1.00
H713   H     0.30431   0.71333   0.58949   0.00000  Uiso   1.00
H714   H     0.32550   0.71958   0.53250   0.00000  Uiso   1.00
H715   H     0.18056   0.65114   0.99372   0.00000  Uiso   1.00
H716   H     0.15211   0.63136   0.93437   0.00000  Uiso   1.00
H717   H     0.12175   0.61823   0.98558   0.00000  Uiso   1.00
H718   H     0.14316   0.52676   0.81453   0.00000  Uiso   1.00
H719   H     0.14656   0.97326   0.67857   0.00000  Uiso   1.00
H720   H     0.13488   0.60779   0.81368   0.00000  Uiso   1.00
H721   H     0.13827   0.89226   0.67690   0.00000  Uiso   1.00
H722   H     0.21187   0.61383   0.68841   0.00000  Uiso   1.00
H723   H     0.20873   0.88640   0.82509   0.00000  Uiso   1.00
H724   H     0.08295   0.74283   0.52268   0.00000  Uiso   1.00
N725   N     0.16667   0.74999   0.62623   0.00000  Uiso   1.00
N726   N     0.16667   0.75001   0.87376   0.00000  Uiso   1.00
O727   O     0.16667   0.68453   0.78974   0.00000  Uiso   1.00
O728   O     0.22362   0.97191   0.83591   0.00000  Uiso   1.00
O729   O     0.26170   0.75777   0.54184   0.00000  Uiso   1.00
O730   O     0.11178   0.68312   0.96271   0.00000  Uiso   1.00
O731   O     0.16666   0.81546   0.71026   0.00000  Uiso   1.00
O732   O     0.16667   0.68453   0.71026   0.00000  Uiso   1.00
O733   O     0.16666   0.81547   0.78974   0.00000  Uiso   1.00
O734   O     0.09058   0.75000   0.78044   0.00000  Uiso   1.00
O735   O     0.24275   0.75000   0.71955   0.00000  Uiso   1.00
O736   O     0.09058   0.74999   0.70096   0.00000  Uiso   1.00
O737   O     0.24275   0.75000   0.79903   0.00000  Uiso   1.00
O738   O     0.22743   0.52828   0.68237   0.00000  Uiso   1.00
Zn739  Zn    0.16667   0.75000   0.80307   0.00000  Uiso   1.00
Zn740  Zn    0.16667   0.74999   0.69693   0.00000  Uiso   1.00
C741   C     0.50067   0.66383   0.75005   0.00000  Uiso   1.00
C742   C     0.47289   0.71628   0.94358   0.00000  Uiso   1.00
C743   C     0.50045   0.74969   0.52661   0.00000  Uiso   1.00
C744   C     0.49997   0.74949   0.97326   0.00000  Uiso   1.00
C745   C     0.40035   0.74990   0.73755   0.00000  Uiso   1.00
C746   C     0.59967   0.74995   0.76246   0.00000  Uiso   1.00
C747   C     0.34536   0.74968   0.73083   0.00000  Uiso   1.00
C748   C     0.65468   0.74990   0.76921   0.00000  Uiso   1.00
C749   C     0.49297   0.54566   0.78775   0.00000  Uiso   1.00
C750   C     0.49498   0.95440   0.71026   0.00000  Uiso   1.00
C751   C     0.48760   0.59154   0.78689   0.00000  Uiso   1.00
C752   C     0.50075   0.83619   0.75016   0.00000  Uiso   1.00
C753   C     0.48961   0.90851   0.70948   0.00000  Uiso   1.00
C754   C     0.50575   0.61599   0.75074   0.00000  Uiso   1.00
C755   C     0.50592   0.88407   0.75098   0.00000  Uiso   1.00
C756   C     0.53064   0.59481   0.71619   0.00000  Uiso   1.00
C757   C     0.52895   0.90535   0.79296   0.00000  Uiso   1.00
C758   C     0.53786   0.54890   0.71779   0.00000  Uiso   1.00
C759   C     0.53611   0.95126   0.79361   0.00000  Uiso   1.00
C760   C     0.51769   0.52422   0.75322   0.00000  Uiso   1.00
C761   C     0.51781   0.97590   0.75217   0.00000  Uiso   1.00
C762   C     0.61472   0.52270   0.69888   0.00000  Uiso   1.00
C763   C     0.45347   0.74554   0.54596   0.00000  Uiso   1.00
C764   C     0.61108   0.97863   0.83593   0.00000  Uiso   1.00
C765   C     0.62370   0.71775   0.55071   0.00000  Uiso   1.00
C766   C     0.47678   0.64456   0.96910   0.00000  Uiso   1.00
C767   C     0.52720   0.78246   0.95134   0.00000  Uiso   1.00
C768   C     0.45410   0.74546   0.59567   0.00000  Uiso   1.00
C769   C     0.52692   0.78200   0.90169   0.00000  Uiso   1.00
C770   C     0.54613   0.75450   0.60853   0.00000  Uiso   1.00
C771   C     0.47290   0.71779   0.89375   0.00000  Uiso   1.00
C772   C     0.54770   0.75344   0.55886   0.00000  Uiso   1.00
H773   H     0.65817   0.74936   0.69442   0.00000  Uiso   1.00
H774   H     0.54821   0.80879   0.97244   0.00000  Uiso   1.00
H775   H     0.41753   0.74202   0.60967   0.00000  Uiso   1.00
H776   H     0.54816   0.80748   0.88539   0.00000  Uiso   1.00
H777   H     0.62111   0.99684   0.72722   0.00000  Uiso   1.00
H778   H     0.63394   0.55474   0.71177   0.00000  Uiso   1.00
H779   H     0.63404   0.51077   0.66876   0.00000  Uiso   1.00
H780   H     0.61790   0.50515   0.81018   0.00000  Uiso   1.00
H781   H     0.63146   0.94715   0.82834   0.00000  Uiso   1.00
H782   H     0.62884   0.99024   0.87194   0.00000  Uiso   1.00
H783   H     0.58221   0.75888   0.63281   0.00000  Uiso   1.00
H784   H     0.34194   0.75014   0.80564   0.00000  Uiso   1.00
H785   H     0.45143   0.69282   0.87102   0.00000  Uiso   1.00
H786   H     0.60043   0.68816   0.53600   0.00000  Uiso   1.00
H787   H     0.63765   0.71333   0.58949   0.00000  Uiso   1.00
H788   H     0.65883   0.71958   0.53250   0.00000  Uiso   1.00
H789   H     0.51389   0.65114   0.99372   0.00000  Uiso   1.00
H790   H     0.48544   0.63136   0.93437   0.00000  Uiso   1.00
H791   H     0.45509   0.61823   0.98558   0.00000  Uiso   1.00
H792   H     0.47649   0.52676   0.81453   0.00000  Uiso   1.00
H793   H     0.47989   0.97326   0.67857   0.00000  Uiso   1.00
H794   H     0.46821   0.60779   0.81368   0.00000  Uiso   1.00
H795   H     0.47161   0.89226   0.67690   0.00000  Uiso   1.00
H796   H     0.54520   0.61383   0.68841   0.00000  Uiso   1.00
H797   H     0.54207   0.88640   0.82509   0.00000  Uiso   1.00
H798   H     0.41628   0.74283   0.52268   0.00000  Uiso   1.00
N799   N     0.50000   0.74999   0.62623   0.00000  Uiso   1.00
N800   N     0.50000   0.75001   0.87376   0.00000  Uiso   1.00
O801   O     0.50000   0.68453   0.78974   0.00000  Uiso   1.00
O802   O     0.55696   0.97191   0.83591   0.00000  Uiso   1.00
O803   O     0.59503   0.75777   0.54184   0.00000  Uiso   1.00
O804   O     0.44512   0.68312   0.96271   0.00000  Uiso   1.00
O805   O     0.50000   0.81546   0.71026   0.00000  Uiso   1.00
O806   O     0.50000   0.68453   0.71026   0.00000  Uiso   1.00
O807   O     0.50000   0.81547   0.78974   0.00000  Uiso   1.00
O808   O     0.42392   0.75000   0.78044   0.00000  Uiso   1.00
O809   O     0.57608   0.75000   0.71955   0.00000  Uiso   1.00
O810   O     0.42392   0.74999   0.70096   0.00000  Uiso   1.00
O811   O     0.57608   0.75000   0.79903   0.00000  Uiso   1.00
O812   O     0.56076   0.52828   0.68237   0.00000  Uiso   1.00
Zn813  Zn    0.50000   0.75000   0.80307   0.00000  Uiso   1.00
Zn814  Zn    0.50000   0.74999   0.69693   0.00000  Uiso   1.00
C815   C     0.83401   0.66383   0.75005   0.00000  Uiso   1.00
C816   C     0.80622   0.71628   0.94358   0.00000  Uiso   1.00
C817   C     0.83379   0.74969   0.52661   0.00000  Uiso   1.00
C818   C     0.83331   0.74949   0.97326   0.00000  Uiso   1.00
C819   C     0.73368   0.74990   0.73755   0.00000  Uiso   1.00
C820   C     0.93300   0.74995   0.76246   0.00000  Uiso   1.00
C821   C     0.67869   0.74968   0.73083   0.00000  Uiso   1.00
C822   C     0.98801   0.74990   0.76921   0.00000  Uiso   1.00
C823   C     0.82630   0.54566   0.78775   0.00000  Uiso   1.00
C824   C     0.82831   0.95440   0.71026   0.00000  Uiso   1.00
C825   C     0.82094   0.59154   0.78689   0.00000  Uiso   1.00
C826   C     0.83408   0.83619   0.75016   0.00000  Uiso   1.00
C827   C     0.82294   0.90851   0.70948   0.00000  Uiso   1.00
C828   C     0.83908   0.61599   0.75074   0.00000  Uiso   1.00
C829   C     0.83925   0.88407   0.75098   0.00000  Uiso   1.00
C830   C     0.86397   0.59481   0.71619   0.00000  Uiso   1.00
C831   C     0.86228   0.90535   0.79296   0.00000  Uiso   1.00
C832   C     0.87120   0.54890   0.71779   0.00000  Uiso   1.00
C833   C     0.86944   0.95126   0.79361   0.00000  Uiso   1.00
C834   C     0.85103   0.52422   0.75322   0.00000  Uiso   1.00
C835   C     0.85114   0.97590   0.75217   0.00000  Uiso   1.00
C836   C     0.94805   0.52270   0.69888   0.00000  Uiso   1.00
C837   C     0.78681   0.74554   0.54596   0.00000  Uiso   1.00
C838   C     0.94441   0.97863   0.83593   0.00000  Uiso   1.00
C839   C     0.95704   0.71775   0.55071   0.00000  Uiso   1.00
C840   C     0.81011   0.64456   0.96910   0.00000  Uiso   1.00
C841   C     0.86053   0.78246   0.95134   0.00000  Uiso   1.00
C842   C     0.78743   0.74546   0.59567   0.00000  Uiso   1.00
C843   C     0.86026   0.78200   0.90169   0.00000  Uiso   1.00
C844   C     0.87946   0.75450   0.60853   0.00000  Uiso   1.00
C845   C     0.80624   0.71779   0.89375   0.00000  Uiso   1.00
C846   C     0.88104   0.75344   0.55886   0.00000  Uiso   1.00
H847   H     0.99150   0.74936   0.69442   0.00000  Uiso   1.00
H848   H     0.88154   0.80879   0.97244   0.00000  Uiso   1.00
H849   H     0.75086   0.74202   0.60967   0.00000  Uiso   1.00
H850   H     0.88149   0.80748   0.88539   0.00000  Uiso   1.00
H851   H     0.95444   0.99684   0.72722   0.00000  Uiso   1.00
H852   H     0.96728   0.55474   0.71177   0.00000  Uiso   1.00
H853   H     0.96738   0.51077   0.66876   0.00000  Uiso   1.00
H854   H     0.95124   0.50515   0.81018   0.00000  Uiso   1.00
H855   H     0.96479   0.94715   0.82834   0.00000  Uiso   1.00
H856   H     0.96217   0.99024   0.87194   0.00000  Uiso   1.00
H857   H     0.91554   0.75888   0.63281   0.00000  Uiso   1.00
H858   H     0.67528   0.75014   0.80564   0.00000  Uiso   1.00
H859   H     0.78476   0.69282   0.87102   0.00000  Uiso   1.00
H860   H     0.93376   0.68816   0.53600   0.00000  Uiso   1.00
H861   H     0.97098   0.71333   0.58949   0.00000  Uiso   1.00
H862   H     0.99217   0.71958   0.53250   0.00000  Uiso   1.00
H863   H     0.84723   0.65114   0.99372   0.00000  Uiso   1.00
H864   H     0.81878   0.63136   0.93437   0.00000  Uiso   1.00
H865   H     0.78842   0.61823   0.98558   0.00000  Uiso   1.00
H866   H     0.80983   0.52676   0.81453   0.00000  Uiso   1.00
H867   H     0.81323   0.97326   0.67857   0.00000  Uiso   1.00
H868   H     0.80154   0.60779   0.81368   0.00000  Uiso   1.00
H869   H     0.80494   0.89226   0.67690   0.00000  Uiso   1.00
H870   H     0.87854   0.61383   0.68841   0.00000  Uiso   1.00
H871   H     0.87540   0.88640   0.82509   0.00000  Uiso   1.00
H872   H     0.74962   0.74283   0.52268   0.00000  Uiso   1.00
N873   N     0.83333   0.74999   0.62623   0.00000  Uiso   1.00
N874   N     0.83333   0.75001   0.87376   0.00000  Uiso   1.00
O875   O     0.83334   0.68453   0.78974   0.00000  Uiso   1.00
O876   O     0.89029   0.97191   0.83591   0.00000  Uiso   1.00
O877   O     0.92836   0.75777   0.54184   0.00000  Uiso   1.00
O878   O     0.77845   0.68312   0.96271   0.00000  Uiso   1.00
O879   O     0.83333   0.81546   0.71026   0.00000  Uiso   1.00
O880   O     0.83334   0.68453   0.71026   0.00000  Uiso   1.00
O881   O     0.83333   0.81547   0.78974   0.00000  Uiso   1.00
O882   O     0.75725   0.75000   0.78044   0.00000  Uiso   1.00
O883   O     0.90942   0.75000   0.71955   0.00000  Uiso   1.00
O884   O     0.75725   0.74999   0.70096   0.00000  Uiso   1.00
O885   O     0.90942   0.75000   0.79903   0.00000  Uiso   1.00
O886   O     0.89410   0.52828   0.68237   0.00000  Uiso   1.00
Zn887  Zn    0.83333   0.75000   0.80307   0.00000  Uiso   1.00
Zn888  Zn    0.83333   0.74999   0.69693   0.00000  Uiso   1.00
loop_
_geom_bond_atom_site_label_1
_geom_bond_atom_site_label_2
_geom_bond_distance
_geom_bond_site_symmetry_2
_ccdc_geom_bond_type
C1     O66     1.285   .     A
C1     C14     1.437   .     S
C1     O61     1.285   .     A
C2     C4      1.415   .     A
C2     O64     1.381   .     S
C2     C31     1.413   .     A
C3     C23     1.407   .     A
C3     C32     1.413   .     A
C3     C448    1.510   1_554 S
C4     C27     1.408   .     A
C4     C447    1.510   .     S
C5     O70     1.278   .     A
C5     C7      1.401   .     S
C5     O68     1.275   .     A
C6     O69     1.275   .     A
C6     O71     1.278   .     A
C6     C8      1.402   .     S
C7     C156    1.329   1_455 S
C7     H181    1.087   1_455 S
C8     C81     1.329   .     S
C8     H118    1.088   .     S
C9     C20     1.400   .     A
C9     C11     1.379   .     A
C9     H52     1.084   .     S
C10    C21     1.400   .     A
C10    H53     1.084   .     S
C10    C13     1.379   .     A
C11    H54     1.084   .     S
C11    C14     1.396   .     A
C12    O65     1.286   .     A
C12    C15     1.438   .     S
C12    O67     1.285   .     A
C13    C15     1.396   .     A
C13    H55     1.084   .     S
C14    C16     1.399   .     A
C15    C17     1.399   .     A
C16    H56     1.084   .     S
C16    C18     1.386   .     A
C17    C19     1.386   .     A
C17    H57     1.084   .     S
C18    C20     1.408   .     A
C18    O72     1.383   .     S
C19    C21     1.408   .     A
C19    O62     1.383   .     S
C20    C243    1.446   1_545 S
C21    C242    1.446   .     S
C22    H39     1.109   .     S
C22    H38     1.114   .     S
C22    O72     1.409   .     S
C22    H259    1.111   1_545 S
C23    C28     1.407   .     A
C23    H58     1.082   .     S
C24    H42     1.109   .     S
C24    H41     1.114   .     S
C24    O62     1.409   .     S
C24    H262    1.111   .     S
C25    H47     1.112   .     S
C25    O63     1.410   .     S
C25    H48     1.108   .     S
C25    H46     1.114   .     S
C26    H50     1.113   .     S
C26    H51     1.109   .     S
C26    H49     1.114   .     S
C26    O64     1.409   .     S
C27    C29     1.406   .     A
C27    H34     1.083   .     S
C28    H35     1.081   .     S
C28    N59     1.364   .     A
C29    N60     1.362   .     A
C29    H36     1.082   .     S
C30    N59     1.364   .     A
C30    C32     1.415   .     A
C30    H43     1.079   .     S
C31    N60     1.363   .     A
C31    H45     1.082   .     S
C32    O63     1.383   .     S
H33    C81     1.087   .     S
H37    C244    1.111   .     S
H40    C246    1.111   1_545 S
H44    C156    1.088   1_455 S
N59    Zn74    2.003   .     S
N60    Zn73    2.003   .     S
O61    Zn73    1.994   .     S
O65    Zn74    1.994   .     S
O66    Zn74    1.995   .     S
O67    Zn73    1.995   .     S
O68    Zn73    1.970   .     S
O69    Zn74    1.970   .     S
O70    Zn74    1.981   .     S
O71    Zn73    1.981   .     S
C75    O140    1.285   .     A
C75    C88     1.437   .     S
C75    O135    1.285   .     A
C76    C78     1.415   .     A
C76    O138    1.381   .     S
C76    C105    1.413   .     A
C77    C97     1.407   .     A
C77    C106    1.413   .     A
C77    C522    1.510   1_554 S
C78    C101    1.408   .     A
C78    C521    1.510   .     S
C79    O144    1.278   .     A
C79    C81     1.401   .     S
C79    O142    1.275   .     A
C80    O143    1.275   .     A
C80    O145    1.278   .     A
C80    C82     1.402   .     S
C82    C155    1.329   .     S
C82    H192    1.088   .     S
C83    C94     1.400   .     A
C83    C85     1.379   .     A
C83    H126    1.084   .     S
C84    C95     1.400   .     A
C84    H127    1.084   .     S
C84    C87     1.379   .     A
C85    H128    1.084   .     S
C85    C88     1.396   .     A
C86    O139    1.286   .     A
C86    C89     1.438   .     S
C86    O141    1.285   .     A
C87    C89     1.396   .     A
C87    H129    1.084   .     S
C88    C90     1.399   .     A
C89    C91     1.399   .     A
C90    H130    1.084   .     S
C90    C92     1.386   .     A
C91    C93     1.386   .     A
C91    H131    1.084   .     S
C92    C94     1.408   .     A
C92    O146    1.383   .     S
C93    C95     1.408   .     A
C93    O136    1.383   .     S
C94    C317    1.446   1_545 S
C95    C316    1.446   .     S
C96    H113    1.109   .     S
C96    H112    1.114   .     S
C96    O146    1.409   .     S
C96    H333    1.111   1_545 S
C97    C102    1.407   .     A
C97    H132    1.082   .     S
C98    H116    1.109   .     S
C98    H115    1.114   .     S
C98    O136    1.409   .     S
C98    H336    1.111   .     S
C99    H121    1.112   .     S
C99    O137    1.410   .     S
C99    H122    1.108   .     S
C99    H120    1.114   .     S
C100   H124    1.113   .     S
C100   H125    1.109   .     S
C100   H123    1.114   .     S
C100   O138    1.409   .     S
C101   C103    1.406   .     A
C101   H108    1.083   .     S
C102   H109    1.081   .     S
C102   N133    1.364   .     A
C103   N134    1.362   .     A
C103   H110    1.082   .     S
C104   N133    1.364   .     A
C104   C106    1.415   .     A
C104   H117    1.079   .     S
C105   N134    1.363   .     A
C105   H119    1.082   .     S
C106   O137    1.383   .     S
H107   C155    1.087   .     S
H111   C318    1.111   .     S
H114   C320    1.111   1_545 S
N133   Zn148   2.003   .     S
N134   Zn147   2.003   .     S
O135   Zn147   1.994   .     S
O139   Zn148   1.994   .     S
O140   Zn148   1.995   .     S
O141   Zn147   1.995   .     S
O142   Zn147   1.970   .     S
O143   Zn148   1.970   .     S
O144   Zn148   1.981   .     S
O145   Zn147   1.981   .     S
C149   O214    1.285   .     A
C149   C162    1.437   .     S
C149   O209    1.285   .     A
C150   C152    1.415   .     A
C150   O212    1.381   .     S
C150   C179    1.413   .     A
C151   C171    1.407   .     A
C151   C180    1.413   .     A
C151   C596    1.510   1_554 S
C152   C175    1.408   .     A
C152   C595    1.510   .     S
C153   O218    1.278   .     A
C153   C155    1.401   .     S
C153   O216    1.275   .     A
C154   O217    1.275   .     A
C154   O219    1.278   .     A
C154   C156    1.402   .     S
C156   C7      1.329   1_655 S
C156   H44     1.088   1_655 S
C157   C168    1.400   .     A
C157   C159    1.379   .     A
C157   H200    1.084   .     S
C158   C169    1.400   .     A
C158   H201    1.084   .     S
C158   C161    1.379   .     A
C159   H202    1.084   .     S
C159   C162    1.396   .     A
C160   O213    1.286   .     A
C160   C163    1.438   .     S
C160   O215    1.285   .     A
C161   C163    1.396   .     A
C161   H203    1.084   .     S
C162   C164    1.399   .     A
C163   C165    1.399   .     A
C164   H204    1.084   .     S
C164   C166    1.386   .     A
C165   C167    1.386   .     A
C165   H205    1.084   .     S
C166   C168    1.408   .     A
C166   O220    1.383   .     S
C167   C169    1.408   .     A
C167   O210    1.383   .     S
C168   C391    1.446   1_545 S
C169   C390    1.446   .     S
C170   H187    1.109   .     S
C170   H186    1.114   .     S
C170   O220    1.409   .     S
C170   H407    1.111   1_545 S
C171   C176    1.407   .     A
C171   H206    1.082   .     S
C172   H190    1.109   .     S
C172   H189    1.114   .     S
C172   O210    1.409   .     S
C172   H410    1.111   .     S
C173   H195    1.112   .     S
C173   O211    1.410   .     S
C173   H196    1.108   .     S
C173   H194    1.114   .     S
C174   H198    1.113   .     S
C174   H199    1.109   .     S
C174   H197    1.114   .     S
C174   O212    1.409   .     S
C175   C177    1.406   .     A
C175   H182    1.083   .     S
C176   H183    1.081   .     S
C176   N207    1.364   .     A
C177   N208    1.362   .     A
C177   H184    1.082   .     S
C178   N207    1.364   .     A
C178   C180    1.415   .     A
C178   H191    1.079   .     S
C179   N208    1.363   .     A
C179   H193    1.082   .     S
C180   O211    1.383   .     S
H181   C7      1.087   1_655 S
H185   C392    1.111   .     S
H188   C394    1.111   1_545 S
N207   Zn222   2.003   .     S
N208   Zn221   2.003   .     S
O209   Zn221   1.994   .     S
O213   Zn222   1.994   .     S
O214   Zn222   1.995   .     S
O215   Zn221   1.995   .     S
O216   Zn221   1.970   .     S
O217   Zn222   1.970   .     S
O218   Zn222   1.981   .     S
O219   Zn221   1.981   .     S
C223   O288    1.285   .     A
C223   C236    1.437   .     S
C223   O283    1.285   .     A
C224   C226    1.415   .     A
C224   O286    1.381   .     S
C224   C253    1.413   .     A
C225   C245    1.407   .     A
C225   C254    1.413   .     A
C225   C670    1.510   1_554 S
C226   C249    1.408   .     A
C226   C669    1.510   .     S
C227   O292    1.278   .     A
C227   C229    1.401   .     S
C227   O290    1.275   .     A
C228   O291    1.275   .     A
C228   O293    1.278   .     A
C228   C230    1.402   .     S
C229   C378    1.329   1_455 S
C229   H403    1.087   1_455 S
C230   C303    1.329   .     S
C230   H340    1.088   .     S
C231   C242    1.400   .     A
C231   C233    1.379   .     A
C231   H274    1.084   .     S
C232   C243    1.400   .     A
C232   H275    1.084   .     S
C232   C235    1.379   .     A
C233   H276    1.084   .     S
C233   C236    1.396   .     A
C234   O287    1.286   .     A
C234   C237    1.438   .     S
C234   O289    1.285   .     A
C235   C237    1.396   .     A
C235   H277    1.084   .     S
C236   C238    1.399   .     A
C237   C239    1.399   .     A
C238   H278    1.084   .     S
C238   C240    1.386   .     A
C239   C241    1.386   .     A
C239   H279    1.084   .     S
C240   C242    1.408   .     A
C240   O294    1.383   .     S
C241   C243    1.408   .     A
C241   O284    1.383   .     S
C243   C20     1.446   1_565 S
C244   H261    1.109   .     S
C244   H260    1.114   .     S
C244   O294    1.409   .     S
C245   C250    1.407   .     A
C245   H280    1.082   .     S
C246   H264    1.109   .     S
C246   H263    1.114   .     S
C246   O284    1.409   .     S
C246   H40     1.111   1_565 S
C247   H269    1.112   .     S
C247   O285    1.410   .     S
C247   H270    1.108   .     S
C247   H268    1.114   .     S
C248   H272    1.113   .     S
C248   H273    1.109   .     S
C248   H271    1.114   .     S
C248   O286    1.409   .     S
C249   C251    1.406   .     A
C249   H256    1.083   .     S
C250   H257    1.081   .     S
C250   N281    1.364   .     A
C251   N282    1.362   .     A
C251   H258    1.082   .     S
C252   N281    1.364   .     A
C252   C254    1.415   .     A
C252   H265    1.079   .     S
C253   N282    1.363   .     A
C253   H267    1.082   .     S
C254   O285    1.383   .     S
H255   C303    1.087   .     S
H259   C22     1.111   1_565 S
H266   C378    1.088   1_455 S
N281   Zn296   2.003   .     S
N282   Zn295   2.003   .     S
O283   Zn295   1.994   .     S
O287   Zn296   1.994   .     S
O288   Zn296   1.995   .     S
O289   Zn295   1.995   .     S
O290   Zn295   1.970   .     S
O291   Zn296   1.970   .     S
O292   Zn296   1.981   .     S
O293   Zn295   1.981   .     S
C297   O362    1.285   .     A
C297   C310    1.437   .     S
C297   O357    1.285   .     A
C298   C300    1.415   .     A
C298   O360    1.381   .     S
C298   C327    1.413   .     A
C299   C319    1.407   .     A
C299   C328    1.413   .     A
C299   C744    1.510   1_554 S
C300   C323    1.408   .     A
C300   C743    1.510   .     S
C301   O366    1.278   .     A
C301   C303    1.401   .     S
C301   O364    1.275   .     A
C302   O365    1.275   .     A
C302   O367    1.278   .     A
C302   C304    1.402   .     S
C304   C377    1.329   .     S
C304   H414    1.088   .     S
C305   C316    1.400   .     A
C305   C307    1.379   .     A
C305   H348    1.084   .     S
C306   C317    1.400   .     A
C306   H349    1.084   .     S
C306   C309    1.379   .     A
C307   H350    1.084   .     S
C307   C310    1.396   .     A
C308   O361    1.286   .     A
C308   C311    1.438   .     S
C308   O363    1.285   .     A
C309   C311    1.396   .     A
C309   H351    1.084   .     S
C310   C312    1.399   .     A
C311   C313    1.399   .     A
C312   H352    1.084   .     S
C312   C314    1.386   .     A
C313   C315    1.386   .     A
C313   H353    1.084   .     S
C314   C316    1.408   .     A
C314   O368    1.383   .     S
C315   C317    1.408   .     A
C315   O358    1.383   .     S
C317   C94     1.446   1_565 S
C318   H335    1.109   .     S
C318   H334    1.114   .     S
C318   O368    1.409   .     S
C319   C324    1.407   .     A
C319   H354    1.082   .     S
C320   H338    1.109   .     S
C320   H337    1.114   .     S
C320   O358    1.409   .     S
C320   H114    1.111   1_565 S
C321   H343    1.112   .     S
C321   O359    1.410   .     S
C321   H344    1.108   .     S
C321   H342    1.114   .     S
C322   H346    1.113   .     S
C322   H347    1.109   .     S
C322   H345    1.114   .     S
C322   O360    1.409   .     S
C323   C325    1.406   .     A
C323   H330    1.083   .     S
C324   H331    1.081   .     S
C324   N355    1.364   .     A
C325   N356    1.362   .     A
C325   H332    1.082   .     S
C326   N355    1.364   .     A
C326   C328    1.415   .     A
C326   H339    1.079   .     S
C327   N356    1.363   .     A
C327   H341    1.082   .     S
C328   O359    1.383   .     S
H329   C377    1.087   .     S
H333   C96     1.111   1_565 S
N355   Zn370   2.003   .     S
N356   Zn369   2.003   .     S
O357   Zn369   1.994   .     S
O361   Zn370   1.994   .     S
O362   Zn370   1.995   .     S
O363   Zn369   1.995   .     S
O364   Zn369   1.970   .     S
O365   Zn370   1.970   .     S
O366   Zn370   1.981   .     S
O367   Zn369   1.981   .     S
C371   O436    1.285   .     A
C371   C384    1.437   .     S
C371   O431    1.285   .     A
C372   C374    1.415   .     A
C372   O434    1.381   .     S
C372   C401    1.413   .     A
C373   C393    1.407   .     A
C373   C402    1.413   .     A
C373   C818    1.510   1_554 S
C374   C397    1.408   .     A
C374   C817    1.510   .     S
C375   O440    1.278   .     A
C375   C377    1.401   .     S
C375   O438    1.275   .     A
C376   O439    1.275   .     A
C376   O441    1.278   .     A
C376   C378    1.402   .     S
C378   C229    1.329   1_655 S
C378   H266    1.088   1_655 S
C379   C390    1.400   .     A
C379   C381    1.379   .     A
C379   H422    1.084   .     S
C380   C391    1.400   .     A
C380   H423    1.084   .     S
C380   C383    1.379   .     A
C381   H424    1.084   .     S
C381   C384    1.396   .     A
C382   O435    1.286   .     A
C382   C385    1.438   .     S
C382   O437    1.285   .     A
C383   C385    1.396   .     A
C383   H425    1.084   .     S
C384   C386    1.399   .     A
C385   C387    1.399   .     A
C386   H426    1.084   .     S
C386   C388    1.386   .     A
C387   C389    1.386   .     A
C387   H427    1.084   .     S
C388   C390    1.408   .     A
C388   O442    1.383   .     S
C389   C391    1.408   .     A
C389   O432    1.383   .     S
C391   C168    1.446   1_565 S
C392   H409    1.109   .     S
C392   H408    1.114   .     S
C392   O442    1.409   .     S
C393   C398    1.407   .     A
C393   H428    1.082   .     S
C394   H412    1.109   .     S
C394   H411    1.114   .     S
C394   O432    1.409   .     S
C394   H188    1.111   1_565 S
C395   H417    1.112   .     S
C395   O433    1.410   .     S
C395   H418    1.108   .     S
C395   H416    1.114   .     S
C396   H420    1.113   .     S
C396   H421    1.109   .     S
C396   H419    1.114   .     S
C396   O434    1.409   .     S
C397   C399    1.406   .     A
C397   H404    1.083   .     S
C398   H405    1.081   .     S
C398   N429    1.364   .     A
C399   N430    1.362   .     A
C399   H406    1.082   .     S
C400   N429    1.364   .     A
C400   C402    1.415   .     A
C400   H413    1.079   .     S
C401   N430    1.363   .     A
C401   H415    1.082   .     S
C402   O433    1.383   .     S
H403   C229    1.087   1_655 S
H407   C170    1.111   1_565 S
N429   Zn444   2.003   .     S
N430   Zn443   2.003   .     S
O431   Zn443   1.994   .     S
O435   Zn444   1.994   .     S
O436   Zn444   1.995   .     S
O437   Zn443   1.995   .     S
O438   Zn443   1.970   .     S
O439   Zn444   1.970   .     S
O440   Zn444   1.981   .     S
O441   Zn443   1.981   .     S
C445   O510    1.285   .     A
C445   C458    1.437   .     S
C445   O505    1.285   .     A
C446   C448    1.415   .     A
C446   O508    1.381   .     S
C446   C475    1.413   .     A
C447   C467    1.407   .     A
C447   C476    1.413   .     A
C448   C471    1.408   .     A
C448   C3      1.510   1_556 S
C449   O514    1.278   .     A
C449   C451    1.401   .     S
C449   O512    1.275   .     A
C450   O513    1.275   .     A
C450   O515    1.278   .     A
C450   C452    1.402   .     S
C451   C600    1.329   1_455 S
C451   H625    1.087   1_455 S
C452   C525    1.329   .     S
C452   H562    1.088   .     S
C453   C464    1.400   .     A
C453   C455    1.379   .     A
C453   H496    1.084   .     S
C454   C465    1.400   .     A
C454   H497    1.084   .     S
C454   C457    1.379   .     A
C455   H498    1.084   .     S
C455   C458    1.396   .     A
C456   O509    1.286   .     A
C456   C459    1.438   .     S
C456   O511    1.285   .     A
C457   C459    1.396   .     A
C457   H499    1.084   .     S
C458   C460    1.399   .     A
C459   C461    1.399   .     A
C460   H500    1.084   .     S
C460   C462    1.386   .     A
C461   C463    1.386   .     A
C461   H501    1.084   .     S
C462   C464    1.408   .     A
C462   O516    1.383   .     S
C463   C465    1.408   .     A
C463   O506    1.383   .     S
C464   C687    1.446   1_545 S
C465   C686    1.446   .     S
C466   H483    1.109   .     S
C466   H482    1.114   .     S
C466   O516    1.409   .     S
C466   H703    1.111   1_545 S
C467   C472    1.407   .     A
C467   H502    1.082   .     S
C468   H486    1.109   .     S
C468   H485    1.114   .     S
C468   O506    1.409   .     S
C468   H706    1.111   .     S
C469   H491    1.112   .     S
C469   O507    1.410   .     S
C469   H492    1.108   .     S
C469   H490    1.114   .     S
C470   H494    1.113   .     S
C470   H495    1.109   .     S
C470   H493    1.114   .     S
C470   O508    1.409   .     S
C471   C473    1.406   .     A
C471   H478    1.083   .     S
C472   H479    1.081   .     S
C472   N503    1.364   .     A
C473   N504    1.362   .     A
C473   H480    1.082   .     S
C474   N503    1.364   .     A
C474   C476    1.415   .     A
C474   H487    1.079   .     S
C475   N504    1.363   .     A
C475   H489    1.082   .     S
C476   O507    1.383   .     S
H477   C525    1.087   .     S
H481   C688    1.111   .     S
H484   C690    1.111   1_545 S
H488   C600    1.088   1_455 S
N503   Zn518   2.003   .     S
N504   Zn517   2.003   .     S
O505   Zn517   1.994   .     S
O509   Zn518   1.994   .     S
O510   Zn518   1.995   .     S
O511   Zn517   1.995   .     S
O512   Zn517   1.970   .     S
O513   Zn518   1.970   .     S
O514   Zn518   1.981   .     S
O515   Zn517   1.981   .     S
C519   O584    1.285   .     A
C519   C532    1.437   .     S
C519   O579    1.285   .     A
C520   C522    1.415   .     A
C520   O582    1.381   .     S
C520   C549    1.413   .     A
C521   C541    1.407   .     A
C521   C550    1.413   .     A
C522   C545    1.408   .     A
C522   C77     1.510   1_556 S
C523   O588    1.278   .     A
C523   C525    1.401   .     S
C523   O586    1.275   .     A
C524   O587    1.275   .     A
C524   O589    1.278   .     A
C524   C526    1.402   .     S
C526   C599    1.329   .     S
C526   H636    1.088   .     S
C527   C538    1.400   .     A
C527   C529    1.379   .     A
C527   H570    1.084   .     S
C528   C539    1.400   .     A
C528   H571    1.084   .     S
C528   C531    1.379   .     A
C529   H572    1.084   .     S
C529   C532    1.396   .     A
C530   O583    1.286   .     A
C530   C533    1.438   .     S
C530   O585    1.285   .     A
C531   C533    1.396   .     A
C531   H573    1.084   .     S
C532   C534    1.399   .     A
C533   C535    1.399   .     A
C534   H574    1.084   .     S
C534   C536    1.386   .     A
C535   C537    1.386   .     A
C535   H575    1.084   .     S
C536   C538    1.408   .     A
C536   O590    1.383   .     S
C537   C539    1.408   .     A
C537   O580    1.383   .     S
C538   C761    1.446   1_545 S
C539   C760    1.446   .     S
C540   H557    1.109   .     S
C540   H556    1.114   .     S
C540   O590    1.409   .     S
C540   H777    1.111   1_545 S
C541   C546    1.407   .     A
C541   H576    1.082   .     S
C542   H560    1.109   .     S
C542   H559    1.114   .     S
C542   O580    1.409   .     S
C542   H780    1.111   .     S
C543   H565    1.112   .     S
C543   O581    1.410   .     S
C543   H566    1.108   .     S
C543   H564    1.114   .     S
C544   H568    1.113   .     S
C544   H569    1.109   .     S
C544   H567    1.114   .     S
C544   O582    1.409   .     S
C545   C547    1.406   .     A
C545   H552    1.083   .     S
C546   H553    1.081   .     S
C546   N577    1.364   .     A
C547   N578    1.362   .     A
C547   H554    1.082   .     S
C548   N577    1.364   .     A
C548   C550    1.415   .     A
C548   H561    1.079   .     S
C549   N578    1.363   .     A
C549   H563    1.082   .     S
C550   O581    1.383   .     S
H551   C599    1.087   .     S
H555   C762    1.111   .     S
H558   C764    1.111   1_545 S
N577   Zn592   2.003   .     S
N578   Zn591   2.003   .     S
O579   Zn591   1.994   .     S
O583   Zn592   1.994   .     S
O584   Zn592   1.995   .     S
O585   Zn591   1.995   .     S
O586   Zn591   1.970   .     S
O587   Zn592   1.970   .     S
O588   Zn592   1.981   .     S
O589   Zn591   1.981   .     S
C593   O658    1.285   .     A
C593   C606    1.437   .     S
C593   O653    1.285   .     A
C594   C596    1.415   .     A
C594   O656    1.381   .     S
C594   C623    1.413   .     A
C595   C615    1.407   .     A
C595   C624    1.413   .     A
C596   C619    1.408   .     A
C596   C151    1.510   1_556 S
C597   O662    1.278   .     A
C597   C599    1.401   .     S
C597   O660    1.275   .     A
C598   O661    1.275   .     A
C598   O663    1.278   .     A
C598   C600    1.402   .     S
C600   C451    1.329   1_655 S
C600   H488    1.088   1_655 S
C601   C612    1.400   .     A
C601   C603    1.379   .     A
C601   H644    1.084   .     S
C602   C613    1.400   .     A
C602   H645    1.084   .     S
C602   C605    1.379   .     A
C603   H646    1.084   .     S
C603   C606    1.396   .     A
C604   O657    1.286   .     A
C604   C607    1.438   .     S
C604   O659    1.285   .     A
C605   C607    1.396   .     A
C605   H647    1.084   .     S
C606   C608    1.399   .     A
C607   C609    1.399   .     A
C608   H648    1.084   .     S
C608   C610    1.386   .     A
C609   C611    1.386   .     A
C609   H649    1.084   .     S
C610   C612    1.408   .     A
C610   O664    1.383   .     S
C611   C613    1.408   .     A
C611   O654    1.383   .     S
C612   C835    1.446   1_545 S
C613   C834    1.446   .     S
C614   H631    1.109   .     S
C614   H630    1.114   .     S
C614   O664    1.409   .     S
C614   H851    1.111   1_545 S
C615   C620    1.407   .     A
C615   H650    1.082   .     S
C616   H634    1.109   .     S
C616   H633    1.114   .     S
C616   O654    1.409   .     S
C616   H854    1.111   .     S
C617   H639    1.112   .     S
C617   O655    1.410   .     S
C617   H640    1.108   .     S
C617   H638    1.114   .     S
C618   H642    1.113   .     S
C618   H643    1.109   .     S
C618   H641    1.114   .     S
C618   O656    1.409   .     S
C619   C621    1.406   .     A
C619   H626    1.083   .     S
C620   H627    1.081   .     S
C620   N651    1.364   .     A
C621   N652    1.362   .     A
C621   H628    1.082   .     S
C622   N651    1.364   .     A
C622   C624    1.415   .     A
C622   H635    1.079   .     S
C623   N652    1.363   .     A
C623   H637    1.082   .     S
C624   O655    1.383   .     S
H625   C451    1.087   1_655 S
H629   C836    1.111   .     S
H632   C838    1.111   1_545 S
N651   Zn666   2.003   .     S
N652   Zn665   2.003   .     S
O653   Zn665   1.994   .     S
O657   Zn666   1.994   .     S
O658   Zn666   1.995   .     S
O659   Zn665   1.995   .     S
O660   Zn665   1.970   .     S
O661   Zn666   1.970   .     S
O662   Zn666   1.981   .     S
O663   Zn665   1.981   .     S
C667   O732    1.285   .     A
C667   C680    1.437   .     S
C667   O727    1.285   .     A
C668   C670    1.415   .     A
C668   O730    1.381   .     S
C668   C697    1.413   .     A
C669   C689    1.407   .     A
C669   C698    1.413   .     A
C670   C693    1.408   .     A
C670   C225    1.510   1_556 S
C671   O736    1.278   .     A
C671   C673    1.401   .     S
C671   O734    1.275   .     A
C672   O735    1.275   .     A
C672   O737    1.278   .     A
C672   C674    1.402   .     S
C673   C822    1.329   1_455 S
C673   H847    1.087   1_455 S
C674   C747    1.329   .     S
C674   H784    1.088   .     S
C675   C686    1.400   .     A
C675   C677    1.379   .     A
C675   H718    1.084   .     S
C676   C687    1.400   .     A
C676   H719    1.084   .     S
C676   C679    1.379   .     A
C677   H720    1.084   .     S
C677   C680    1.396   .     A
C678   O731    1.286   .     A
C678   C681    1.438   .     S
C678   O733    1.285   .     A
C679   C681    1.396   .     A
C679   H721    1.084   .     S
C680   C682    1.399   .     A
C681   C683    1.399   .     A
C682   H722    1.084   .     S
C682   C684    1.386   .     A
C683   C685    1.386   .     A
C683   H723    1.084   .     S
C684   C686    1.408   .     A
C684   O738    1.383   .     S
C685   C687    1.408   .     A
C685   O728    1.383   .     S
C687   C464    1.446   1_565 S
C688   H705    1.109   .     S
C688   H704    1.114   .     S
C688   O738    1.409   .     S
C689   C694    1.407   .     A
C689   H724    1.082   .     S
C690   H708    1.109   .     S
C690   H707    1.114   .     S
C690   O728    1.409   .     S
C690   H484    1.111   1_565 S
C691   H713    1.112   .     S
C691   O729    1.410   .     S
C691   H714    1.108   .     S
C691   H712    1.114   .     S
C692   H716    1.113   .     S
C692   H717    1.109   .     S
C692   H715    1.114   .     S
C692   O730    1.409   .     S
C693   C695    1.406   .     A
C693   H700    1.083   .     S
C694   H701    1.081   .     S
C694   N725    1.364   .     A
C695   N726    1.362   .     A
C695   H702    1.082   .     S
C696   N725    1.364   .     A
C696   C698    1.415   .     A
C696   H709    1.079   .     S
C697   N726    1.363   .     A
C697   H711    1.082   .     S
C698   O729    1.383   .     S
H699   C747    1.087   .     S
H703   C466    1.111   1_565 S
H710   C822    1.088   1_455 S
N725   Zn740   2.003   .     S
N726   Zn739   2.003   .     S
O727   Zn739   1.994   .     S
O731   Zn740   1.994   .     S
O732   Zn740   1.995   .     S
O733   Zn739   1.995   .     S
O734   Zn739   1.970   .     S
O735   Zn740   1.970   .     S
O736   Zn740   1.981   .     S
O737   Zn739   1.981   .     S
C741   O806    1.285   .     A
C741   C754    1.437   .     S
C741   O801    1.285   .     A
C742   C744    1.415   .     A
C742   O804    1.381   .     S
C742   C771    1.413   .     A
C743   C763    1.407   .     A
C743   C772    1.413   .     A
C744   C767    1.408   .     A
C744   C299    1.510   1_556 S
C745   O810    1.278   .     A
C745   C747    1.401   .     S
C745   O808    1.275   .     A
C746   O809    1.275   .     A
C746   O811    1.278   .     A
C746   C748    1.402   .     S
C748   C821    1.329   .     S
C748   H858    1.088   .     S
C749   C760    1.400   .     A
C749   C751    1.379   .     A
C749   H792    1.084   .     S
C750   C761    1.400   .     A
C750   H793    1.084   .     S
C750   C753    1.379   .     A
C751   H794    1.084   .     S
C751   C754    1.396   .     A
C752   O805    1.286   .     A
C752   C755    1.438   .     S
C752   O807    1.285   .     A
C753   C755    1.396   .     A
C753   H795    1.084   .     S
C754   C756    1.399   .     A
C755   C757    1.399   .     A
C756   H796    1.084   .     S
C756   C758    1.386   .     A
C757   C759    1.386   .     A
C757   H797    1.084   .     S
C758   C760    1.408   .     A
C758   O812    1.383   .     S
C759   C761    1.408   .     A
C759   O802    1.383   .     S
C761   C538    1.446   1_565 S
C762   H779    1.109   .     S
C762   H778    1.114   .     S
C762   O812    1.409   .     S
C763   C768    1.407   .     A
C763   H798    1.082   .     S
C764   H782    1.109   .     S
C764   H781    1.114   .     S
C764   O802    1.409   .     S
C764   H558    1.111   1_565 S
C765   H787    1.112   .     S
C765   O803    1.410   .     S
C765   H788    1.108   .     S
C765   H786    1.114   .     S
C766   H790    1.113   .     S
C766   H791    1.109   .     S
C766   H789    1.114   .     S
C766   O804    1.409   .     S
C767   C769    1.406   .     A
C767   H774    1.083   .     S
C768   H775    1.081   .     S
C768   N799    1.364   .     A
C769   N800    1.362   .     A
C769   H776    1.082   .     S
C770   N799    1.364   .     A
C770   C772    1.415   .     A
C770   H783    1.079   .     S
C771   N800    1.363   .     A
C771   H785    1.082   .     S
C772   O803    1.383   .     S
H773   C821    1.087   .     S
H777   C540    1.111   1_565 S
N799   Zn814   2.003   .     S
N800   Zn813   2.003   .     S
O801   Zn813   1.994   .     S
O805   Zn814   1.994   .     S
O806   Zn814   1.995   .     S
O807   Zn813   1.995   .     S
O808   Zn813   1.970   .     S
O809   Zn814   1.970   .     S
O810   Zn814   1.981   .     S
O811   Zn813   1.981   .     S
C815   O880    1.285   .     A
C815   C828    1.437   .     S
C815   O875    1.285   .     A
C816   C818    1.415   .     A
C816   O878    1.381   .     S
C816   C845    1.413   .     A
C817   C837    1.407   .     A
C817   C846    1.413   .     A
C818   C841    1.408   .     A
C818   C373    1.510   1_556 S
C819   O884    1.278   .     A
C819   C821    1.401   .     S
C819   O882    1.275   .     A
C820   O883    1.275   .     A
C820   O885    1.278   .     A
C820   C822    1.402   .     S
C822   C673    1.329   1_655 S
C822   H710    1.088   1_655 S
C823   C834    1.400   .     A
C823   C825    1.379   .     A
C823   H866    1.084   .     S
C824   C835    1.400   .     A
C824   H867    1.084   .     S
C824   C827    1.379   .     A
C825   H868    1.084   .     S
C825   C828    1.396   .     A
C826   O879    1.286   .     A
C826   C829    1.438   .     S
C826   O881    1.285   .     A
C827   C829    1.396   .     A
C827   H869    1.084   .     S
C828   C830    1.399   .     A
C829   C831    1.399   .     A
C830   H870    1.084   .     S
C830   C832    1.386   .     A
C831   C833    1.386   .     A
C831   H871    1.084   .     S
C832   C834    1.408   .     A
C832   O886    1.383   .     S
C833   C835    1.408   .     A
C833   O876    1.383   .     S
C835   C612    1.446   1_565 S
C836   H853    1.109   .     S
C836   H852    1.114   .     S
C836   O886    1.409   .     S
C837   C842    1.407   .     A
C837   H872    1.082   .     S
C838   H856    1.109   .     S
C838   H855    1.114   .     S
C838   O876    1.409   .     S
C838   H632    1.111   1_565 S
C839   H861    1.112   .     S
C839   O877    1.410   .     S
C839   H862    1.108   .     S
C839   H860    1.114   .     S
C840   H864    1.113   .     S
C840   H865    1.109   .     S
C840   H863    1.114   .     S
C840   O878    1.409   .     S
C841   C843    1.406   .     A
C841   H848    1.083   .     S
C842   H849    1.081   .     S
C842   N873    1.364   .     A
C843   N874    1.362   .     A
C843   H850    1.082   .     S
C844   N873    1.364   .     A
C844   C846    1.415   .     A
C844   H857    1.079   .     S
C845   N874    1.363   .     A
C845   H859    1.082   .     S
C846   O877    1.383   .     S
H847   C673    1.087   1_655 S
H851   C614    1.111   1_565 S
N873   Zn888   2.003   .     S
N874   Zn887   2.003   .     S
O875   Zn887   1.994   .     S
O879   Zn888   1.994   .     S
O880   Zn888   1.995   .     S
O881   Zn887   1.995   .     S
O882   Zn887   1.970   .     S
O883   Zn888   1.970   .     S
O884   Zn888   1.981   .     S
O885   Zn887   1.981   .     S
