data_str_m3_o1_o1_pcu_sym.90
_audit_creation_date              2020-01-03
_audit_creation_method            'Materials Studio'
_symmetry_space_group_name_H-M    'P1'
_symmetry_Int_Tables_number       1
_symmetry_cell_setting            triclinic
loop_
_symmetry_equiv_pos_as_xyz
  x,y,z
_cell_length_a                    31.0938
_cell_length_b                    29.3617
_cell_length_c                    29.6534
_cell_angle_alpha                 90.5980
_cell_angle_beta                  90.3106
_cell_angle_gamma                 89.7055
loop_
_atom_site_label
_atom_site_type_symbol
_atom_site_fract_x
_atom_site_fract_y
_atom_site_fract_z
_atom_site_U_iso_or_equiv
_atom_site_adp_type
_atom_site_occupancy
O1     O     0.04581   0.20419   0.20487   0.00000  Uiso   1.00
O2     O     0.45420   0.29581   0.12846   0.00000  Uiso   1.00
O3     O     0.45420   0.29581   0.20487   0.00000  Uiso   1.00
O4     O     0.04581   0.20419   0.12846   0.00000  Uiso   1.00
O5     O     0.45420   0.20419   0.12846   0.00000  Uiso   1.00
O6     O     0.04581   0.29581   0.20487   0.00000  Uiso   1.00
O7     O     0.04581   0.29581   0.12846   0.00000  Uiso   1.00
O8     O     0.45420   0.20419   0.20487   0.00000  Uiso   1.00
O9     O     0.29581   0.45419   0.20487   0.00000  Uiso   1.00
O10    O     0.20420   0.04581   0.12846   0.00000  Uiso   1.00
O11    O     0.20420   0.04581   0.20487   0.00000  Uiso   1.00
O12    O     0.29581   0.45419   0.12846   0.00000  Uiso   1.00
O13    O     0.20420   0.45419   0.12846   0.00000  Uiso   1.00
O14    O     0.29581   0.04581   0.20487   0.00000  Uiso   1.00
O15    O     0.29581   0.04581   0.12846   0.00000  Uiso   1.00
O16    O     0.20420   0.45419   0.20487   0.00000  Uiso   1.00
C17    C     0.06326   0.19346   0.16663   0.00000  Uiso   1.00
C18    C     0.43673   0.30631   0.16668   0.00000  Uiso   1.00
C19    C     0.43648   0.19425   0.16655   0.00000  Uiso   1.00
C20    C     0.06368   0.30520   0.16688   0.00000  Uiso   1.00
C21    C     0.31338   0.44391   0.16670   0.00000  Uiso   1.00
C22    C     0.18617   0.05540   0.16672   0.00000  Uiso   1.00
C23    C     0.18851   0.44110   0.16629   0.00000  Uiso   1.00
C24    C     0.31277   0.05716   0.16680   0.00000  Uiso   1.00
N25    N     0.00000   0.25000   0.28573   0.00000  Uiso   1.00
N26    N     0.00000   0.25000   0.04760   0.00000  Uiso   1.00
N27    N     0.25000  -0.00000   0.28573   0.00000  Uiso   1.00
N28    N     0.25000  -0.00000   0.04760   0.00000  Uiso   1.00
Zn29   Zn    0.00000   0.25000   0.21771   0.00000  Uiso   1.00
Zn30   Zn    0.00000   0.25000   0.11563   0.00000  Uiso   1.00
Zn31   Zn    0.25000  -0.00000   0.21771   0.00000  Uiso   1.00
Zn32   Zn    0.25000  -0.00000   0.11563   0.00000  Uiso   1.00
C33    C     0.00005   0.29012   0.02444   0.00000  Uiso   1.00
C34    C     0.49970   0.20988   0.30893   0.00000  Uiso   1.00
C35    C     0.00009   0.20987   0.02352   0.00000  Uiso   1.00
C36    C     0.49957   0.29015   0.30984   0.00000  Uiso   1.00
C37    C     0.24697   0.04003   0.02441   0.00000  Uiso   1.00
C38    C     0.25147   0.45999   0.30880   0.00000  Uiso   1.00
C39    C     0.25496   0.46004   0.02317   0.00000  Uiso   1.00
C40    C     0.24752   0.04008   0.30981   0.00000  Uiso   1.00
C41    C     0.38312   0.14802   0.12531   0.00000  Uiso   1.00
C42    C     0.11750   0.35098   0.20779   0.00000  Uiso   1.00
C43    C     0.12060   0.34413   0.12573   0.00000  Uiso   1.00
C44    C     0.38337   0.14894   0.20770   0.00000  Uiso   1.00
C45    C     0.11530   0.14560   0.20779   0.00000  Uiso   1.00
C46    C     0.38423   0.35351   0.12571   0.00000  Uiso   1.00
C47    C     0.38540   0.35431   0.20814   0.00000  Uiso   1.00
C48    C     0.11337   0.14309   0.12534   0.00000  Uiso   1.00
C49    C     0.14689   0.38255   0.12459   0.00000  Uiso   1.00
C50    C     0.36363   0.10713   0.20790   0.00000  Uiso   1.00
C51    C     0.36259   0.10611   0.12536   0.00000  Uiso   1.00
C52    C     0.13743   0.39249   0.20634   0.00000  Uiso   1.00
C53    C     0.36523   0.39656   0.20824   0.00000  Uiso   1.00
C54    C     0.13179   0.10033   0.12586   0.00000  Uiso   1.00
C55    C     0.13388   0.10292   0.20810   0.00000  Uiso   1.00
C56    C     0.36515   0.39580   0.12570   0.00000  Uiso   1.00
C57    C     0.10284   0.33149   0.16712   0.00000  Uiso   1.00
C58    C     0.39831   0.16611   0.16649   0.00000  Uiso   1.00
C59    C     0.39951   0.33600   0.16684   0.00000  Uiso   1.00
C60    C     0.10034   0.16323   0.16649   0.00000  Uiso   1.00
C61    C     0.34879   0.08838   0.16677   0.00000  Uiso   1.00
C62    C     0.15522   0.40682   0.16523   0.00000  Uiso   1.00
C63    C     0.14764   0.08350   0.16700   0.00000  Uiso   1.00
C64    C     0.35083   0.41453   0.16687   0.00000  Uiso   1.00
N65    N     0.00178   0.33259   0.04839   0.00000  Uiso   1.00
O66    O     0.46612   0.35385   0.05754   0.00000  Uiso   1.00
O67    O     0.03700   0.35613   0.04726   0.00000  Uiso   1.00
N68    N     0.49720   0.16741   0.28508   0.00000  Uiso   1.00
O69    O     0.03254   0.14616   0.27465   0.00000  Uiso   1.00
O70    O     0.46207   0.14381   0.28769   0.00000  Uiso   1.00
N71    N     0.00147   0.16729   0.04643   0.00000  Uiso   1.00
O72    O     0.46552   0.14780   0.05677   0.00000  Uiso   1.00
O73    O     0.03554   0.14181   0.04236   0.00000  Uiso   1.00
N74    N     0.49714   0.33274   0.28700   0.00000  Uiso   1.00
O75    O     0.03255   0.35287   0.27593   0.00000  Uiso   1.00
O76    O     0.46278   0.35766   0.29176   0.00000  Uiso   1.00
N77    N     0.24657   0.08259   0.04827   0.00000  Uiso   1.00
O78    O     0.20999   0.10277   0.05556   0.00000  Uiso   1.00
O79    O     0.28099   0.10746   0.04790   0.00000  Uiso   1.00
N80    N     0.24512   0.41753   0.28556   0.00000  Uiso   1.00
O81    O     0.27762   0.39670   0.26720   0.00000  Uiso   1.00
O82    O     0.21137   0.39366   0.29528   0.00000  Uiso   1.00
N83    N     0.26876   0.41854   0.04429   0.00000  Uiso   1.00
O84    O     0.24800   0.40160   0.07786   0.00000  Uiso   1.00
O85    O     0.29843   0.39361   0.02533   0.00000  Uiso   1.00
N86    N     0.24405   0.08256   0.28685   0.00000  Uiso   1.00
O87    O     0.27889   0.10278   0.27417   0.00000  Uiso   1.00
O88    O     0.20956   0.10715   0.29223   0.00000  Uiso   1.00
O89    O     0.38618   0.17117   0.08517   0.00000  Uiso   1.00
H90    H     0.38563   0.20429   0.09203   0.00000  Uiso   1.00
O91    O     0.11155   0.33138   0.24932   0.00000  Uiso   1.00
H92    H     0.11204   0.29784   0.24501   0.00000  Uiso   1.00
O93    O     0.11217   0.31794   0.08761   0.00000  Uiso   1.00
H94    H     0.11501   0.33651   0.06020   0.00000  Uiso   1.00
O95    O     0.38794   0.17183   0.24828   0.00000  Uiso   1.00
H96    H     0.38680   0.20496   0.24219   0.00000  Uiso   1.00
O97    O     0.11232   0.16902   0.24824   0.00000  Uiso   1.00
H98    H     0.11392   0.20204   0.24182   0.00000  Uiso   1.00
O99    O     0.38749   0.33038   0.08513   0.00000  Uiso   1.00
H100   H     0.38621   0.29730   0.09135   0.00000  Uiso   1.00
O101   O     0.39195   0.33039   0.24756   0.00000  Uiso   1.00
H102   H     0.37563   0.34491   0.27251   0.00000  Uiso   1.00
O103   O     0.10890   0.16424   0.08430   0.00000  Uiso   1.00
H104   H     0.11191   0.19751   0.08943   0.00000  Uiso   1.00
O105   O     0.16289   0.39780   0.08420   0.00000  Uiso   1.00
H106   H     0.17306   0.37112   0.06644   0.00000  Uiso   1.00
O107   O     0.35987   0.08546   0.24871   0.00000  Uiso   1.00
H108   H     0.36262   0.05223   0.24305   0.00000  Uiso   1.00
O109   O     0.35573   0.08186   0.08573   0.00000  Uiso   1.00
H110   H     0.37156   0.09608   0.06067   0.00000  Uiso   1.00
O111   O     0.13919   0.41786   0.24569   0.00000  Uiso   1.00
H112   H     0.13511   0.45029   0.23761   0.00000  Uiso   1.00
O113   O     0.36155   0.42003   0.24865   0.00000  Uiso   1.00
H114   H     0.36351   0.45305   0.24232   0.00000  Uiso   1.00
O115   O     0.13406   0.07617   0.08578   0.00000  Uiso   1.00
H116   H     0.13476   0.04323   0.09285   0.00000  Uiso   1.00
O117   O     0.13823   0.08129   0.24893   0.00000  Uiso   1.00
H118   H     0.13712   0.04797   0.24325   0.00000  Uiso   1.00
O119   O     0.36081   0.41770   0.08503   0.00000  Uiso   1.00
H120   H     0.36296   0.45093   0.09089   0.00000  Uiso   1.00
O121   O     0.54581   0.20419   0.20487   0.00000  Uiso   1.00
O122   O     0.95420   0.29581   0.12846   0.00000  Uiso   1.00
O123   O     0.95420   0.29581   0.20487   0.00000  Uiso   1.00
O124   O     0.54581   0.20419   0.12846   0.00000  Uiso   1.00
O125   O     0.95420   0.20419   0.12846   0.00000  Uiso   1.00
O126   O     0.54581   0.29581   0.20487   0.00000  Uiso   1.00
O127   O     0.54581   0.29581   0.12846   0.00000  Uiso   1.00
O128   O     0.95420   0.20419   0.20487   0.00000  Uiso   1.00
O129   O     0.79581   0.45419   0.20487   0.00000  Uiso   1.00
O130   O     0.70420   0.04581   0.12846   0.00000  Uiso   1.00
O131   O     0.70420   0.04581   0.20487   0.00000  Uiso   1.00
O132   O     0.79581   0.45419   0.12846   0.00000  Uiso   1.00
O133   O     0.70420   0.45419   0.12846   0.00000  Uiso   1.00
O134   O     0.79581   0.04581   0.20487   0.00000  Uiso   1.00
O135   O     0.79581   0.04581   0.12846   0.00000  Uiso   1.00
O136   O     0.70420   0.45419   0.20487   0.00000  Uiso   1.00
C137   C     0.56326   0.19346   0.16663   0.00000  Uiso   1.00
C138   C     0.93673   0.30631   0.16668   0.00000  Uiso   1.00
C139   C     0.93648   0.19425   0.16655   0.00000  Uiso   1.00
C140   C     0.56368   0.30520   0.16688   0.00000  Uiso   1.00
C141   C     0.81338   0.44391   0.16670   0.00000  Uiso   1.00
C142   C     0.68617   0.05540   0.16672   0.00000  Uiso   1.00
C143   C     0.68851   0.44110   0.16629   0.00000  Uiso   1.00
C144   C     0.81277   0.05716   0.16680   0.00000  Uiso   1.00
N145   N     0.50000   0.25000   0.28573   0.00000  Uiso   1.00
N146   N     0.50000   0.25000   0.04760   0.00000  Uiso   1.00
N147   N     0.75000  -0.00000   0.28573   0.00000  Uiso   1.00
N148   N     0.75000  -0.00000   0.04760   0.00000  Uiso   1.00
Zn149  Zn    0.50000   0.25000   0.21771   0.00000  Uiso   1.00
Zn150  Zn    0.50000   0.25000   0.11563   0.00000  Uiso   1.00
Zn151  Zn    0.75000  -0.00000   0.21771   0.00000  Uiso   1.00
Zn152  Zn    0.75000  -0.00000   0.11563   0.00000  Uiso   1.00
C153   C     0.50005   0.29012   0.02444   0.00000  Uiso   1.00
C154   C     0.99970   0.20988   0.30893   0.00000  Uiso   1.00
C155   C     0.50009   0.20987   0.02352   0.00000  Uiso   1.00
C156   C     0.99957   0.29015   0.30984   0.00000  Uiso   1.00
C157   C     0.74697   0.04003   0.02441   0.00000  Uiso   1.00
C158   C     0.75147   0.45999   0.30880   0.00000  Uiso   1.00
C159   C     0.75496   0.46004   0.02317   0.00000  Uiso   1.00
C160   C     0.74752   0.04008   0.30981   0.00000  Uiso   1.00
C161   C     0.88312   0.14802   0.12531   0.00000  Uiso   1.00
C162   C     0.61750   0.35098   0.20779   0.00000  Uiso   1.00
C163   C     0.62060   0.34413   0.12573   0.00000  Uiso   1.00
C164   C     0.88337   0.14894   0.20770   0.00000  Uiso   1.00
C165   C     0.61530   0.14560   0.20779   0.00000  Uiso   1.00
C166   C     0.88423   0.35351   0.12571   0.00000  Uiso   1.00
C167   C     0.88540   0.35431   0.20814   0.00000  Uiso   1.00
C168   C     0.61337   0.14309   0.12534   0.00000  Uiso   1.00
C169   C     0.64689   0.38255   0.12459   0.00000  Uiso   1.00
C170   C     0.86363   0.10713   0.20790   0.00000  Uiso   1.00
C171   C     0.86259   0.10611   0.12536   0.00000  Uiso   1.00
C172   C     0.63743   0.39249   0.20634   0.00000  Uiso   1.00
C173   C     0.86523   0.39656   0.20824   0.00000  Uiso   1.00
C174   C     0.63179   0.10033   0.12586   0.00000  Uiso   1.00
C175   C     0.63388   0.10292   0.20810   0.00000  Uiso   1.00
C176   C     0.86515   0.39580   0.12570   0.00000  Uiso   1.00
C177   C     0.60284   0.33149   0.16712   0.00000  Uiso   1.00
C178   C     0.89831   0.16611   0.16649   0.00000  Uiso   1.00
C179   C     0.89951   0.33600   0.16684   0.00000  Uiso   1.00
C180   C     0.60034   0.16323   0.16649   0.00000  Uiso   1.00
C181   C     0.84879   0.08838   0.16677   0.00000  Uiso   1.00
C182   C     0.65522   0.40682   0.16523   0.00000  Uiso   1.00
C183   C     0.64764   0.08350   0.16700   0.00000  Uiso   1.00
C184   C     0.85083   0.41453   0.16687   0.00000  Uiso   1.00
N185   N     0.50178   0.33259   0.04839   0.00000  Uiso   1.00
O186   O     0.96612   0.35385   0.05754   0.00000  Uiso   1.00
O187   O     0.53700   0.35613   0.04726   0.00000  Uiso   1.00
N188   N     0.99720   0.16741   0.28508   0.00000  Uiso   1.00
O189   O     0.53254   0.14616   0.27465   0.00000  Uiso   1.00
O190   O     0.96207   0.14381   0.28769   0.00000  Uiso   1.00
N191   N     0.50147   0.16729   0.04643   0.00000  Uiso   1.00
O192   O     0.96552   0.14780   0.05677   0.00000  Uiso   1.00
O193   O     0.53554   0.14181   0.04236   0.00000  Uiso   1.00
N194   N     0.99714   0.33274   0.28700   0.00000  Uiso   1.00
O195   O     0.53255   0.35287   0.27593   0.00000  Uiso   1.00
O196   O     0.96278   0.35766   0.29176   0.00000  Uiso   1.00
N197   N     0.74657   0.08259   0.04827   0.00000  Uiso   1.00
O198   O     0.70999   0.10277   0.05556   0.00000  Uiso   1.00
O199   O     0.78099   0.10746   0.04790   0.00000  Uiso   1.00
N200   N     0.74512   0.41753   0.28556   0.00000  Uiso   1.00
O201   O     0.77762   0.39670   0.26720   0.00000  Uiso   1.00
O202   O     0.71137   0.39366   0.29528   0.00000  Uiso   1.00
N203   N     0.76876   0.41854   0.04429   0.00000  Uiso   1.00
O204   O     0.74800   0.40160   0.07786   0.00000  Uiso   1.00
O205   O     0.79843   0.39361   0.02533   0.00000  Uiso   1.00
N206   N     0.74405   0.08256   0.28685   0.00000  Uiso   1.00
O207   O     0.77889   0.10278   0.27417   0.00000  Uiso   1.00
O208   O     0.70956   0.10715   0.29223   0.00000  Uiso   1.00
O209   O     0.88618   0.17117   0.08517   0.00000  Uiso   1.00
H210   H     0.88563   0.20429   0.09203   0.00000  Uiso   1.00
O211   O     0.61155   0.33138   0.24932   0.00000  Uiso   1.00
H212   H     0.61204   0.29784   0.24501   0.00000  Uiso   1.00
O213   O     0.61217   0.31794   0.08761   0.00000  Uiso   1.00
H214   H     0.61501   0.33651   0.06020   0.00000  Uiso   1.00
O215   O     0.88794   0.17183   0.24828   0.00000  Uiso   1.00
H216   H     0.88680   0.20496   0.24219   0.00000  Uiso   1.00
O217   O     0.61232   0.16902   0.24824   0.00000  Uiso   1.00
H218   H     0.61392   0.20204   0.24182   0.00000  Uiso   1.00
O219   O     0.88749   0.33038   0.08513   0.00000  Uiso   1.00
H220   H     0.88621   0.29730   0.09135   0.00000  Uiso   1.00
O221   O     0.89195   0.33039   0.24756   0.00000  Uiso   1.00
H222   H     0.87563   0.34491   0.27251   0.00000  Uiso   1.00
O223   O     0.60890   0.16424   0.08430   0.00000  Uiso   1.00
H224   H     0.61191   0.19751   0.08943   0.00000  Uiso   1.00
O225   O     0.66289   0.39780   0.08420   0.00000  Uiso   1.00
H226   H     0.67306   0.37112   0.06644   0.00000  Uiso   1.00
O227   O     0.85987   0.08546   0.24871   0.00000  Uiso   1.00
H228   H     0.86262   0.05223   0.24305   0.00000  Uiso   1.00
O229   O     0.85573   0.08186   0.08573   0.00000  Uiso   1.00
H230   H     0.87156   0.09608   0.06067   0.00000  Uiso   1.00
O231   O     0.63919   0.41786   0.24569   0.00000  Uiso   1.00
H232   H     0.63511   0.45029   0.23761   0.00000  Uiso   1.00
O233   O     0.86155   0.42003   0.24865   0.00000  Uiso   1.00
H234   H     0.86351   0.45305   0.24232   0.00000  Uiso   1.00
O235   O     0.63406   0.07617   0.08578   0.00000  Uiso   1.00
H236   H     0.63476   0.04323   0.09285   0.00000  Uiso   1.00
O237   O     0.63823   0.08129   0.24893   0.00000  Uiso   1.00
H238   H     0.63712   0.04797   0.24325   0.00000  Uiso   1.00
O239   O     0.86081   0.41770   0.08503   0.00000  Uiso   1.00
H240   H     0.86296   0.45093   0.09089   0.00000  Uiso   1.00
O241   O     0.04581   0.70419   0.20487   0.00000  Uiso   1.00
O242   O     0.45420   0.79581   0.12846   0.00000  Uiso   1.00
O243   O     0.45420   0.79581   0.20487   0.00000  Uiso   1.00
O244   O     0.04581   0.70419   0.12846   0.00000  Uiso   1.00
O245   O     0.45420   0.70419   0.12846   0.00000  Uiso   1.00
O246   O     0.04581   0.79581   0.20487   0.00000  Uiso   1.00
O247   O     0.04581   0.79581   0.12846   0.00000  Uiso   1.00
O248   O     0.45420   0.70419   0.20487   0.00000  Uiso   1.00
O249   O     0.29581   0.95419   0.20487   0.00000  Uiso   1.00
O250   O     0.20420   0.54581   0.12846   0.00000  Uiso   1.00
O251   O     0.20420   0.54581   0.20487   0.00000  Uiso   1.00
O252   O     0.29581   0.95419   0.12846   0.00000  Uiso   1.00
O253   O     0.20420   0.95419   0.12846   0.00000  Uiso   1.00
O254   O     0.29581   0.54581   0.20487   0.00000  Uiso   1.00
O255   O     0.29581   0.54581   0.12846   0.00000  Uiso   1.00
O256   O     0.20420   0.95419   0.20487   0.00000  Uiso   1.00
C257   C     0.06326   0.69346   0.16663   0.00000  Uiso   1.00
C258   C     0.43673   0.80631   0.16668   0.00000  Uiso   1.00
C259   C     0.43648   0.69425   0.16655   0.00000  Uiso   1.00
C260   C     0.06368   0.80520   0.16688   0.00000  Uiso   1.00
C261   C     0.31338   0.94391   0.16670   0.00000  Uiso   1.00
C262   C     0.18617   0.55540   0.16672   0.00000  Uiso   1.00
C263   C     0.18851   0.94110   0.16629   0.00000  Uiso   1.00
C264   C     0.31277   0.55716   0.16680   0.00000  Uiso   1.00
N265   N     0.00000   0.75000   0.28573   0.00000  Uiso   1.00
N266   N     0.00000   0.75000   0.04760   0.00000  Uiso   1.00
N267   N     0.25000   0.50000   0.28573   0.00000  Uiso   1.00
N268   N     0.25000   0.50000   0.04760   0.00000  Uiso   1.00
Zn269  Zn    0.00000   0.75000   0.21771   0.00000  Uiso   1.00
Zn270  Zn    0.00000   0.75000   0.11563   0.00000  Uiso   1.00
Zn271  Zn    0.25000   0.50000   0.21771   0.00000  Uiso   1.00
Zn272  Zn    0.25000   0.50000   0.11563   0.00000  Uiso   1.00
C273   C     0.00005   0.79012   0.02444   0.00000  Uiso   1.00
C274   C     0.49970   0.70988   0.30893   0.00000  Uiso   1.00
C275   C     0.00009   0.70987   0.02352   0.00000  Uiso   1.00
C276   C     0.49957   0.79015   0.30984   0.00000  Uiso   1.00
C277   C     0.24697   0.54003   0.02441   0.00000  Uiso   1.00
C278   C     0.25147   0.95999   0.30880   0.00000  Uiso   1.00
C279   C     0.25496   0.96004   0.02317   0.00000  Uiso   1.00
C280   C     0.24752   0.54008   0.30981   0.00000  Uiso   1.00
C281   C     0.38312   0.64802   0.12531   0.00000  Uiso   1.00
C282   C     0.11750   0.85098   0.20779   0.00000  Uiso   1.00
C283   C     0.12060   0.84413   0.12573   0.00000  Uiso   1.00
C284   C     0.38337   0.64894   0.20770   0.00000  Uiso   1.00
C285   C     0.11530   0.64560   0.20779   0.00000  Uiso   1.00
C286   C     0.38423   0.85351   0.12571   0.00000  Uiso   1.00
C287   C     0.38540   0.85431   0.20814   0.00000  Uiso   1.00
C288   C     0.11337   0.64309   0.12534   0.00000  Uiso   1.00
C289   C     0.14689   0.88255   0.12459   0.00000  Uiso   1.00
C290   C     0.36363   0.60713   0.20790   0.00000  Uiso   1.00
C291   C     0.36259   0.60611   0.12536   0.00000  Uiso   1.00
C292   C     0.13743   0.89249   0.20634   0.00000  Uiso   1.00
C293   C     0.36523   0.89656   0.20824   0.00000  Uiso   1.00
C294   C     0.13179   0.60033   0.12586   0.00000  Uiso   1.00
C295   C     0.13388   0.60292   0.20810   0.00000  Uiso   1.00
C296   C     0.36515   0.89580   0.12570   0.00000  Uiso   1.00
C297   C     0.10284   0.83149   0.16712   0.00000  Uiso   1.00
C298   C     0.39831   0.66611   0.16649   0.00000  Uiso   1.00
C299   C     0.39951   0.83600   0.16684   0.00000  Uiso   1.00
C300   C     0.10034   0.66323   0.16649   0.00000  Uiso   1.00
C301   C     0.34879   0.58838   0.16677   0.00000  Uiso   1.00
C302   C     0.15522   0.90682   0.16523   0.00000  Uiso   1.00
C303   C     0.14764   0.58350   0.16700   0.00000  Uiso   1.00
C304   C     0.35083   0.91453   0.16687   0.00000  Uiso   1.00
N305   N     0.00178   0.83259   0.04839   0.00000  Uiso   1.00
O306   O     0.46612   0.85385   0.05754   0.00000  Uiso   1.00
O307   O     0.03700   0.85613   0.04726   0.00000  Uiso   1.00
N308   N     0.49720   0.66741   0.28508   0.00000  Uiso   1.00
O309   O     0.03254   0.64616   0.27465   0.00000  Uiso   1.00
O310   O     0.46207   0.64381   0.28769   0.00000  Uiso   1.00
N311   N     0.00147   0.66729   0.04643   0.00000  Uiso   1.00
O312   O     0.46552   0.64780   0.05677   0.00000  Uiso   1.00
O313   O     0.03554   0.64181   0.04236   0.00000  Uiso   1.00
N314   N     0.49714   0.83274   0.28700   0.00000  Uiso   1.00
O315   O     0.03255   0.85287   0.27593   0.00000  Uiso   1.00
O316   O     0.46278   0.85766   0.29176   0.00000  Uiso   1.00
N317   N     0.24657   0.58259   0.04827   0.00000  Uiso   1.00
O318   O     0.20999   0.60277   0.05556   0.00000  Uiso   1.00
O319   O     0.28099   0.60746   0.04790   0.00000  Uiso   1.00
N320   N     0.24512   0.91753   0.28556   0.00000  Uiso   1.00
O321   O     0.27762   0.89670   0.26720   0.00000  Uiso   1.00
O322   O     0.21137   0.89366   0.29528   0.00000  Uiso   1.00
N323   N     0.26876   0.91854   0.04429   0.00000  Uiso   1.00
O324   O     0.24800   0.90160   0.07786   0.00000  Uiso   1.00
O325   O     0.29843   0.89361   0.02533   0.00000  Uiso   1.00
N326   N     0.24405   0.58256   0.28685   0.00000  Uiso   1.00
O327   O     0.27889   0.60278   0.27417   0.00000  Uiso   1.00
O328   O     0.20956   0.60715   0.29223   0.00000  Uiso   1.00
O329   O     0.38618   0.67117   0.08517   0.00000  Uiso   1.00
H330   H     0.38563   0.70429   0.09203   0.00000  Uiso   1.00
O331   O     0.11155   0.83138   0.24932   0.00000  Uiso   1.00
H332   H     0.11204   0.79784   0.24501   0.00000  Uiso   1.00
O333   O     0.11217   0.81794   0.08761   0.00000  Uiso   1.00
H334   H     0.11501   0.83651   0.06020   0.00000  Uiso   1.00
O335   O     0.38794   0.67183   0.24828   0.00000  Uiso   1.00
H336   H     0.38680   0.70496   0.24219   0.00000  Uiso   1.00
O337   O     0.11232   0.66902   0.24824   0.00000  Uiso   1.00
H338   H     0.11392   0.70204   0.24182   0.00000  Uiso   1.00
O339   O     0.38749   0.83038   0.08513   0.00000  Uiso   1.00
H340   H     0.38621   0.79730   0.09135   0.00000  Uiso   1.00
O341   O     0.39195   0.83039   0.24756   0.00000  Uiso   1.00
H342   H     0.37563   0.84491   0.27251   0.00000  Uiso   1.00
O343   O     0.10890   0.66424   0.08430   0.00000  Uiso   1.00
H344   H     0.11191   0.69751   0.08943   0.00000  Uiso   1.00
O345   O     0.16289   0.89780   0.08420   0.00000  Uiso   1.00
H346   H     0.17306   0.87112   0.06644   0.00000  Uiso   1.00
O347   O     0.35987   0.58546   0.24871   0.00000  Uiso   1.00
H348   H     0.36262   0.55223   0.24305   0.00000  Uiso   1.00
O349   O     0.35573   0.58186   0.08573   0.00000  Uiso   1.00
H350   H     0.37156   0.59608   0.06067   0.00000  Uiso   1.00
O351   O     0.13919   0.91786   0.24569   0.00000  Uiso   1.00
H352   H     0.13511   0.95029   0.23761   0.00000  Uiso   1.00
O353   O     0.36155   0.92003   0.24865   0.00000  Uiso   1.00
H354   H     0.36351   0.95305   0.24232   0.00000  Uiso   1.00
O355   O     0.13406   0.57617   0.08578   0.00000  Uiso   1.00
H356   H     0.13476   0.54323   0.09285   0.00000  Uiso   1.00
O357   O     0.13823   0.58129   0.24893   0.00000  Uiso   1.00
H358   H     0.13712   0.54797   0.24325   0.00000  Uiso   1.00
O359   O     0.36081   0.91770   0.08503   0.00000  Uiso   1.00
H360   H     0.36296   0.95093   0.09089   0.00000  Uiso   1.00
O361   O     0.54581   0.70419   0.20487   0.00000  Uiso   1.00
O362   O     0.95420   0.79581   0.12846   0.00000  Uiso   1.00
O363   O     0.95420   0.79581   0.20487   0.00000  Uiso   1.00
O364   O     0.54581   0.70419   0.12846   0.00000  Uiso   1.00
O365   O     0.95420   0.70419   0.12846   0.00000  Uiso   1.00
O366   O     0.54581   0.79581   0.20487   0.00000  Uiso   1.00
O367   O     0.54581   0.79581   0.12846   0.00000  Uiso   1.00
O368   O     0.95420   0.70419   0.20487   0.00000  Uiso   1.00
O369   O     0.79581   0.95419   0.20487   0.00000  Uiso   1.00
O370   O     0.70420   0.54581   0.12846   0.00000  Uiso   1.00
O371   O     0.70420   0.54581   0.20487   0.00000  Uiso   1.00
O372   O     0.79581   0.95419   0.12846   0.00000  Uiso   1.00
O373   O     0.70420   0.95419   0.12846   0.00000  Uiso   1.00
O374   O     0.79581   0.54581   0.20487   0.00000  Uiso   1.00
O375   O     0.79581   0.54581   0.12846   0.00000  Uiso   1.00
O376   O     0.70420   0.95419   0.20487   0.00000  Uiso   1.00
C377   C     0.56326   0.69346   0.16663   0.00000  Uiso   1.00
C378   C     0.93673   0.80631   0.16668   0.00000  Uiso   1.00
C379   C     0.93648   0.69425   0.16655   0.00000  Uiso   1.00
C380   C     0.56368   0.80520   0.16688   0.00000  Uiso   1.00
C381   C     0.81338   0.94391   0.16670   0.00000  Uiso   1.00
C382   C     0.68617   0.55540   0.16672   0.00000  Uiso   1.00
C383   C     0.68851   0.94110   0.16629   0.00000  Uiso   1.00
C384   C     0.81277   0.55716   0.16680   0.00000  Uiso   1.00
N385   N     0.50000   0.75000   0.28573   0.00000  Uiso   1.00
N386   N     0.50000   0.75000   0.04760   0.00000  Uiso   1.00
N387   N     0.75000   0.50000   0.28573   0.00000  Uiso   1.00
N388   N     0.75000   0.50000   0.04760   0.00000  Uiso   1.00
Zn389  Zn    0.50000   0.75000   0.21771   0.00000  Uiso   1.00
Zn390  Zn    0.50000   0.75000   0.11563   0.00000  Uiso   1.00
Zn391  Zn    0.75000   0.50000   0.21771   0.00000  Uiso   1.00
Zn392  Zn    0.75000   0.50000   0.11563   0.00000  Uiso   1.00
C393   C     0.50005   0.79012   0.02444   0.00000  Uiso   1.00
C394   C     0.99970   0.70988   0.30893   0.00000  Uiso   1.00
C395   C     0.50009   0.70987   0.02352   0.00000  Uiso   1.00
C396   C     0.99957   0.79015   0.30984   0.00000  Uiso   1.00
C397   C     0.74697   0.54003   0.02441   0.00000  Uiso   1.00
C398   C     0.75147   0.95999   0.30880   0.00000  Uiso   1.00
C399   C     0.75496   0.96004   0.02317   0.00000  Uiso   1.00
C400   C     0.74752   0.54008   0.30981   0.00000  Uiso   1.00
C401   C     0.88312   0.64802   0.12531   0.00000  Uiso   1.00
C402   C     0.61750   0.85098   0.20779   0.00000  Uiso   1.00
C403   C     0.62060   0.84413   0.12573   0.00000  Uiso   1.00
C404   C     0.88337   0.64894   0.20770   0.00000  Uiso   1.00
C405   C     0.61530   0.64560   0.20779   0.00000  Uiso   1.00
C406   C     0.88423   0.85351   0.12571   0.00000  Uiso   1.00
C407   C     0.88540   0.85431   0.20814   0.00000  Uiso   1.00
C408   C     0.61337   0.64309   0.12534   0.00000  Uiso   1.00
C409   C     0.64689   0.88255   0.12459   0.00000  Uiso   1.00
C410   C     0.86363   0.60713   0.20790   0.00000  Uiso   1.00
C411   C     0.86259   0.60611   0.12536   0.00000  Uiso   1.00
C412   C     0.63743   0.89249   0.20634   0.00000  Uiso   1.00
C413   C     0.86523   0.89656   0.20824   0.00000  Uiso   1.00
C414   C     0.63179   0.60033   0.12586   0.00000  Uiso   1.00
C415   C     0.63388   0.60292   0.20810   0.00000  Uiso   1.00
C416   C     0.86515   0.89580   0.12570   0.00000  Uiso   1.00
C417   C     0.60284   0.83149   0.16712   0.00000  Uiso   1.00
C418   C     0.89831   0.66611   0.16649   0.00000  Uiso   1.00
C419   C     0.89951   0.83600   0.16684   0.00000  Uiso   1.00
C420   C     0.60034   0.66323   0.16649   0.00000  Uiso   1.00
C421   C     0.84879   0.58838   0.16677   0.00000  Uiso   1.00
C422   C     0.65522   0.90682   0.16523   0.00000  Uiso   1.00
C423   C     0.64764   0.58350   0.16700   0.00000  Uiso   1.00
C424   C     0.85083   0.91453   0.16687   0.00000  Uiso   1.00
N425   N     0.50178   0.83259   0.04839   0.00000  Uiso   1.00
O426   O     0.96612   0.85385   0.05754   0.00000  Uiso   1.00
O427   O     0.53700   0.85613   0.04726   0.00000  Uiso   1.00
N428   N     0.99720   0.66741   0.28508   0.00000  Uiso   1.00
O429   O     0.53254   0.64616   0.27465   0.00000  Uiso   1.00
O430   O     0.96207   0.64381   0.28769   0.00000  Uiso   1.00
N431   N     0.50147   0.66729   0.04643   0.00000  Uiso   1.00
O432   O     0.96552   0.64780   0.05677   0.00000  Uiso   1.00
O433   O     0.53554   0.64181   0.04236   0.00000  Uiso   1.00
N434   N     0.99714   0.83274   0.28700   0.00000  Uiso   1.00
O435   O     0.53255   0.85287   0.27593   0.00000  Uiso   1.00
O436   O     0.96278   0.85766   0.29176   0.00000  Uiso   1.00
N437   N     0.74657   0.58259   0.04827   0.00000  Uiso   1.00
O438   O     0.70999   0.60277   0.05556   0.00000  Uiso   1.00
O439   O     0.78099   0.60746   0.04790   0.00000  Uiso   1.00
N440   N     0.74512   0.91753   0.28556   0.00000  Uiso   1.00
O441   O     0.77762   0.89670   0.26720   0.00000  Uiso   1.00
O442   O     0.71137   0.89366   0.29528   0.00000  Uiso   1.00
N443   N     0.76876   0.91854   0.04429   0.00000  Uiso   1.00
O444   O     0.74800   0.90160   0.07786   0.00000  Uiso   1.00
O445   O     0.79843   0.89361   0.02533   0.00000  Uiso   1.00
N446   N     0.74405   0.58256   0.28685   0.00000  Uiso   1.00
O447   O     0.77889   0.60278   0.27417   0.00000  Uiso   1.00
O448   O     0.70956   0.60715   0.29223   0.00000  Uiso   1.00
O449   O     0.88618   0.67117   0.08517   0.00000  Uiso   1.00
H450   H     0.88563   0.70429   0.09203   0.00000  Uiso   1.00
O451   O     0.61155   0.83138   0.24932   0.00000  Uiso   1.00
H452   H     0.61204   0.79784   0.24501   0.00000  Uiso   1.00
O453   O     0.61217   0.81794   0.08761   0.00000  Uiso   1.00
H454   H     0.61501   0.83651   0.06020   0.00000  Uiso   1.00
O455   O     0.88794   0.67183   0.24828   0.00000  Uiso   1.00
H456   H     0.88680   0.70496   0.24219   0.00000  Uiso   1.00
O457   O     0.61232   0.66902   0.24824   0.00000  Uiso   1.00
H458   H     0.61392   0.70204   0.24182   0.00000  Uiso   1.00
O459   O     0.88749   0.83038   0.08513   0.00000  Uiso   1.00
H460   H     0.88621   0.79730   0.09135   0.00000  Uiso   1.00
O461   O     0.89195   0.83039   0.24756   0.00000  Uiso   1.00
H462   H     0.87563   0.84491   0.27251   0.00000  Uiso   1.00
O463   O     0.60890   0.66424   0.08430   0.00000  Uiso   1.00
H464   H     0.61191   0.69751   0.08943   0.00000  Uiso   1.00
O465   O     0.66289   0.89780   0.08420   0.00000  Uiso   1.00
H466   H     0.67306   0.87112   0.06644   0.00000  Uiso   1.00
O467   O     0.85987   0.58546   0.24871   0.00000  Uiso   1.00
H468   H     0.86262   0.55223   0.24305   0.00000  Uiso   1.00
O469   O     0.85573   0.58186   0.08573   0.00000  Uiso   1.00
H470   H     0.87156   0.59608   0.06067   0.00000  Uiso   1.00
O471   O     0.63919   0.91786   0.24569   0.00000  Uiso   1.00
H472   H     0.63511   0.95029   0.23761   0.00000  Uiso   1.00
O473   O     0.86155   0.92003   0.24865   0.00000  Uiso   1.00
H474   H     0.86351   0.95305   0.24232   0.00000  Uiso   1.00
O475   O     0.63406   0.57617   0.08578   0.00000  Uiso   1.00
H476   H     0.63476   0.54323   0.09285   0.00000  Uiso   1.00
O477   O     0.63823   0.58129   0.24893   0.00000  Uiso   1.00
H478   H     0.63712   0.54797   0.24325   0.00000  Uiso   1.00
O479   O     0.86081   0.91770   0.08503   0.00000  Uiso   1.00
H480   H     0.86296   0.95093   0.09089   0.00000  Uiso   1.00
O481   O     0.04581   0.20419   0.53821   0.00000  Uiso   1.00
O482   O     0.45420   0.29581   0.46179   0.00000  Uiso   1.00
O483   O     0.45420   0.29581   0.53821   0.00000  Uiso   1.00
O484   O     0.04581   0.20419   0.46179   0.00000  Uiso   1.00
O485   O     0.45420   0.20419   0.46179   0.00000  Uiso   1.00
O486   O     0.04581   0.29581   0.53821   0.00000  Uiso   1.00
O487   O     0.04581   0.29581   0.46179   0.00000  Uiso   1.00
O488   O     0.45420   0.20419   0.53821   0.00000  Uiso   1.00
O489   O     0.29581   0.45419   0.53821   0.00000  Uiso   1.00
O490   O     0.20420   0.04581   0.46179   0.00000  Uiso   1.00
O491   O     0.20420   0.04581   0.53821   0.00000  Uiso   1.00
O492   O     0.29581   0.45419   0.46179   0.00000  Uiso   1.00
O493   O     0.20420   0.45419   0.46179   0.00000  Uiso   1.00
O494   O     0.29581   0.04581   0.53821   0.00000  Uiso   1.00
O495   O     0.29581   0.04581   0.46179   0.00000  Uiso   1.00
O496   O     0.20420   0.45419   0.53821   0.00000  Uiso   1.00
C497   C     0.06326   0.19346   0.49997   0.00000  Uiso   1.00
C498   C     0.43673   0.30631   0.50001   0.00000  Uiso   1.00
C499   C     0.43648   0.19425   0.49988   0.00000  Uiso   1.00
C500   C     0.06368   0.30520   0.50022   0.00000  Uiso   1.00
C501   C     0.31338   0.44391   0.50004   0.00000  Uiso   1.00
C502   C     0.18617   0.05540   0.50005   0.00000  Uiso   1.00
C503   C     0.18851   0.44110   0.49962   0.00000  Uiso   1.00
C504   C     0.31277   0.05716   0.50013   0.00000  Uiso   1.00
N505   N     0.00000   0.25000   0.61907   0.00000  Uiso   1.00
N506   N     0.00000   0.25000   0.38093   0.00000  Uiso   1.00
N507   N     0.25000  -0.00000   0.61907   0.00000  Uiso   1.00
N508   N     0.25000  -0.00000   0.38093   0.00000  Uiso   1.00
Zn509  Zn    0.00000   0.25000   0.55104   0.00000  Uiso   1.00
Zn510  Zn    0.00000   0.25000   0.44896   0.00000  Uiso   1.00
Zn511  Zn    0.25000  -0.00000   0.55104   0.00000  Uiso   1.00
Zn512  Zn    0.25000  -0.00000   0.44896   0.00000  Uiso   1.00
C513   C     0.00005   0.29012   0.35777   0.00000  Uiso   1.00
C514   C     0.49970   0.20988   0.64226   0.00000  Uiso   1.00
C515   C     0.00009   0.20987   0.35686   0.00000  Uiso   1.00
C516   C     0.49957   0.29015   0.64317   0.00000  Uiso   1.00
C517   C     0.24697   0.04003   0.35775   0.00000  Uiso   1.00
C518   C     0.25147   0.45999   0.64213   0.00000  Uiso   1.00
C519   C     0.25496   0.46004   0.35651   0.00000  Uiso   1.00
C520   C     0.24752   0.04008   0.64314   0.00000  Uiso   1.00
C521   C     0.38312   0.14802   0.45865   0.00000  Uiso   1.00
C522   C     0.11750   0.35098   0.54113   0.00000  Uiso   1.00
C523   C     0.12060   0.34413   0.45907   0.00000  Uiso   1.00
C524   C     0.38337   0.14894   0.54103   0.00000  Uiso   1.00
C525   C     0.11530   0.14560   0.54112   0.00000  Uiso   1.00
C526   C     0.38423   0.35351   0.45904   0.00000  Uiso   1.00
C527   C     0.38540   0.35431   0.54148   0.00000  Uiso   1.00
C528   C     0.11337   0.14309   0.45868   0.00000  Uiso   1.00
C529   C     0.14689   0.38255   0.45792   0.00000  Uiso   1.00
C530   C     0.36363   0.10713   0.54124   0.00000  Uiso   1.00
C531   C     0.36259   0.10611   0.45869   0.00000  Uiso   1.00
C532   C     0.13743   0.39249   0.53967   0.00000  Uiso   1.00
C533   C     0.36523   0.39656   0.54157   0.00000  Uiso   1.00
C534   C     0.13179   0.10033   0.45919   0.00000  Uiso   1.00
C535   C     0.13388   0.10292   0.54144   0.00000  Uiso   1.00
C536   C     0.36515   0.39580   0.45903   0.00000  Uiso   1.00
C537   C     0.10284   0.33149   0.50045   0.00000  Uiso   1.00
C538   C     0.39831   0.16611   0.49982   0.00000  Uiso   1.00
C539   C     0.39951   0.33600   0.50018   0.00000  Uiso   1.00
C540   C     0.10034   0.16323   0.49982   0.00000  Uiso   1.00
C541   C     0.34879   0.08838   0.50010   0.00000  Uiso   1.00
C542   C     0.15522   0.40682   0.49856   0.00000  Uiso   1.00
C543   C     0.14764   0.08350   0.50033   0.00000  Uiso   1.00
C544   C     0.35083   0.41453   0.50020   0.00000  Uiso   1.00
N545   N     0.00178   0.33259   0.38172   0.00000  Uiso   1.00
O546   O     0.46612   0.35385   0.39087   0.00000  Uiso   1.00
O547   O     0.03700   0.35613   0.38059   0.00000  Uiso   1.00
N548   N     0.49720   0.16741   0.61841   0.00000  Uiso   1.00
O549   O     0.03254   0.14616   0.60799   0.00000  Uiso   1.00
O550   O     0.46207   0.14381   0.62102   0.00000  Uiso   1.00
N551   N     0.00147   0.16729   0.37977   0.00000  Uiso   1.00
O552   O     0.46552   0.14780   0.39010   0.00000  Uiso   1.00
O553   O     0.03554   0.14181   0.37569   0.00000  Uiso   1.00
N554   N     0.49714   0.33274   0.62033   0.00000  Uiso   1.00
O555   O     0.03255   0.35287   0.60927   0.00000  Uiso   1.00
O556   O     0.46278   0.35766   0.62509   0.00000  Uiso   1.00
N557   N     0.24657   0.08259   0.38160   0.00000  Uiso   1.00
O558   O     0.20999   0.10277   0.38889   0.00000  Uiso   1.00
O559   O     0.28099   0.10746   0.38123   0.00000  Uiso   1.00
N560   N     0.24512   0.41753   0.61889   0.00000  Uiso   1.00
O561   O     0.27762   0.39670   0.60053   0.00000  Uiso   1.00
O562   O     0.21137   0.39366   0.62862   0.00000  Uiso   1.00
N563   N     0.26876   0.41854   0.37763   0.00000  Uiso   1.00
O564   O     0.24800   0.40160   0.41119   0.00000  Uiso   1.00
O565   O     0.29843   0.39361   0.35866   0.00000  Uiso   1.00
N566   N     0.24405   0.08256   0.62019   0.00000  Uiso   1.00
O567   O     0.27889   0.10278   0.60750   0.00000  Uiso   1.00
O568   O     0.20956   0.10715   0.62556   0.00000  Uiso   1.00
O569   O     0.38618   0.17117   0.41851   0.00000  Uiso   1.00
H570   H     0.38563   0.20429   0.42537   0.00000  Uiso   1.00
O571   O     0.11155   0.33138   0.58266   0.00000  Uiso   1.00
H572   H     0.11204   0.29784   0.57834   0.00000  Uiso   1.00
O573   O     0.11217   0.31794   0.42094   0.00000  Uiso   1.00
H574   H     0.11501   0.33651   0.39354   0.00000  Uiso   1.00
O575   O     0.38794   0.17183   0.58162   0.00000  Uiso   1.00
H576   H     0.38680   0.20496   0.57552   0.00000  Uiso   1.00
O577   O     0.11232   0.16902   0.58157   0.00000  Uiso   1.00
H578   H     0.11392   0.20204   0.57515   0.00000  Uiso   1.00
O579   O     0.38749   0.33038   0.41846   0.00000  Uiso   1.00
H580   H     0.38621   0.29730   0.42468   0.00000  Uiso   1.00
O581   O     0.39195   0.33039   0.58089   0.00000  Uiso   1.00
H582   H     0.37563   0.34491   0.60584   0.00000  Uiso   1.00
O583   O     0.10890   0.16424   0.41763   0.00000  Uiso   1.00
H584   H     0.11191   0.19751   0.42277   0.00000  Uiso   1.00
O585   O     0.16289   0.39780   0.41753   0.00000  Uiso   1.00
H586   H     0.17306   0.37112   0.39978   0.00000  Uiso   1.00
O587   O     0.35987   0.08546   0.58204   0.00000  Uiso   1.00
H588   H     0.36262   0.05223   0.57639   0.00000  Uiso   1.00
O589   O     0.35573   0.08186   0.41907   0.00000  Uiso   1.00
H590   H     0.37156   0.09608   0.39401   0.00000  Uiso   1.00
O591   O     0.13919   0.41786   0.57903   0.00000  Uiso   1.00
H592   H     0.13511   0.45029   0.57094   0.00000  Uiso   1.00
O593   O     0.36155   0.42003   0.58199   0.00000  Uiso   1.00
H594   H     0.36351   0.45305   0.57565   0.00000  Uiso   1.00
O595   O     0.13406   0.07617   0.41911   0.00000  Uiso   1.00
H596   H     0.13476   0.04323   0.42619   0.00000  Uiso   1.00
O597   O     0.13823   0.08129   0.58227   0.00000  Uiso   1.00
H598   H     0.13712   0.04797   0.57658   0.00000  Uiso   1.00
O599   O     0.36081   0.41770   0.41837   0.00000  Uiso   1.00
H600   H     0.36296   0.45093   0.42422   0.00000  Uiso   1.00
O601   O     0.54581   0.20419   0.53821   0.00000  Uiso   1.00
O602   O     0.95420   0.29581   0.46179   0.00000  Uiso   1.00
O603   O     0.95420   0.29581   0.53821   0.00000  Uiso   1.00
O604   O     0.54581   0.20419   0.46179   0.00000  Uiso   1.00
O605   O     0.95420   0.20419   0.46179   0.00000  Uiso   1.00
O606   O     0.54581   0.29581   0.53821   0.00000  Uiso   1.00
O607   O     0.54581   0.29581   0.46179   0.00000  Uiso   1.00
O608   O     0.95420   0.20419   0.53821   0.00000  Uiso   1.00
O609   O     0.79581   0.45419   0.53821   0.00000  Uiso   1.00
O610   O     0.70420   0.04581   0.46179   0.00000  Uiso   1.00
O611   O     0.70420   0.04581   0.53821   0.00000  Uiso   1.00
O612   O     0.79581   0.45419   0.46179   0.00000  Uiso   1.00
O613   O     0.70420   0.45419   0.46179   0.00000  Uiso   1.00
O614   O     0.79581   0.04581   0.53821   0.00000  Uiso   1.00
O615   O     0.79581   0.04581   0.46179   0.00000  Uiso   1.00
O616   O     0.70420   0.45419   0.53821   0.00000  Uiso   1.00
C617   C     0.56326   0.19346   0.49997   0.00000  Uiso   1.00
C618   C     0.93673   0.30631   0.50001   0.00000  Uiso   1.00
C619   C     0.93648   0.19425   0.49988   0.00000  Uiso   1.00
C620   C     0.56368   0.30520   0.50022   0.00000  Uiso   1.00
C621   C     0.81338   0.44391   0.50004   0.00000  Uiso   1.00
C622   C     0.68617   0.05540   0.50005   0.00000  Uiso   1.00
C623   C     0.68851   0.44110   0.49962   0.00000  Uiso   1.00
C624   C     0.81277   0.05716   0.50013   0.00000  Uiso   1.00
N625   N     0.50000   0.25000   0.61907   0.00000  Uiso   1.00
N626   N     0.50000   0.25000   0.38093   0.00000  Uiso   1.00
N627   N     0.75000  -0.00000   0.61907   0.00000  Uiso   1.00
N628   N     0.75000  -0.00000   0.38093   0.00000  Uiso   1.00
Zn629  Zn    0.50000   0.25000   0.55104   0.00000  Uiso   1.00
Zn630  Zn    0.50000   0.25000   0.44896   0.00000  Uiso   1.00
Zn631  Zn    0.75000  -0.00000   0.55104   0.00000  Uiso   1.00
Zn632  Zn    0.75000  -0.00000   0.44896   0.00000  Uiso   1.00
C633   C     0.50005   0.29012   0.35777   0.00000  Uiso   1.00
C634   C     0.99970   0.20988   0.64226   0.00000  Uiso   1.00
C635   C     0.50009   0.20987   0.35686   0.00000  Uiso   1.00
C636   C     0.99957   0.29015   0.64317   0.00000  Uiso   1.00
C637   C     0.74697   0.04003   0.35775   0.00000  Uiso   1.00
C638   C     0.75147   0.45999   0.64213   0.00000  Uiso   1.00
C639   C     0.75496   0.46004   0.35651   0.00000  Uiso   1.00
C640   C     0.74752   0.04008   0.64314   0.00000  Uiso   1.00
C641   C     0.88312   0.14802   0.45865   0.00000  Uiso   1.00
C642   C     0.61750   0.35098   0.54113   0.00000  Uiso   1.00
C643   C     0.62060   0.34413   0.45907   0.00000  Uiso   1.00
C644   C     0.88337   0.14894   0.54103   0.00000  Uiso   1.00
C645   C     0.61530   0.14560   0.54112   0.00000  Uiso   1.00
C646   C     0.88423   0.35351   0.45904   0.00000  Uiso   1.00
C647   C     0.88540   0.35431   0.54148   0.00000  Uiso   1.00
C648   C     0.61337   0.14309   0.45868   0.00000  Uiso   1.00
C649   C     0.64689   0.38255   0.45792   0.00000  Uiso   1.00
C650   C     0.86363   0.10713   0.54124   0.00000  Uiso   1.00
C651   C     0.86259   0.10611   0.45869   0.00000  Uiso   1.00
C652   C     0.63743   0.39249   0.53967   0.00000  Uiso   1.00
C653   C     0.86523   0.39656   0.54157   0.00000  Uiso   1.00
C654   C     0.63179   0.10033   0.45919   0.00000  Uiso   1.00
C655   C     0.63388   0.10292   0.54144   0.00000  Uiso   1.00
C656   C     0.86515   0.39580   0.45903   0.00000  Uiso   1.00
C657   C     0.60284   0.33149   0.50045   0.00000  Uiso   1.00
C658   C     0.89831   0.16611   0.49982   0.00000  Uiso   1.00
C659   C     0.89951   0.33600   0.50018   0.00000  Uiso   1.00
C660   C     0.60034   0.16323   0.49982   0.00000  Uiso   1.00
C661   C     0.84879   0.08838   0.50010   0.00000  Uiso   1.00
C662   C     0.65522   0.40682   0.49856   0.00000  Uiso   1.00
C663   C     0.64764   0.08350   0.50033   0.00000  Uiso   1.00
C664   C     0.85083   0.41453   0.50020   0.00000  Uiso   1.00
N665   N     0.50178   0.33259   0.38172   0.00000  Uiso   1.00
O666   O     0.96612   0.35385   0.39087   0.00000  Uiso   1.00
O667   O     0.53700   0.35613   0.38059   0.00000  Uiso   1.00
N668   N     0.99720   0.16741   0.61841   0.00000  Uiso   1.00
O669   O     0.53254   0.14616   0.60799   0.00000  Uiso   1.00
O670   O     0.96207   0.14381   0.62102   0.00000  Uiso   1.00
N671   N     0.50147   0.16729   0.37977   0.00000  Uiso   1.00
O672   O     0.96552   0.14780   0.39010   0.00000  Uiso   1.00
O673   O     0.53554   0.14181   0.37569   0.00000  Uiso   1.00
N674   N     0.99714   0.33274   0.62033   0.00000  Uiso   1.00
O675   O     0.53255   0.35287   0.60927   0.00000  Uiso   1.00
O676   O     0.96278   0.35766   0.62509   0.00000  Uiso   1.00
N677   N     0.74657   0.08259   0.38160   0.00000  Uiso   1.00
O678   O     0.70999   0.10277   0.38889   0.00000  Uiso   1.00
O679   O     0.78099   0.10746   0.38123   0.00000  Uiso   1.00
N680   N     0.74512   0.41753   0.61889   0.00000  Uiso   1.00
O681   O     0.77762   0.39670   0.60053   0.00000  Uiso   1.00
O682   O     0.71137   0.39366   0.62862   0.00000  Uiso   1.00
N683   N     0.76876   0.41854   0.37763   0.00000  Uiso   1.00
O684   O     0.74800   0.40160   0.41119   0.00000  Uiso   1.00
O685   O     0.79843   0.39361   0.35866   0.00000  Uiso   1.00
N686   N     0.74405   0.08256   0.62019   0.00000  Uiso   1.00
O687   O     0.77889   0.10278   0.60750   0.00000  Uiso   1.00
O688   O     0.70956   0.10715   0.62556   0.00000  Uiso   1.00
O689   O     0.88618   0.17117   0.41851   0.00000  Uiso   1.00
H690   H     0.88563   0.20429   0.42537   0.00000  Uiso   1.00
O691   O     0.61155   0.33138   0.58266   0.00000  Uiso   1.00
H692   H     0.61204   0.29784   0.57834   0.00000  Uiso   1.00
O693   O     0.61217   0.31794   0.42094   0.00000  Uiso   1.00
H694   H     0.61501   0.33651   0.39354   0.00000  Uiso   1.00
O695   O     0.88794   0.17183   0.58162   0.00000  Uiso   1.00
H696   H     0.88680   0.20496   0.57552   0.00000  Uiso   1.00
O697   O     0.61232   0.16902   0.58157   0.00000  Uiso   1.00
H698   H     0.61392   0.20204   0.57515   0.00000  Uiso   1.00
O699   O     0.88749   0.33038   0.41846   0.00000  Uiso   1.00
H700   H     0.88621   0.29730   0.42468   0.00000  Uiso   1.00
O701   O     0.89195   0.33039   0.58089   0.00000  Uiso   1.00
H702   H     0.87563   0.34491   0.60584   0.00000  Uiso   1.00
O703   O     0.60890   0.16424   0.41763   0.00000  Uiso   1.00
H704   H     0.61191   0.19751   0.42277   0.00000  Uiso   1.00
O705   O     0.66289   0.39780   0.41753   0.00000  Uiso   1.00
H706   H     0.67306   0.37112   0.39978   0.00000  Uiso   1.00
O707   O     0.85987   0.08546   0.58204   0.00000  Uiso   1.00
H708   H     0.86262   0.05223   0.57639   0.00000  Uiso   1.00
O709   O     0.85573   0.08186   0.41907   0.00000  Uiso   1.00
H710   H     0.87156   0.09608   0.39401   0.00000  Uiso   1.00
O711   O     0.63919   0.41786   0.57903   0.00000  Uiso   1.00
H712   H     0.63511   0.45029   0.57094   0.00000  Uiso   1.00
O713   O     0.86155   0.42003   0.58199   0.00000  Uiso   1.00
H714   H     0.86351   0.45305   0.57565   0.00000  Uiso   1.00
O715   O     0.63406   0.07617   0.41911   0.00000  Uiso   1.00
H716   H     0.63476   0.04323   0.42619   0.00000  Uiso   1.00
O717   O     0.63823   0.08129   0.58227   0.00000  Uiso   1.00
H718   H     0.63712   0.04797   0.57658   0.00000  Uiso   1.00
O719   O     0.86081   0.41770   0.41837   0.00000  Uiso   1.00
H720   H     0.86296   0.45093   0.42422   0.00000  Uiso   1.00
O721   O     0.04581   0.70419   0.53821   0.00000  Uiso   1.00
O722   O     0.45420   0.79581   0.46179   0.00000  Uiso   1.00
O723   O     0.45420   0.79581   0.53821   0.00000  Uiso   1.00
O724   O     0.04581   0.70419   0.46179   0.00000  Uiso   1.00
O725   O     0.45420   0.70419   0.46179   0.00000  Uiso   1.00
O726   O     0.04581   0.79581   0.53821   0.00000  Uiso   1.00
O727   O     0.04581   0.79581   0.46179   0.00000  Uiso   1.00
O728   O     0.45420   0.70419   0.53821   0.00000  Uiso   1.00
O729   O     0.29581   0.95419   0.53821   0.00000  Uiso   1.00
O730   O     0.20420   0.54581   0.46179   0.00000  Uiso   1.00
O731   O     0.20420   0.54581   0.53821   0.00000  Uiso   1.00
O732   O     0.29581   0.95419   0.46179   0.00000  Uiso   1.00
O733   O     0.20420   0.95419   0.46179   0.00000  Uiso   1.00
O734   O     0.29581   0.54581   0.53821   0.00000  Uiso   1.00
O735   O     0.29581   0.54581   0.46179   0.00000  Uiso   1.00
O736   O     0.20420   0.95419   0.53821   0.00000  Uiso   1.00
C737   C     0.06326   0.69346   0.49997   0.00000  Uiso   1.00
C738   C     0.43673   0.80631   0.50001   0.00000  Uiso   1.00
C739   C     0.43648   0.69425   0.49988   0.00000  Uiso   1.00
C740   C     0.06368   0.80520   0.50022   0.00000  Uiso   1.00
C741   C     0.31338   0.94391   0.50004   0.00000  Uiso   1.00
C742   C     0.18617   0.55540   0.50005   0.00000  Uiso   1.00
C743   C     0.18851   0.94110   0.49962   0.00000  Uiso   1.00
C744   C     0.31277   0.55716   0.50013   0.00000  Uiso   1.00
N745   N     0.00000   0.75000   0.61907   0.00000  Uiso   1.00
N746   N     0.00000   0.75000   0.38093   0.00000  Uiso   1.00
N747   N     0.25000   0.50000   0.61907   0.00000  Uiso   1.00
N748   N     0.25000   0.50000   0.38093   0.00000  Uiso   1.00
Zn749  Zn    0.00000   0.75000   0.55104   0.00000  Uiso   1.00
Zn750  Zn    0.00000   0.75000   0.44896   0.00000  Uiso   1.00
Zn751  Zn    0.25000   0.50000   0.55104   0.00000  Uiso   1.00
Zn752  Zn    0.25000   0.50000   0.44896   0.00000  Uiso   1.00
C753   C     0.00005   0.79012   0.35777   0.00000  Uiso   1.00
C754   C     0.49970   0.70988   0.64226   0.00000  Uiso   1.00
C755   C     0.00009   0.70987   0.35686   0.00000  Uiso   1.00
C756   C     0.49957   0.79015   0.64317   0.00000  Uiso   1.00
C757   C     0.24697   0.54003   0.35775   0.00000  Uiso   1.00
C758   C     0.25147   0.95999   0.64213   0.00000  Uiso   1.00
C759   C     0.25496   0.96004   0.35651   0.00000  Uiso   1.00
C760   C     0.24752   0.54008   0.64314   0.00000  Uiso   1.00
C761   C     0.38312   0.64802   0.45865   0.00000  Uiso   1.00
C762   C     0.11750   0.85098   0.54113   0.00000  Uiso   1.00
C763   C     0.12060   0.84413   0.45907   0.00000  Uiso   1.00
C764   C     0.38337   0.64894   0.54103   0.00000  Uiso   1.00
C765   C     0.11530   0.64560   0.54112   0.00000  Uiso   1.00
C766   C     0.38423   0.85351   0.45904   0.00000  Uiso   1.00
C767   C     0.38540   0.85431   0.54148   0.00000  Uiso   1.00
C768   C     0.11337   0.64309   0.45868   0.00000  Uiso   1.00
C769   C     0.14689   0.88255   0.45792   0.00000  Uiso   1.00
C770   C     0.36363   0.60713   0.54124   0.00000  Uiso   1.00
C771   C     0.36259   0.60611   0.45869   0.00000  Uiso   1.00
C772   C     0.13743   0.89249   0.53967   0.00000  Uiso   1.00
C773   C     0.36523   0.89656   0.54157   0.00000  Uiso   1.00
C774   C     0.13179   0.60033   0.45919   0.00000  Uiso   1.00
C775   C     0.13388   0.60292   0.54144   0.00000  Uiso   1.00
C776   C     0.36515   0.89580   0.45903   0.00000  Uiso   1.00
C777   C     0.10284   0.83149   0.50045   0.00000  Uiso   1.00
C778   C     0.39831   0.66611   0.49982   0.00000  Uiso   1.00
C779   C     0.39951   0.83600   0.50018   0.00000  Uiso   1.00
C780   C     0.10034   0.66323   0.49982   0.00000  Uiso   1.00
C781   C     0.34879   0.58838   0.50010   0.00000  Uiso   1.00
C782   C     0.15522   0.90682   0.49856   0.00000  Uiso   1.00
C783   C     0.14764   0.58350   0.50033   0.00000  Uiso   1.00
C784   C     0.35083   0.91453   0.50020   0.00000  Uiso   1.00
N785   N     0.00178   0.83259   0.38172   0.00000  Uiso   1.00
O786   O     0.46612   0.85385   0.39087   0.00000  Uiso   1.00
O787   O     0.03700   0.85613   0.38059   0.00000  Uiso   1.00
N788   N     0.49720   0.66741   0.61841   0.00000  Uiso   1.00
O789   O     0.03254   0.64616   0.60799   0.00000  Uiso   1.00
O790   O     0.46207   0.64381   0.62102   0.00000  Uiso   1.00
N791   N     0.00147   0.66729   0.37977   0.00000  Uiso   1.00
O792   O     0.46552   0.64780   0.39010   0.00000  Uiso   1.00
O793   O     0.03554   0.64181   0.37569   0.00000  Uiso   1.00
N794   N     0.49714   0.83274   0.62033   0.00000  Uiso   1.00
O795   O     0.03255   0.85287   0.60927   0.00000  Uiso   1.00
O796   O     0.46278   0.85766   0.62509   0.00000  Uiso   1.00
N797   N     0.24657   0.58259   0.38160   0.00000  Uiso   1.00
O798   O     0.20999   0.60277   0.38889   0.00000  Uiso   1.00
O799   O     0.28099   0.60746   0.38123   0.00000  Uiso   1.00
N800   N     0.24512   0.91753   0.61889   0.00000  Uiso   1.00
O801   O     0.27762   0.89670   0.60053   0.00000  Uiso   1.00
O802   O     0.21137   0.89366   0.62862   0.00000  Uiso   1.00
N803   N     0.26876   0.91854   0.37763   0.00000  Uiso   1.00
O804   O     0.24800   0.90160   0.41119   0.00000  Uiso   1.00
O805   O     0.29843   0.89361   0.35866   0.00000  Uiso   1.00
N806   N     0.24405   0.58256   0.62019   0.00000  Uiso   1.00
O807   O     0.27889   0.60278   0.60750   0.00000  Uiso   1.00
O808   O     0.20956   0.60715   0.62556   0.00000  Uiso   1.00
O809   O     0.38618   0.67117   0.41851   0.00000  Uiso   1.00
H810   H     0.38563   0.70429   0.42537   0.00000  Uiso   1.00
O811   O     0.11155   0.83138   0.58266   0.00000  Uiso   1.00
H812   H     0.11204   0.79784   0.57834   0.00000  Uiso   1.00
O813   O     0.11217   0.81794   0.42094   0.00000  Uiso   1.00
H814   H     0.11501   0.83651   0.39354   0.00000  Uiso   1.00
O815   O     0.38794   0.67183   0.58162   0.00000  Uiso   1.00
H816   H     0.38680   0.70496   0.57552   0.00000  Uiso   1.00
O817   O     0.11232   0.66902   0.58157   0.00000  Uiso   1.00
H818   H     0.11392   0.70204   0.57515   0.00000  Uiso   1.00
O819   O     0.38749   0.83038   0.41846   0.00000  Uiso   1.00
H820   H     0.38621   0.79730   0.42468   0.00000  Uiso   1.00
O821   O     0.39195   0.83039   0.58089   0.00000  Uiso   1.00
H822   H     0.37563   0.84491   0.60584   0.00000  Uiso   1.00
O823   O     0.10890   0.66424   0.41763   0.00000  Uiso   1.00
H824   H     0.11191   0.69751   0.42277   0.00000  Uiso   1.00
O825   O     0.16289   0.89780   0.41753   0.00000  Uiso   1.00
H826   H     0.17306   0.87112   0.39978   0.00000  Uiso   1.00
O827   O     0.35987   0.58546   0.58204   0.00000  Uiso   1.00
H828   H     0.36262   0.55223   0.57639   0.00000  Uiso   1.00
O829   O     0.35573   0.58186   0.41907   0.00000  Uiso   1.00
H830   H     0.37156   0.59608   0.39401   0.00000  Uiso   1.00
O831   O     0.13919   0.91786   0.57903   0.00000  Uiso   1.00
H832   H     0.13511   0.95029   0.57094   0.00000  Uiso   1.00
O833   O     0.36155   0.92003   0.58199   0.00000  Uiso   1.00
H834   H     0.36351   0.95305   0.57565   0.00000  Uiso   1.00
O835   O     0.13406   0.57617   0.41911   0.00000  Uiso   1.00
H836   H     0.13476   0.54323   0.42619   0.00000  Uiso   1.00
O837   O     0.13823   0.58129   0.58227   0.00000  Uiso   1.00
H838   H     0.13712   0.54797   0.57658   0.00000  Uiso   1.00
O839   O     0.36081   0.91770   0.41837   0.00000  Uiso   1.00
H840   H     0.36296   0.95093   0.42422   0.00000  Uiso   1.00
O841   O     0.54581   0.70419   0.53821   0.00000  Uiso   1.00
O842   O     0.95420   0.79581   0.46179   0.00000  Uiso   1.00
O843   O     0.95420   0.79581   0.53821   0.00000  Uiso   1.00
O844   O     0.54581   0.70419   0.46179   0.00000  Uiso   1.00
O845   O     0.95420   0.70419   0.46179   0.00000  Uiso   1.00
O846   O     0.54581   0.79581   0.53821   0.00000  Uiso   1.00
O847   O     0.54581   0.79581   0.46179   0.00000  Uiso   1.00
O848   O     0.95420   0.70419   0.53821   0.00000  Uiso   1.00
O849   O     0.79581   0.95419   0.53821   0.00000  Uiso   1.00
O850   O     0.70420   0.54581   0.46179   0.00000  Uiso   1.00
O851   O     0.70420   0.54581   0.53821   0.00000  Uiso   1.00
O852   O     0.79581   0.95419   0.46179   0.00000  Uiso   1.00
O853   O     0.70420   0.95419   0.46179   0.00000  Uiso   1.00
O854   O     0.79581   0.54581   0.53821   0.00000  Uiso   1.00
O855   O     0.79581   0.54581   0.46179   0.00000  Uiso   1.00
O856   O     0.70420   0.95419   0.53821   0.00000  Uiso   1.00
C857   C     0.56326   0.69346   0.49997   0.00000  Uiso   1.00
C858   C     0.93673   0.80631   0.50001   0.00000  Uiso   1.00
C859   C     0.93648   0.69425   0.49988   0.00000  Uiso   1.00
C860   C     0.56368   0.80520   0.50022   0.00000  Uiso   1.00
C861   C     0.81338   0.94391   0.50004   0.00000  Uiso   1.00
C862   C     0.68617   0.55540   0.50005   0.00000  Uiso   1.00
C863   C     0.68851   0.94110   0.49962   0.00000  Uiso   1.00
C864   C     0.81277   0.55716   0.50013   0.00000  Uiso   1.00
N865   N     0.50000   0.75000   0.61907   0.00000  Uiso   1.00
N866   N     0.50000   0.75000   0.38093   0.00000  Uiso   1.00
N867   N     0.75000   0.50000   0.61907   0.00000  Uiso   1.00
N868   N     0.75000   0.50000   0.38093   0.00000  Uiso   1.00
Zn869  Zn    0.50000   0.75000   0.55104   0.00000  Uiso   1.00
Zn870  Zn    0.50000   0.75000   0.44896   0.00000  Uiso   1.00
Zn871  Zn    0.75000   0.50000   0.55104   0.00000  Uiso   1.00
Zn872  Zn    0.75000   0.50000   0.44896   0.00000  Uiso   1.00
C873   C     0.50005   0.79012   0.35777   0.00000  Uiso   1.00
C874   C     0.99970   0.70988   0.64226   0.00000  Uiso   1.00
C875   C     0.50009   0.70987   0.35686   0.00000  Uiso   1.00
C876   C     0.99957   0.79015   0.64317   0.00000  Uiso   1.00
C877   C     0.74697   0.54003   0.35775   0.00000  Uiso   1.00
C878   C     0.75147   0.95999   0.64213   0.00000  Uiso   1.00
C879   C     0.75496   0.96004   0.35651   0.00000  Uiso   1.00
C880   C     0.74752   0.54008   0.64314   0.00000  Uiso   1.00
C881   C     0.88312   0.64802   0.45865   0.00000  Uiso   1.00
C882   C     0.61750   0.85098   0.54113   0.00000  Uiso   1.00
C883   C     0.62060   0.84413   0.45907   0.00000  Uiso   1.00
C884   C     0.88337   0.64894   0.54103   0.00000  Uiso   1.00
C885   C     0.61530   0.64560   0.54112   0.00000  Uiso   1.00
C886   C     0.88423   0.85351   0.45904   0.00000  Uiso   1.00
C887   C     0.88540   0.85431   0.54148   0.00000  Uiso   1.00
C888   C     0.61337   0.64309   0.45868   0.00000  Uiso   1.00
C889   C     0.64689   0.88255   0.45792   0.00000  Uiso   1.00
C890   C     0.86363   0.60713   0.54124   0.00000  Uiso   1.00
C891   C     0.86259   0.60611   0.45869   0.00000  Uiso   1.00
C892   C     0.63743   0.89249   0.53967   0.00000  Uiso   1.00
C893   C     0.86523   0.89656   0.54157   0.00000  Uiso   1.00
C894   C     0.63179   0.60033   0.45919   0.00000  Uiso   1.00
C895   C     0.63388   0.60292   0.54144   0.00000  Uiso   1.00
C896   C     0.86515   0.89580   0.45903   0.00000  Uiso   1.00
C897   C     0.60284   0.83149   0.50045   0.00000  Uiso   1.00
C898   C     0.89831   0.66611   0.49982   0.00000  Uiso   1.00
C899   C     0.89951   0.83600   0.50018   0.00000  Uiso   1.00
C900   C     0.60034   0.66323   0.49982   0.00000  Uiso   1.00
C901   C     0.84879   0.58838   0.50010   0.00000  Uiso   1.00
C902   C     0.65522   0.90682   0.49856   0.00000  Uiso   1.00
C903   C     0.64764   0.58350   0.50033   0.00000  Uiso   1.00
C904   C     0.85083   0.91453   0.50020   0.00000  Uiso   1.00
N905   N     0.50178   0.83259   0.38172   0.00000  Uiso   1.00
O906   O     0.96612   0.85385   0.39087   0.00000  Uiso   1.00
O907   O     0.53700   0.85613   0.38059   0.00000  Uiso   1.00
N908   N     0.99720   0.66741   0.61841   0.00000  Uiso   1.00
O909   O     0.53254   0.64616   0.60799   0.00000  Uiso   1.00
O910   O     0.96207   0.64381   0.62102   0.00000  Uiso   1.00
N911   N     0.50147   0.66729   0.37977   0.00000  Uiso   1.00
O912   O     0.96552   0.64780   0.39010   0.00000  Uiso   1.00
O913   O     0.53554   0.64181   0.37569   0.00000  Uiso   1.00
N914   N     0.99714   0.83274   0.62033   0.00000  Uiso   1.00
O915   O     0.53255   0.85287   0.60927   0.00000  Uiso   1.00
O916   O     0.96278   0.85766   0.62509   0.00000  Uiso   1.00
N917   N     0.74657   0.58259   0.38160   0.00000  Uiso   1.00
O918   O     0.70999   0.60277   0.38889   0.00000  Uiso   1.00
O919   O     0.78099   0.60746   0.38123   0.00000  Uiso   1.00
N920   N     0.74512   0.91753   0.61889   0.00000  Uiso   1.00
O921   O     0.77762   0.89670   0.60053   0.00000  Uiso   1.00
O922   O     0.71137   0.89366   0.62862   0.00000  Uiso   1.00
N923   N     0.76876   0.91854   0.37763   0.00000  Uiso   1.00
O924   O     0.74800   0.90160   0.41119   0.00000  Uiso   1.00
O925   O     0.79843   0.89361   0.35866   0.00000  Uiso   1.00
N926   N     0.74405   0.58256   0.62019   0.00000  Uiso   1.00
O927   O     0.77889   0.60278   0.60750   0.00000  Uiso   1.00
O928   O     0.70956   0.60715   0.62556   0.00000  Uiso   1.00
O929   O     0.88618   0.67117   0.41851   0.00000  Uiso   1.00
H930   H     0.88563   0.70429   0.42537   0.00000  Uiso   1.00
O931   O     0.61155   0.83138   0.58266   0.00000  Uiso   1.00
H932   H     0.61204   0.79784   0.57834   0.00000  Uiso   1.00
O933   O     0.61217   0.81794   0.42094   0.00000  Uiso   1.00
H934   H     0.61501   0.83651   0.39354   0.00000  Uiso   1.00
O935   O     0.88794   0.67183   0.58162   0.00000  Uiso   1.00
H936   H     0.88680   0.70496   0.57552   0.00000  Uiso   1.00
O937   O     0.61232   0.66902   0.58157   0.00000  Uiso   1.00
H938   H     0.61392   0.70204   0.57515   0.00000  Uiso   1.00
O939   O     0.88749   0.83038   0.41846   0.00000  Uiso   1.00
H940   H     0.88621   0.79730   0.42468   0.00000  Uiso   1.00
O941   O     0.89195   0.83039   0.58089   0.00000  Uiso   1.00
H942   H     0.87563   0.84491   0.60584   0.00000  Uiso   1.00
O943   O     0.60890   0.66424   0.41763   0.00000  Uiso   1.00
H944   H     0.61191   0.69751   0.42277   0.00000  Uiso   1.00
O945   O     0.66289   0.89780   0.41753   0.00000  Uiso   1.00
H946   H     0.67306   0.87112   0.39978   0.00000  Uiso   1.00
O947   O     0.85987   0.58546   0.58204   0.00000  Uiso   1.00
H948   H     0.86262   0.55223   0.57639   0.00000  Uiso   1.00
O949   O     0.85573   0.58186   0.41907   0.00000  Uiso   1.00
H950   H     0.87156   0.59608   0.39401   0.00000  Uiso   1.00
O951   O     0.63919   0.91786   0.57903   0.00000  Uiso   1.00
H952   H     0.63511   0.95029   0.57094   0.00000  Uiso   1.00
O953   O     0.86155   0.92003   0.58199   0.00000  Uiso   1.00
H954   H     0.86351   0.95305   0.57565   0.00000  Uiso   1.00
O955   O     0.63406   0.57617   0.41911   0.00000  Uiso   1.00
H956   H     0.63476   0.54323   0.42619   0.00000  Uiso   1.00
O957   O     0.63823   0.58129   0.58227   0.00000  Uiso   1.00
H958   H     0.63712   0.54797   0.57658   0.00000  Uiso   1.00
O959   O     0.86081   0.91770   0.41837   0.00000  Uiso   1.00
H960   H     0.86296   0.95093   0.42422   0.00000  Uiso   1.00
O961   O     0.04581   0.20419   0.87154   0.00000  Uiso   1.00
O962   O     0.45420   0.29581   0.79513   0.00000  Uiso   1.00
O963   O     0.45420   0.29581   0.87154   0.00000  Uiso   1.00
O964   O     0.04581   0.20419   0.79513   0.00000  Uiso   1.00
O965   O     0.45420   0.20419   0.79513   0.00000  Uiso   1.00
O966   O     0.04581   0.29581   0.87154   0.00000  Uiso   1.00
O967   O     0.04581   0.29581   0.79513   0.00000  Uiso   1.00
O968   O     0.45420   0.20419   0.87154   0.00000  Uiso   1.00
O969   O     0.29581   0.45419   0.87154   0.00000  Uiso   1.00
O970   O     0.20420   0.04581   0.79513   0.00000  Uiso   1.00
O971   O     0.20420   0.04581   0.87154   0.00000  Uiso   1.00
O972   O     0.29581   0.45419   0.79513   0.00000  Uiso   1.00
O973   O     0.20420   0.45419   0.79513   0.00000  Uiso   1.00
O974   O     0.29581   0.04581   0.87154   0.00000  Uiso   1.00
O975   O     0.29581   0.04581   0.79513   0.00000  Uiso   1.00
O976   O     0.20420   0.45419   0.87154   0.00000  Uiso   1.00
C977   C     0.06326   0.19346   0.83330   0.00000  Uiso   1.00
C978   C     0.43673   0.30631   0.83335   0.00000  Uiso   1.00
C979   C     0.43648   0.19425   0.83321   0.00000  Uiso   1.00
C980   C     0.06368   0.30520   0.83355   0.00000  Uiso   1.00
C981   C     0.31338   0.44391   0.83337   0.00000  Uiso   1.00
C982   C     0.18617   0.05540   0.83338   0.00000  Uiso   1.00
C983   C     0.18851   0.44110   0.83296   0.00000  Uiso   1.00
C984   C     0.31277   0.05716   0.83347   0.00000  Uiso   1.00
N985   N     0.00000   0.25000   0.95240   0.00000  Uiso   1.00
N986   N     0.00000   0.25000   0.71427   0.00000  Uiso   1.00
N987   N     0.25000  -0.00000   0.95240   0.00000  Uiso   1.00
N988   N     0.25000  -0.00000   0.71427   0.00000  Uiso   1.00
Zn989  Zn    0.00000   0.25000   0.88437   0.00000  Uiso   1.00
Zn990  Zn    0.00000   0.25000   0.78229   0.00000  Uiso   1.00
Zn991  Zn    0.25000  -0.00000   0.88437   0.00000  Uiso   1.00
Zn992  Zn    0.25000  -0.00000   0.78229   0.00000  Uiso   1.00
C993   C     0.00005   0.29012   0.69110   0.00000  Uiso   1.00
C994   C     0.49970   0.20988   0.97560   0.00000  Uiso   1.00
C995   C     0.00009   0.20987   0.69019   0.00000  Uiso   1.00
C996   C     0.49957   0.29015   0.97650   0.00000  Uiso   1.00
C997   C     0.24697   0.04003   0.69108   0.00000  Uiso   1.00
C998   C     0.25147   0.45999   0.97547   0.00000  Uiso   1.00
C999   C     0.25496   0.46004   0.68984   0.00000  Uiso   1.00
C1000  C     0.24752   0.04008   0.97647   0.00000  Uiso   1.00
C1001  C     0.38312   0.14802   0.79198   0.00000  Uiso   1.00
C1002  C     0.11750   0.35098   0.87446   0.00000  Uiso   1.00
C1003  C     0.12060   0.34413   0.79240   0.00000  Uiso   1.00
C1004  C     0.38337   0.14894   0.87437   0.00000  Uiso   1.00
C1005  C     0.11530   0.14560   0.87446   0.00000  Uiso   1.00
C1006  C     0.38423   0.35351   0.79237   0.00000  Uiso   1.00
C1007  C     0.38540   0.35431   0.87481   0.00000  Uiso   1.00
C1008  C     0.11337   0.14309   0.79201   0.00000  Uiso   1.00
C1009  C     0.14689   0.38255   0.79126   0.00000  Uiso   1.00
C1010  C     0.36363   0.10713   0.87457   0.00000  Uiso   1.00
C1011  C     0.36259   0.10611   0.79203   0.00000  Uiso   1.00
C1012  C     0.13743   0.39249   0.87301   0.00000  Uiso   1.00
C1013  C     0.36523   0.39656   0.87491   0.00000  Uiso   1.00
C1014  C     0.13179   0.10033   0.79253   0.00000  Uiso   1.00
C1015  C     0.13388   0.10292   0.87477   0.00000  Uiso   1.00
C1016  C     0.36515   0.39580   0.79237   0.00000  Uiso   1.00
C1017  C     0.10284   0.33149   0.83379   0.00000  Uiso   1.00
C1018  C     0.39831   0.16611   0.83315   0.00000  Uiso   1.00
C1019  C     0.39951   0.33600   0.83351   0.00000  Uiso   1.00
C1020  C     0.10034   0.16323   0.83315   0.00000  Uiso   1.00
C1021  C     0.34879   0.08838   0.83344   0.00000  Uiso   1.00
C1022  C     0.15522   0.40682   0.83189   0.00000  Uiso   1.00
C1023  C     0.14764   0.08350   0.83367   0.00000  Uiso   1.00
C1024  C     0.35083   0.41453   0.83353   0.00000  Uiso   1.00
N1025  N     0.00178   0.33259   0.71505   0.00000  Uiso   1.00
O1026  O     0.46612   0.35385   0.72421   0.00000  Uiso   1.00
O1027  O     0.03700   0.35613   0.71393   0.00000  Uiso   1.00
N1028  N     0.49720   0.16741   0.95175   0.00000  Uiso   1.00
O1029  O     0.03254   0.14616   0.94132   0.00000  Uiso   1.00
O1030  O     0.46207   0.14381   0.95436   0.00000  Uiso   1.00
N1031  N     0.00147   0.16729   0.71310   0.00000  Uiso   1.00
O1032  O     0.46552   0.14780   0.72343   0.00000  Uiso   1.00
O1033  O     0.03554   0.14181   0.70903   0.00000  Uiso   1.00
N1034  N     0.49714   0.33274   0.95366   0.00000  Uiso   1.00
O1035  O     0.03255   0.35287   0.94260   0.00000  Uiso   1.00
O1036  O     0.46278   0.35766   0.95842   0.00000  Uiso   1.00
N1037  N     0.24657   0.08259   0.71494   0.00000  Uiso   1.00
O1038  O     0.20999   0.10277   0.72222   0.00000  Uiso   1.00
O1039  O     0.28099   0.10746   0.71456   0.00000  Uiso   1.00
N1040  N     0.24512   0.41753   0.95223   0.00000  Uiso   1.00
O1041  O     0.27762   0.39670   0.93386   0.00000  Uiso   1.00
O1042  O     0.21137   0.39366   0.96195   0.00000  Uiso   1.00
N1043  N     0.26876   0.41854   0.71096   0.00000  Uiso   1.00
O1044  O     0.24800   0.40160   0.74453   0.00000  Uiso   1.00
O1045  O     0.29843   0.39361   0.69200   0.00000  Uiso   1.00
N1046  N     0.24405   0.08256   0.95352   0.00000  Uiso   1.00
O1047  O     0.27889   0.10278   0.94083   0.00000  Uiso   1.00
O1048  O     0.20956   0.10715   0.95889   0.00000  Uiso   1.00
O1049  O     0.38618   0.17117   0.75184   0.00000  Uiso   1.00
H1050  H     0.38563   0.20429   0.75870   0.00000  Uiso   1.00
O1051  O     0.11155   0.33138   0.91599   0.00000  Uiso   1.00
H1052  H     0.11204   0.29784   0.91168   0.00000  Uiso   1.00
O1053  O     0.11217   0.31794   0.75428   0.00000  Uiso   1.00
H1054  H     0.11501   0.33651   0.72687   0.00000  Uiso   1.00
O1055  O     0.38794   0.17183   0.91495   0.00000  Uiso   1.00
H1056  H     0.38680   0.20496   0.90885   0.00000  Uiso   1.00
O1057  O     0.11232   0.16902   0.91491   0.00000  Uiso   1.00
H1058  H     0.11392   0.20204   0.90849   0.00000  Uiso   1.00
O1059  O     0.38749   0.33038   0.75179   0.00000  Uiso   1.00
H1060  H     0.38621   0.29730   0.75802   0.00000  Uiso   1.00
O1061  O     0.39195   0.33039   0.91422   0.00000  Uiso   1.00
H1062  H     0.37563   0.34491   0.93918   0.00000  Uiso   1.00
O1063  O     0.10890   0.16424   0.75096   0.00000  Uiso   1.00
H1064  H     0.11191   0.19751   0.75610   0.00000  Uiso   1.00
O1065  O     0.16289   0.39780   0.75087   0.00000  Uiso   1.00
H1066  H     0.17306   0.37112   0.73311   0.00000  Uiso   1.00
O1067  O     0.35987   0.08546   0.91538   0.00000  Uiso   1.00
H1068  H     0.36262   0.05223   0.90972   0.00000  Uiso   1.00
O1069  O     0.35573   0.08186   0.75240   0.00000  Uiso   1.00
H1070  H     0.37156   0.09608   0.72734   0.00000  Uiso   1.00
O1071  O     0.13919   0.41786   0.91236   0.00000  Uiso   1.00
H1072  H     0.13511   0.45029   0.90427   0.00000  Uiso   1.00
O1073  O     0.36155   0.42003   0.91532   0.00000  Uiso   1.00
H1074  H     0.36351   0.45305   0.90899   0.00000  Uiso   1.00
O1075  O     0.13406   0.07617   0.75244   0.00000  Uiso   1.00
H1076  H     0.13476   0.04323   0.75952   0.00000  Uiso   1.00
O1077  O     0.13823   0.08129   0.91560   0.00000  Uiso   1.00
H1078  H     0.13712   0.04797   0.90991   0.00000  Uiso   1.00
O1079  O     0.36081   0.41770   0.75170   0.00000  Uiso   1.00
H1080  H     0.36296   0.45093   0.75755   0.00000  Uiso   1.00
O1081  O     0.54581   0.20419   0.87154   0.00000  Uiso   1.00
O1082  O     0.95420   0.29581   0.79513   0.00000  Uiso   1.00
O1083  O     0.95420   0.29581   0.87154   0.00000  Uiso   1.00
O1084  O     0.54581   0.20419   0.79513   0.00000  Uiso   1.00
O1085  O     0.95420   0.20419   0.79513   0.00000  Uiso   1.00
O1086  O     0.54581   0.29581   0.87154   0.00000  Uiso   1.00
O1087  O     0.54581   0.29581   0.79513   0.00000  Uiso   1.00
O1088  O     0.95420   0.20419   0.87154   0.00000  Uiso   1.00
O1089  O     0.79581   0.45419   0.87154   0.00000  Uiso   1.00
O1090  O     0.70420   0.04581   0.79513   0.00000  Uiso   1.00
O1091  O     0.70420   0.04581   0.87154   0.00000  Uiso   1.00
O1092  O     0.79581   0.45419   0.79513   0.00000  Uiso   1.00
O1093  O     0.70420   0.45419   0.79513   0.00000  Uiso   1.00
O1094  O     0.79581   0.04581   0.87154   0.00000  Uiso   1.00
O1095  O     0.79581   0.04581   0.79513   0.00000  Uiso   1.00
O1096  O     0.70420   0.45419   0.87154   0.00000  Uiso   1.00
C1097  C     0.56326   0.19346   0.83330   0.00000  Uiso   1.00
C1098  C     0.93673   0.30631   0.83335   0.00000  Uiso   1.00
C1099  C     0.93648   0.19425   0.83321   0.00000  Uiso   1.00
C1100  C     0.56368   0.30520   0.83355   0.00000  Uiso   1.00
C1101  C     0.81338   0.44391   0.83337   0.00000  Uiso   1.00
C1102  C     0.68617   0.05540   0.83338   0.00000  Uiso   1.00
C1103  C     0.68851   0.44110   0.83296   0.00000  Uiso   1.00
C1104  C     0.81277   0.05716   0.83347   0.00000  Uiso   1.00
N1105  N     0.50000   0.25000   0.95240   0.00000  Uiso   1.00
N1106  N     0.50000   0.25000   0.71427   0.00000  Uiso   1.00
N1107  N     0.75000  -0.00000   0.95240   0.00000  Uiso   1.00
N1108  N     0.75000  -0.00000   0.71427   0.00000  Uiso   1.00
Zn1109 Zn    0.50000   0.25000   0.88437   0.00000  Uiso   1.00
Zn1110 Zn    0.50000   0.25000   0.78229   0.00000  Uiso   1.00
Zn1111 Zn    0.75000  -0.00000   0.88437   0.00000  Uiso   1.00
Zn1112 Zn    0.75000  -0.00000   0.78229   0.00000  Uiso   1.00
C1113  C     0.50005   0.29012   0.69110   0.00000  Uiso   1.00
C1114  C     0.99970   0.20988   0.97560   0.00000  Uiso   1.00
C1115  C     0.50009   0.20987   0.69019   0.00000  Uiso   1.00
C1116  C     0.99957   0.29015   0.97650   0.00000  Uiso   1.00
C1117  C     0.74697   0.04003   0.69108   0.00000  Uiso   1.00
C1118  C     0.75147   0.45999   0.97547   0.00000  Uiso   1.00
C1119  C     0.75496   0.46004   0.68984   0.00000  Uiso   1.00
C1120  C     0.74752   0.04008   0.97647   0.00000  Uiso   1.00
C1121  C     0.88312   0.14802   0.79198   0.00000  Uiso   1.00
C1122  C     0.61750   0.35098   0.87446   0.00000  Uiso   1.00
C1123  C     0.62060   0.34413   0.79240   0.00000  Uiso   1.00
C1124  C     0.88337   0.14894   0.87437   0.00000  Uiso   1.00
C1125  C     0.61530   0.14560   0.87446   0.00000  Uiso   1.00
C1126  C     0.88423   0.35351   0.79237   0.00000  Uiso   1.00
C1127  C     0.88540   0.35431   0.87481   0.00000  Uiso   1.00
C1128  C     0.61337   0.14309   0.79201   0.00000  Uiso   1.00
C1129  C     0.64689   0.38255   0.79126   0.00000  Uiso   1.00
C1130  C     0.86363   0.10713   0.87457   0.00000  Uiso   1.00
C1131  C     0.86259   0.10611   0.79203   0.00000  Uiso   1.00
C1132  C     0.63743   0.39249   0.87301   0.00000  Uiso   1.00
C1133  C     0.86523   0.39656   0.87491   0.00000  Uiso   1.00
C1134  C     0.63179   0.10033   0.79253   0.00000  Uiso   1.00
C1135  C     0.63388   0.10292   0.87477   0.00000  Uiso   1.00
C1136  C     0.86515   0.39580   0.79237   0.00000  Uiso   1.00
C1137  C     0.60284   0.33149   0.83379   0.00000  Uiso   1.00
C1138  C     0.89831   0.16611   0.83315   0.00000  Uiso   1.00
C1139  C     0.89951   0.33600   0.83351   0.00000  Uiso   1.00
C1140  C     0.60034   0.16323   0.83315   0.00000  Uiso   1.00
C1141  C     0.84879   0.08838   0.83344   0.00000  Uiso   1.00
C1142  C     0.65522   0.40682   0.83189   0.00000  Uiso   1.00
C1143  C     0.64764   0.08350   0.83367   0.00000  Uiso   1.00
C1144  C     0.85083   0.41453   0.83353   0.00000  Uiso   1.00
N1145  N     0.50178   0.33259   0.71505   0.00000  Uiso   1.00
O1146  O     0.96612   0.35385   0.72421   0.00000  Uiso   1.00
O1147  O     0.53700   0.35613   0.71393   0.00000  Uiso   1.00
N1148  N     0.99720   0.16741   0.95175   0.00000  Uiso   1.00
O1149  O     0.53254   0.14616   0.94132   0.00000  Uiso   1.00
O1150  O     0.96207   0.14381   0.95436   0.00000  Uiso   1.00
N1151  N     0.50147   0.16729   0.71310   0.00000  Uiso   1.00
O1152  O     0.96552   0.14780   0.72343   0.00000  Uiso   1.00
O1153  O     0.53554   0.14181   0.70903   0.00000  Uiso   1.00
N1154  N     0.99714   0.33274   0.95366   0.00000  Uiso   1.00
O1155  O     0.53255   0.35287   0.94260   0.00000  Uiso   1.00
O1156  O     0.96278   0.35766   0.95842   0.00000  Uiso   1.00
N1157  N     0.74657   0.08259   0.71494   0.00000  Uiso   1.00
O1158  O     0.70999   0.10277   0.72222   0.00000  Uiso   1.00
O1159  O     0.78099   0.10746   0.71456   0.00000  Uiso   1.00
N1160  N     0.74512   0.41753   0.95223   0.00000  Uiso   1.00
O1161  O     0.77762   0.39670   0.93386   0.00000  Uiso   1.00
O1162  O     0.71137   0.39366   0.96195   0.00000  Uiso   1.00
N1163  N     0.76876   0.41854   0.71096   0.00000  Uiso   1.00
O1164  O     0.74800   0.40160   0.74453   0.00000  Uiso   1.00
O1165  O     0.79843   0.39361   0.69200   0.00000  Uiso   1.00
N1166  N     0.74405   0.08256   0.95352   0.00000  Uiso   1.00
O1167  O     0.77889   0.10278   0.94083   0.00000  Uiso   1.00
O1168  O     0.70956   0.10715   0.95889   0.00000  Uiso   1.00
O1169  O     0.88618   0.17117   0.75184   0.00000  Uiso   1.00
H1170  H     0.88563   0.20429   0.75870   0.00000  Uiso   1.00
O1171  O     0.61155   0.33138   0.91599   0.00000  Uiso   1.00
H1172  H     0.61204   0.29784   0.91168   0.00000  Uiso   1.00
O1173  O     0.61217   0.31794   0.75428   0.00000  Uiso   1.00
H1174  H     0.61501   0.33651   0.72687   0.00000  Uiso   1.00
O1175  O     0.88794   0.17183   0.91495   0.00000  Uiso   1.00
H1176  H     0.88680   0.20496   0.90885   0.00000  Uiso   1.00
O1177  O     0.61232   0.16902   0.91491   0.00000  Uiso   1.00
H1178  H     0.61392   0.20204   0.90849   0.00000  Uiso   1.00
O1179  O     0.88749   0.33038   0.75179   0.00000  Uiso   1.00
H1180  H     0.88621   0.29730   0.75802   0.00000  Uiso   1.00
O1181  O     0.89195   0.33039   0.91422   0.00000  Uiso   1.00
H1182  H     0.87563   0.34491   0.93918   0.00000  Uiso   1.00
O1183  O     0.60890   0.16424   0.75096   0.00000  Uiso   1.00
H1184  H     0.61191   0.19751   0.75610   0.00000  Uiso   1.00
O1185  O     0.66289   0.39780   0.75087   0.00000  Uiso   1.00
H1186  H     0.67306   0.37112   0.73311   0.00000  Uiso   1.00
O1187  O     0.85987   0.08546   0.91538   0.00000  Uiso   1.00
H1188  H     0.86262   0.05223   0.90972   0.00000  Uiso   1.00
O1189  O     0.85573   0.08186   0.75240   0.00000  Uiso   1.00
H1190  H     0.87156   0.09608   0.72734   0.00000  Uiso   1.00
O1191  O     0.63919   0.41786   0.91236   0.00000  Uiso   1.00
H1192  H     0.63511   0.45029   0.90427   0.00000  Uiso   1.00
O1193  O     0.86155   0.42003   0.91532   0.00000  Uiso   1.00
H1194  H     0.86351   0.45305   0.90899   0.00000  Uiso   1.00
O1195  O     0.63406   0.07617   0.75244   0.00000  Uiso   1.00
H1196  H     0.63476   0.04323   0.75952   0.00000  Uiso   1.00
O1197  O     0.63823   0.08129   0.91560   0.00000  Uiso   1.00
H1198  H     0.63712   0.04797   0.90991   0.00000  Uiso   1.00
O1199  O     0.86081   0.41770   0.75170   0.00000  Uiso   1.00
H1200  H     0.86296   0.45093   0.75755   0.00000  Uiso   1.00
O1201  O     0.04581   0.70419   0.87154   0.00000  Uiso   1.00
O1202  O     0.45420   0.79581   0.79513   0.00000  Uiso   1.00
O1203  O     0.45420   0.79581   0.87154   0.00000  Uiso   1.00
O1204  O     0.04581   0.70419   0.79513   0.00000  Uiso   1.00
O1205  O     0.45420   0.70419   0.79513   0.00000  Uiso   1.00
O1206  O     0.04581   0.79581   0.87154   0.00000  Uiso   1.00
O1207  O     0.04581   0.79581   0.79513   0.00000  Uiso   1.00
O1208  O     0.45420   0.70419   0.87154   0.00000  Uiso   1.00
O1209  O     0.29581   0.95419   0.87154   0.00000  Uiso   1.00
O1210  O     0.20420   0.54581   0.79513   0.00000  Uiso   1.00
O1211  O     0.20420   0.54581   0.87154   0.00000  Uiso   1.00
O1212  O     0.29581   0.95419   0.79513   0.00000  Uiso   1.00
O1213  O     0.20420   0.95419   0.79513   0.00000  Uiso   1.00
O1214  O     0.29581   0.54581   0.87154   0.00000  Uiso   1.00
O1215  O     0.29581   0.54581   0.79513   0.00000  Uiso   1.00
O1216  O     0.20420   0.95419   0.87154   0.00000  Uiso   1.00
C1217  C     0.06326   0.69346   0.83330   0.00000  Uiso   1.00
C1218  C     0.43673   0.80631   0.83335   0.00000  Uiso   1.00
C1219  C     0.43648   0.69425   0.83321   0.00000  Uiso   1.00
C1220  C     0.06368   0.80520   0.83355   0.00000  Uiso   1.00
C1221  C     0.31338   0.94391   0.83337   0.00000  Uiso   1.00
C1222  C     0.18617   0.55540   0.83338   0.00000  Uiso   1.00
C1223  C     0.18851   0.94110   0.83296   0.00000  Uiso   1.00
C1224  C     0.31277   0.55716   0.83347   0.00000  Uiso   1.00
N1225  N     0.00000   0.75000   0.95240   0.00000  Uiso   1.00
N1226  N     0.00000   0.75000   0.71427   0.00000  Uiso   1.00
N1227  N     0.25000   0.50000   0.95240   0.00000  Uiso   1.00
N1228  N     0.25000   0.50000   0.71427   0.00000  Uiso   1.00
Zn1229 Zn    0.00000   0.75000   0.88437   0.00000  Uiso   1.00
Zn1230 Zn    0.00000   0.75000   0.78229   0.00000  Uiso   1.00
Zn1231 Zn    0.25000   0.50000   0.88437   0.00000  Uiso   1.00
Zn1232 Zn    0.25000   0.50000   0.78229   0.00000  Uiso   1.00
C1233  C     0.00005   0.79012   0.69110   0.00000  Uiso   1.00
C1234  C     0.49970   0.70988   0.97560   0.00000  Uiso   1.00
C1235  C     0.00009   0.70987   0.69019   0.00000  Uiso   1.00
C1236  C     0.49957   0.79015   0.97650   0.00000  Uiso   1.00
C1237  C     0.24697   0.54003   0.69108   0.00000  Uiso   1.00
C1238  C     0.25147   0.95999   0.97547   0.00000  Uiso   1.00
C1239  C     0.25496   0.96004   0.68984   0.00000  Uiso   1.00
C1240  C     0.24752   0.54008   0.97647   0.00000  Uiso   1.00
C1241  C     0.38312   0.64802   0.79198   0.00000  Uiso   1.00
C1242  C     0.11750   0.85098   0.87446   0.00000  Uiso   1.00
C1243  C     0.12060   0.84413   0.79240   0.00000  Uiso   1.00
C1244  C     0.38337   0.64894   0.87437   0.00000  Uiso   1.00
C1245  C     0.11530   0.64560   0.87446   0.00000  Uiso   1.00
C1246  C     0.38423   0.85351   0.79237   0.00000  Uiso   1.00
C1247  C     0.38540   0.85431   0.87481   0.00000  Uiso   1.00
C1248  C     0.11337   0.64309   0.79201   0.00000  Uiso   1.00
C1249  C     0.14689   0.88255   0.79126   0.00000  Uiso   1.00
C1250  C     0.36363   0.60713   0.87457   0.00000  Uiso   1.00
C1251  C     0.36259   0.60611   0.79203   0.00000  Uiso   1.00
C1252  C     0.13743   0.89249   0.87301   0.00000  Uiso   1.00
C1253  C     0.36523   0.89656   0.87491   0.00000  Uiso   1.00
C1254  C     0.13179   0.60033   0.79253   0.00000  Uiso   1.00
C1255  C     0.13388   0.60292   0.87477   0.00000  Uiso   1.00
C1256  C     0.36515   0.89580   0.79237   0.00000  Uiso   1.00
C1257  C     0.10284   0.83149   0.83379   0.00000  Uiso   1.00
C1258  C     0.39831   0.66611   0.83315   0.00000  Uiso   1.00
C1259  C     0.39951   0.83600   0.83351   0.00000  Uiso   1.00
C1260  C     0.10034   0.66323   0.83315   0.00000  Uiso   1.00
C1261  C     0.34879   0.58838   0.83344   0.00000  Uiso   1.00
C1262  C     0.15522   0.90682   0.83189   0.00000  Uiso   1.00
C1263  C     0.14764   0.58350   0.83367   0.00000  Uiso   1.00
C1264  C     0.35083   0.91453   0.83353   0.00000  Uiso   1.00
N1265  N     0.00178   0.83259   0.71505   0.00000  Uiso   1.00
O1266  O     0.46612   0.85385   0.72421   0.00000  Uiso   1.00
O1267  O     0.03700   0.85613   0.71393   0.00000  Uiso   1.00
N1268  N     0.49720   0.66741   0.95175   0.00000  Uiso   1.00
O1269  O     0.03254   0.64616   0.94132   0.00000  Uiso   1.00
O1270  O     0.46207   0.64381   0.95436   0.00000  Uiso   1.00
N1271  N     0.00147   0.66729   0.71310   0.00000  Uiso   1.00
O1272  O     0.46552   0.64780   0.72343   0.00000  Uiso   1.00
O1273  O     0.03554   0.64181   0.70903   0.00000  Uiso   1.00
N1274  N     0.49714   0.83274   0.95366   0.00000  Uiso   1.00
O1275  O     0.03255   0.85287   0.94260   0.00000  Uiso   1.00
O1276  O     0.46278   0.85766   0.95842   0.00000  Uiso   1.00
N1277  N     0.24657   0.58259   0.71494   0.00000  Uiso   1.00
O1278  O     0.20999   0.60277   0.72222   0.00000  Uiso   1.00
O1279  O     0.28099   0.60746   0.71456   0.00000  Uiso   1.00
N1280  N     0.24512   0.91753   0.95223   0.00000  Uiso   1.00
O1281  O     0.27762   0.89670   0.93386   0.00000  Uiso   1.00
O1282  O     0.21137   0.89366   0.96195   0.00000  Uiso   1.00
N1283  N     0.26876   0.91854   0.71096   0.00000  Uiso   1.00
O1284  O     0.24800   0.90160   0.74453   0.00000  Uiso   1.00
O1285  O     0.29843   0.89361   0.69200   0.00000  Uiso   1.00
N1286  N     0.24405   0.58256   0.95352   0.00000  Uiso   1.00
O1287  O     0.27889   0.60278   0.94083   0.00000  Uiso   1.00
O1288  O     0.20956   0.60715   0.95889   0.00000  Uiso   1.00
O1289  O     0.38618   0.67117   0.75184   0.00000  Uiso   1.00
H1290  H     0.38563   0.70429   0.75870   0.00000  Uiso   1.00
O1291  O     0.11155   0.83138   0.91599   0.00000  Uiso   1.00
H1292  H     0.11204   0.79784   0.91168   0.00000  Uiso   1.00
O1293  O     0.11217   0.81794   0.75428   0.00000  Uiso   1.00
H1294  H     0.11501   0.83651   0.72687   0.00000  Uiso   1.00
O1295  O     0.38794   0.67183   0.91495   0.00000  Uiso   1.00
H1296  H     0.38680   0.70496   0.90885   0.00000  Uiso   1.00
O1297  O     0.11232   0.66902   0.91491   0.00000  Uiso   1.00
H1298  H     0.11392   0.70204   0.90849   0.00000  Uiso   1.00
O1299  O     0.38749   0.83038   0.75179   0.00000  Uiso   1.00
H1300  H     0.38621   0.79730   0.75802   0.00000  Uiso   1.00
O1301  O     0.39195   0.83039   0.91422   0.00000  Uiso   1.00
H1302  H     0.37563   0.84491   0.93918   0.00000  Uiso   1.00
O1303  O     0.10890   0.66424   0.75096   0.00000  Uiso   1.00
H1304  H     0.11191   0.69751   0.75610   0.00000  Uiso   1.00
O1305  O     0.16289   0.89780   0.75087   0.00000  Uiso   1.00
H1306  H     0.17306   0.87112   0.73311   0.00000  Uiso   1.00
O1307  O     0.35987   0.58546   0.91538   0.00000  Uiso   1.00
H1308  H     0.36262   0.55223   0.90972   0.00000  Uiso   1.00
O1309  O     0.35573   0.58186   0.75240   0.00000  Uiso   1.00
H1310  H     0.37156   0.59608   0.72734   0.00000  Uiso   1.00
O1311  O     0.13919   0.91786   0.91236   0.00000  Uiso   1.00
H1312  H     0.13511   0.95029   0.90427   0.00000  Uiso   1.00
O1313  O     0.36155   0.92003   0.91532   0.00000  Uiso   1.00
H1314  H     0.36351   0.95305   0.90899   0.00000  Uiso   1.00
O1315  O     0.13406   0.57617   0.75244   0.00000  Uiso   1.00
H1316  H     0.13476   0.54323   0.75952   0.00000  Uiso   1.00
O1317  O     0.13823   0.58129   0.91560   0.00000  Uiso   1.00
H1318  H     0.13712   0.54797   0.90991   0.00000  Uiso   1.00
O1319  O     0.36081   0.91770   0.75170   0.00000  Uiso   1.00
H1320  H     0.36296   0.95093   0.75755   0.00000  Uiso   1.00
O1321  O     0.54581   0.70419   0.87154   0.00000  Uiso   1.00
O1322  O     0.95420   0.79581   0.79513   0.00000  Uiso   1.00
O1323  O     0.95420   0.79581   0.87154   0.00000  Uiso   1.00
O1324  O     0.54581   0.70419   0.79513   0.00000  Uiso   1.00
O1325  O     0.95420   0.70419   0.79513   0.00000  Uiso   1.00
O1326  O     0.54581   0.79581   0.87154   0.00000  Uiso   1.00
O1327  O     0.54581   0.79581   0.79513   0.00000  Uiso   1.00
O1328  O     0.95420   0.70419   0.87154   0.00000  Uiso   1.00
O1329  O     0.79581   0.95419   0.87154   0.00000  Uiso   1.00
O1330  O     0.70420   0.54581   0.79513   0.00000  Uiso   1.00
O1331  O     0.70420   0.54581   0.87154   0.00000  Uiso   1.00
O1332  O     0.79581   0.95419   0.79513   0.00000  Uiso   1.00
O1333  O     0.70420   0.95419   0.79513   0.00000  Uiso   1.00
O1334  O     0.79581   0.54581   0.87154   0.00000  Uiso   1.00
O1335  O     0.79581   0.54581   0.79513   0.00000  Uiso   1.00
O1336  O     0.70420   0.95419   0.87154   0.00000  Uiso   1.00
C1337  C     0.56326   0.69346   0.83330   0.00000  Uiso   1.00
C1338  C     0.93673   0.80631   0.83335   0.00000  Uiso   1.00
C1339  C     0.93648   0.69425   0.83321   0.00000  Uiso   1.00
C1340  C     0.56368   0.80520   0.83355   0.00000  Uiso   1.00
C1341  C     0.81338   0.94391   0.83337   0.00000  Uiso   1.00
C1342  C     0.68617   0.55540   0.83338   0.00000  Uiso   1.00
C1343  C     0.68851   0.94110   0.83296   0.00000  Uiso   1.00
C1344  C     0.81277   0.55716   0.83347   0.00000  Uiso   1.00
N1345  N     0.50000   0.75000   0.95240   0.00000  Uiso   1.00
N1346  N     0.50000   0.75000   0.71427   0.00000  Uiso   1.00
N1347  N     0.75000   0.50000   0.95240   0.00000  Uiso   1.00
N1348  N     0.75000   0.50000   0.71427   0.00000  Uiso   1.00
Zn1349 Zn    0.50000   0.75000   0.88437   0.00000  Uiso   1.00
Zn1350 Zn    0.50000   0.75000   0.78229   0.00000  Uiso   1.00
Zn1351 Zn    0.75000   0.50000   0.88437   0.00000  Uiso   1.00
Zn1352 Zn    0.75000   0.50000   0.78229   0.00000  Uiso   1.00
C1353  C     0.50005   0.79012   0.69110   0.00000  Uiso   1.00
C1354  C     0.99970   0.70988   0.97560   0.00000  Uiso   1.00
C1355  C     0.50009   0.70987   0.69019   0.00000  Uiso   1.00
C1356  C     0.99957   0.79015   0.97650   0.00000  Uiso   1.00
C1357  C     0.74697   0.54003   0.69108   0.00000  Uiso   1.00
C1358  C     0.75147   0.95999   0.97547   0.00000  Uiso   1.00
C1359  C     0.75496   0.96004   0.68984   0.00000  Uiso   1.00
C1360  C     0.74752   0.54008   0.97647   0.00000  Uiso   1.00
C1361  C     0.88312   0.64802   0.79198   0.00000  Uiso   1.00
C1362  C     0.61750   0.85098   0.87446   0.00000  Uiso   1.00
C1363  C     0.62060   0.84413   0.79240   0.00000  Uiso   1.00
C1364  C     0.88337   0.64894   0.87437   0.00000  Uiso   1.00
C1365  C     0.61530   0.64560   0.87446   0.00000  Uiso   1.00
C1366  C     0.88423   0.85351   0.79237   0.00000  Uiso   1.00
C1367  C     0.88540   0.85431   0.87481   0.00000  Uiso   1.00
C1368  C     0.61337   0.64309   0.79201   0.00000  Uiso   1.00
C1369  C     0.64689   0.88255   0.79126   0.00000  Uiso   1.00
C1370  C     0.86363   0.60713   0.87457   0.00000  Uiso   1.00
C1371  C     0.86259   0.60611   0.79203   0.00000  Uiso   1.00
C1372  C     0.63743   0.89249   0.87301   0.00000  Uiso   1.00
C1373  C     0.86523   0.89656   0.87491   0.00000  Uiso   1.00
C1374  C     0.63179   0.60033   0.79253   0.00000  Uiso   1.00
C1375  C     0.63388   0.60292   0.87477   0.00000  Uiso   1.00
C1376  C     0.86515   0.89580   0.79237   0.00000  Uiso   1.00
C1377  C     0.60284   0.83149   0.83379   0.00000  Uiso   1.00
C1378  C     0.89831   0.66611   0.83315   0.00000  Uiso   1.00
C1379  C     0.89951   0.83600   0.83351   0.00000  Uiso   1.00
C1380  C     0.60034   0.66323   0.83315   0.00000  Uiso   1.00
C1381  C     0.84879   0.58838   0.83344   0.00000  Uiso   1.00
C1382  C     0.65522   0.90682   0.83189   0.00000  Uiso   1.00
C1383  C     0.64764   0.58350   0.83367   0.00000  Uiso   1.00
C1384  C     0.85083   0.91453   0.83353   0.00000  Uiso   1.00
N1385  N     0.50178   0.83259   0.71505   0.00000  Uiso   1.00
O1386  O     0.96612   0.85385   0.72421   0.00000  Uiso   1.00
O1387  O     0.53700   0.85613   0.71393   0.00000  Uiso   1.00
N1388  N     0.99720   0.66741   0.95175   0.00000  Uiso   1.00
O1389  O     0.53254   0.64616   0.94132   0.00000  Uiso   1.00
O1390  O     0.96207   0.64381   0.95436   0.00000  Uiso   1.00
N1391  N     0.50147   0.66729   0.71310   0.00000  Uiso   1.00
O1392  O     0.96552   0.64780   0.72343   0.00000  Uiso   1.00
O1393  O     0.53554   0.64181   0.70903   0.00000  Uiso   1.00
N1394  N     0.99714   0.83274   0.95366   0.00000  Uiso   1.00
O1395  O     0.53255   0.85287   0.94260   0.00000  Uiso   1.00
O1396  O     0.96278   0.85766   0.95842   0.00000  Uiso   1.00
N1397  N     0.74657   0.58259   0.71494   0.00000  Uiso   1.00
O1398  O     0.70999   0.60277   0.72222   0.00000  Uiso   1.00
O1399  O     0.78099   0.60746   0.71456   0.00000  Uiso   1.00
N1400  N     0.74512   0.91753   0.95223   0.00000  Uiso   1.00
O1401  O     0.77762   0.89670   0.93386   0.00000  Uiso   1.00
O1402  O     0.71137   0.89366   0.96195   0.00000  Uiso   1.00
N1403  N     0.76876   0.91854   0.71096   0.00000  Uiso   1.00
O1404  O     0.74800   0.90160   0.74453   0.00000  Uiso   1.00
O1405  O     0.79843   0.89361   0.69200   0.00000  Uiso   1.00
N1406  N     0.74405   0.58256   0.95352   0.00000  Uiso   1.00
O1407  O     0.77889   0.60278   0.94083   0.00000  Uiso   1.00
O1408  O     0.70956   0.60715   0.95889   0.00000  Uiso   1.00
O1409  O     0.88618   0.67117   0.75184   0.00000  Uiso   1.00
H1410  H     0.88563   0.70429   0.75870   0.00000  Uiso   1.00
O1411  O     0.61155   0.83138   0.91599   0.00000  Uiso   1.00
H1412  H     0.61204   0.79784   0.91168   0.00000  Uiso   1.00
O1413  O     0.61217   0.81794   0.75428   0.00000  Uiso   1.00
H1414  H     0.61501   0.83651   0.72687   0.00000  Uiso   1.00
O1415  O     0.88794   0.67183   0.91495   0.00000  Uiso   1.00
H1416  H     0.88680   0.70496   0.90885   0.00000  Uiso   1.00
O1417  O     0.61232   0.66902   0.91491   0.00000  Uiso   1.00
H1418  H     0.61392   0.70204   0.90849   0.00000  Uiso   1.00
O1419  O     0.88749   0.83038   0.75179   0.00000  Uiso   1.00
H1420  H     0.88621   0.79730   0.75802   0.00000  Uiso   1.00
O1421  O     0.89195   0.83039   0.91422   0.00000  Uiso   1.00
H1422  H     0.87563   0.84491   0.93918   0.00000  Uiso   1.00
O1423  O     0.60890   0.66424   0.75096   0.00000  Uiso   1.00
H1424  H     0.61191   0.69751   0.75610   0.00000  Uiso   1.00
O1425  O     0.66289   0.89780   0.75087   0.00000  Uiso   1.00
H1426  H     0.67306   0.87112   0.73311   0.00000  Uiso   1.00
O1427  O     0.85987   0.58546   0.91538   0.00000  Uiso   1.00
H1428  H     0.86262   0.55223   0.90972   0.00000  Uiso   1.00
O1429  O     0.85573   0.58186   0.75240   0.00000  Uiso   1.00
H1430  H     0.87156   0.59608   0.72734   0.00000  Uiso   1.00
O1431  O     0.63919   0.91786   0.91236   0.00000  Uiso   1.00
H1432  H     0.63511   0.95029   0.90427   0.00000  Uiso   1.00
O1433  O     0.86155   0.92003   0.91532   0.00000  Uiso   1.00
H1434  H     0.86351   0.95305   0.90899   0.00000  Uiso   1.00
O1435  O     0.63406   0.57617   0.75244   0.00000  Uiso   1.00
H1436  H     0.63476   0.54323   0.75952   0.00000  Uiso   1.00
O1437  O     0.63823   0.58129   0.91560   0.00000  Uiso   1.00
H1438  H     0.63712   0.54797   0.90991   0.00000  Uiso   1.00
O1439  O     0.86081   0.91770   0.75170   0.00000  Uiso   1.00
H1440  H     0.86296   0.95093   0.75755   0.00000  Uiso   1.00
loop_
_geom_bond_atom_site_label_1
_geom_bond_atom_site_label_2
_geom_bond_distance
_geom_bond_site_symmetry_2
_ccdc_geom_bond_type
O1     Zn29    1.989   .     S
O1     C17     1.295   .     A
O2     C18     1.293   .     A
O2     Zn150   1.989   .     S
O3     C18     1.293   .     A
O3     Zn149   1.992   .     S
O4     C17     1.294   .     A
O4     Zn30    1.992   .     S
O5     C19     1.296   .     A
O5     Zn150   2.005   .     S
O6     C20     1.292   .     A
O6     Zn29    2.005   .     S
O7     C20     1.293   .     A
O7     Zn30    1.996   .     S
O8     C19     1.292   .     A
O8     Zn149   1.996   .     S
O9     C21     1.292   .     A
O9     Zn271   1.989   .     S
O10    C22     1.296   .     A
O10    Zn32    1.989   .     S
O11    Zn31    1.992   .     S
O11    C22     1.293   .     A
O12    C21     1.294   .     A
O12    Zn272   1.992   .     S
O13    C23     1.289   .     A
O13    Zn272   2.005   .     S
O14    Zn31    2.005   .     S
O14    C24     1.296   .     A
O15    Zn32    1.996   .     S
O15    C24     1.292   .     A
O16    C23     1.297   .     A
O16    Zn271   1.996   .     S
C17    C60     1.451   .     S
C18    C59     1.446   .     S
C19    C58     1.450   .     S
C20    C57     1.445   .     S
C21    C64     1.446   .     S
C22    C63     1.451   .     S
C23    C62     1.448   .     S
C24    C61     1.451   .     S
N25    C154    1.370   1_455 A
N25    C156    1.372   1_455 A
N25    Zn29    2.017   .     S
N26    Zn30    2.017   .     S
N26    C33     1.370   .     S
N26    C35     1.371   .     S
N27    Zn31    2.017   .     S
N27    C40     1.372   .     A
N27    C278    1.366   1_545 S
N28    Zn32    2.017   .     S
N28    C37     1.370   .     A
N28    C279    1.381   1_545 S
Zn29   O128    1.996   1_455 S
Zn29   O123    1.992   1_455 S
Zn30   O122    1.989   1_455 S
Zn30   O125    2.005   1_455 S
Zn31   O256    1.996   1_545 S
Zn31   O249    1.989   1_545 S
Zn32   O253    2.005   1_545 S
Zn32   O252    1.992   1_545 S
C33    N65     1.430   .     S
C33    C1116   1.421   1_454 S
C34    N145    1.370   .     A
C34    N68     1.430   .     S
C34    C635    1.421   .     S
C35    N71     1.430   .     S
C35    C1114   1.421   1_454 S
C36    N145    1.372   .     A
C36    N74     1.430   .     S
C36    C633    1.421   .     S
C37    N77     1.430   .     S
C37    C1000   1.422   1_554 S
C38    N80     1.432   .     S
C38    N267    1.366   .     S
C38    C519    1.418   .     S
C39    N83     1.438   .     S
C39    N268    1.381   .     S
C39    C998    1.418   1_554 S
C40    N86     1.430   .     S
C40    C517    1.422   .     S
C41    O89     1.381   .     S
C41    C58     1.406   .     A
C41    C51     1.389   .     A
C42    O91     1.379   .     S
C42    C57     1.404   .     A
C42    C52     1.371   .     A
C43    C49     1.397   .     A
C43    O93     1.385   .     S
C43    C57     1.403   .     A
C44    C58     1.409   .     A
C44    C50     1.376   .     A
C44    O95     1.379   .     S
C45    C60     1.410   .     A
C45    O97     1.380   .     S
C45    C55     1.377   .     A
C46    O99     1.379   .     S
C46    C59     1.408   .     A
C46    C56     1.373   .     A
C47    O101    1.383   .     S
C47    C53     1.387   .     A
C47    C59     1.404   .     A
C48    C54     1.378   .     A
C48    C60     1.411   .     A
C48    O103    1.378   .     S
C49    O105    1.379   .     S
C49    C62     1.417   .     A
C50    O107    1.379   .     S
C50    C61     1.409   .     A
C51    C61     1.409   .     A
C51    O109    1.384   .     S
C52    O111    1.379   .     S
C52    C62     1.411   .     A
C53    C64     1.410   .     A
C53    O113    1.381   .     S
C54    C63     1.407   .     A
C54    O115    1.380   .     S
C55    C63     1.408   .     A
C55    O117    1.379   .     S
C56    C64     1.407   .     A
C56    O119    1.378   .     S
N65    O67     1.299   .     A
N65    O186    1.298   1_455 S
O66    N185    1.298   .     S
N68    O70     1.299   .     A
N68    O189    1.298   .     S
O69    N188    1.298   1_455 S
N71    O73     1.299   .     A
N71    O192    1.298   1_455 S
O72    N191    1.298   .     S
N74    O76     1.299   .     A
N74    O195    1.297   .     S
O75    N194    1.297   1_455 S
N77    O78     1.298   .     A
N77    O79     1.299   .     A
N80    O82     1.300   .     A
N80    O81     1.298   .     A
N83    O84     1.294   .     A
N83    O85     1.301   .     A
N86    O88     1.299   .     A
N86    O87     1.297   .     A
O89    H90     0.992   .     S
O91    H92     0.992   .     S
O93    H94     0.988   .     S
O95    H96     0.992   .     S
O97    H98     0.992   .     S
O99    H100    0.992   .     S
O101   H102    0.991   .     S
O103   H104    0.992   .     S
O105   H106    0.991   .     S
O107   H108    0.992   .     S
O109   H110    0.991   .     S
O111   H112    0.992   .     S
O113   H114    0.992   .     S
O115   H116    0.992   .     S
O117   H118    0.992   .     S
O119   H120    0.992   .     S
O121   Zn149   1.989   .     S
O121   C137    1.295   .     A
O122   C138    1.293   .     A
O122   Zn30    1.989   1_655 S
O123   C138    1.293   .     A
O123   Zn29    1.992   1_655 S
O124   C137    1.294   .     A
O124   Zn150   1.992   .     S
O125   C139    1.296   .     A
O125   Zn30    2.005   1_655 S
O126   C140    1.292   .     A
O126   Zn149   2.005   .     S
O127   C140    1.293   .     A
O127   Zn150   1.996   .     S
O128   C139    1.292   .     A
O128   Zn29    1.996   1_655 S
O129   C141    1.292   .     A
O129   Zn391   1.989   .     S
O130   C142    1.296   .     A
O130   Zn152   1.989   .     S
O131   Zn151   1.992   .     S
O131   C142    1.293   .     A
O132   C141    1.294   .     A
O132   Zn392   1.992   .     S
O133   C143    1.289   .     A
O133   Zn392   2.005   .     S
O134   Zn151   2.005   .     S
O134   C144    1.296   .     A
O135   Zn152   1.996   .     S
O135   C144    1.292   .     A
O136   C143    1.297   .     A
O136   Zn391   1.996   .     S
C137   C180    1.451   .     S
C138   C179    1.446   .     S
C139   C178    1.450   .     S
C140   C177    1.445   .     S
C141   C184    1.446   .     S
C142   C183    1.451   .     S
C143   C182    1.448   .     S
C144   C181    1.451   .     S
N145   Zn149   2.017   .     S
N146   Zn150   2.017   .     S
N146   C153    1.370   .     S
N146   C155    1.371   .     S
N147   Zn151   2.017   .     S
N147   C160    1.372   .     A
N147   C398    1.366   1_545 S
N148   Zn152   2.017   .     S
N148   C157    1.370   .     A
N148   C399    1.381   1_545 S
Zn151  O376    1.996   1_545 S
Zn151  O369    1.989   1_545 S
Zn152  O373    2.005   1_545 S
Zn152  O372    1.992   1_545 S
C153   N185    1.430   .     S
C153   C996    1.421   1_554 S
C154   N25     1.370   1_655 A
C154   N188    1.430   .     S
C154   C515    1.421   1_655 S
C155   N191    1.430   .     S
C155   C994    1.421   1_554 S
C156   N25     1.372   1_655 A
C156   N194    1.430   .     S
C156   C513    1.421   1_655 S
C157   N197    1.430   .     S
C157   C1120   1.422   1_554 S
C158   N200    1.432   .     S
C158   N387    1.366   .     S
C158   C639    1.418   .     S
C159   N203    1.438   .     S
C159   N388    1.381   .     S
C159   C1118   1.418   1_554 S
C160   N206    1.430   .     S
C160   C637    1.422   .     S
C161   O209    1.381   .     S
C161   C178    1.406   .     A
C161   C171    1.389   .     A
C162   O211    1.379   .     S
C162   C177    1.404   .     A
C162   C172    1.371   .     A
C163   C169    1.397   .     A
C163   O213    1.385   .     S
C163   C177    1.403   .     A
C164   C178    1.409   .     A
C164   C170    1.376   .     A
C164   O215    1.379   .     S
C165   C180    1.410   .     A
C165   O217    1.380   .     S
C165   C175    1.377   .     A
C166   O219    1.379   .     S
C166   C179    1.408   .     A
C166   C176    1.373   .     A
C167   O221    1.383   .     S
C167   C173    1.387   .     A
C167   C179    1.404   .     A
C168   C174    1.378   .     A
C168   C180    1.411   .     A
C168   O223    1.378   .     S
C169   O225    1.379   .     S
C169   C182    1.417   .     A
C170   O227    1.379   .     S
C170   C181    1.409   .     A
C171   C181    1.409   .     A
C171   O229    1.384   .     S
C172   O231    1.379   .     S
C172   C182    1.411   .     A
C173   C184    1.410   .     A
C173   O233    1.381   .     S
C174   C183    1.407   .     A
C174   O235    1.380   .     S
C175   C183    1.408   .     A
C175   O237    1.379   .     S
C176   C184    1.407   .     A
C176   O239    1.378   .     S
N185   O187    1.299   .     A
O186   N65     1.298   1_655 S
N188   O190    1.299   .     A
N188   O69     1.298   1_655 S
N191   O193    1.299   .     A
O192   N71     1.298   1_655 S
N194   O196    1.299   .     A
N194   O75     1.297   1_655 S
N197   O198    1.298   .     A
N197   O199    1.299   .     A
N200   O202    1.300   .     A
N200   O201    1.298   .     A
N203   O204    1.294   .     A
N203   O205    1.301   .     A
N206   O208    1.299   .     A
N206   O207    1.297   .     A
O209   H210    0.992   .     S
O211   H212    0.992   .     S
O213   H214    0.988   .     S
O215   H216    0.992   .     S
O217   H218    0.992   .     S
O219   H220    0.992   .     S
O221   H222    0.991   .     S
O223   H224    0.992   .     S
O225   H226    0.991   .     S
O227   H228    0.992   .     S
O229   H230    0.991   .     S
O231   H232    0.992   .     S
O233   H234    0.992   .     S
O235   H236    0.992   .     S
O237   H238    0.992   .     S
O239   H240    0.992   .     S
O241   Zn269   1.989   .     S
O241   C257    1.295   .     A
O242   C258    1.293   .     A
O242   Zn390   1.989   .     S
O243   C258    1.293   .     A
O243   Zn389   1.992   .     S
O244   C257    1.294   .     A
O244   Zn270   1.992   .     S
O245   C259    1.296   .     A
O245   Zn390   2.005   .     S
O246   C260    1.292   .     A
O246   Zn269   2.005   .     S
O247   C260    1.293   .     A
O247   Zn270   1.996   .     S
O248   C259    1.292   .     A
O248   Zn389   1.996   .     S
O249   C261    1.292   .     A
O249   Zn31    1.989   1_565 S
O250   C262    1.296   .     A
O250   Zn272   1.989   .     S
O251   Zn271   1.992   .     S
O251   C262    1.293   .     A
O252   C261    1.294   .     A
O252   Zn32    1.992   1_565 S
O253   C263    1.289   .     A
O253   Zn32    2.005   1_565 S
O254   Zn271   2.005   .     S
O254   C264    1.296   .     A
O255   Zn272   1.996   .     S
O255   C264    1.292   .     A
O256   C263    1.297   .     A
O256   Zn31    1.996   1_565 S
C257   C300    1.451   .     S
C258   C299    1.446   .     S
C259   C298    1.450   .     S
C260   C297    1.445   .     S
C261   C304    1.446   .     S
C262   C303    1.451   .     S
C263   C302    1.448   .     S
C264   C301    1.451   .     S
N265   C394    1.370   1_455 A
N265   C396    1.372   1_455 A
N265   Zn269   2.017   .     S
N266   Zn270   2.017   .     S
N266   C273    1.370   .     S
N266   C275    1.371   .     S
N267   Zn271   2.017   .     S
N267   C280    1.372   .     A
N268   Zn272   2.017   .     S
N268   C277    1.370   .     A
Zn269  O368    1.996   1_455 S
Zn269  O363    1.992   1_455 S
Zn270  O362    1.989   1_455 S
Zn270  O365    2.005   1_455 S
C273   N305    1.430   .     S
C273   C1356   1.421   1_454 S
C274   N385    1.370   .     A
C274   N308    1.430   .     S
C274   C875    1.421   .     S
C275   N311    1.430   .     S
C275   C1354   1.421   1_454 S
C276   N385    1.372   .     A
C276   N314    1.430   .     S
C276   C873    1.421   .     S
C277   N317    1.430   .     S
C277   C1240   1.422   1_554 S
C278   N320    1.432   .     S
C278   N27     1.366   1_565 S
C278   C759    1.418   .     S
C279   N323    1.438   .     S
C279   N28     1.381   1_565 S
C279   C1238   1.418   1_554 S
C280   N326    1.430   .     S
C280   C757    1.422   .     S
C281   O329    1.381   .     S
C281   C298    1.406   .     A
C281   C291    1.389   .     A
C282   O331    1.379   .     S
C282   C297    1.404   .     A
C282   C292    1.371   .     A
C283   C289    1.397   .     A
C283   O333    1.385   .     S
C283   C297    1.403   .     A
C284   C298    1.409   .     A
C284   C290    1.376   .     A
C284   O335    1.379   .     S
C285   C300    1.410   .     A
C285   O337    1.380   .     S
C285   C295    1.377   .     A
C286   O339    1.379   .     S
C286   C299    1.408   .     A
C286   C296    1.373   .     A
C287   O341    1.383   .     S
C287   C293    1.387   .     A
C287   C299    1.404   .     A
C288   C294    1.378   .     A
C288   C300    1.411   .     A
C288   O343    1.378   .     S
C289   O345    1.379   .     S
C289   C302    1.417   .     A
C290   O347    1.379   .     S
C290   C301    1.409   .     A
C291   C301    1.409   .     A
C291   O349    1.384   .     S
C292   O351    1.379   .     S
C292   C302    1.411   .     A
C293   C304    1.410   .     A
C293   O353    1.381   .     S
C294   C303    1.407   .     A
C294   O355    1.380   .     S
C295   C303    1.408   .     A
C295   O357    1.379   .     S
C296   C304    1.407   .     A
C296   O359    1.378   .     S
N305   O307    1.299   .     A
N305   O426    1.298   1_455 S
O306   N425    1.298   .     S
N308   O310    1.299   .     A
N308   O429    1.298   .     S
O309   N428    1.298   1_455 S
N311   O313    1.299   .     A
N311   O432    1.298   1_455 S
O312   N431    1.298   .     S
N314   O316    1.299   .     A
N314   O435    1.297   .     S
O315   N434    1.297   1_455 S
N317   O318    1.298   .     A
N317   O319    1.299   .     A
N320   O322    1.300   .     A
N320   O321    1.298   .     A
N323   O324    1.294   .     A
N323   O325    1.301   .     A
N326   O328    1.299   .     A
N326   O327    1.297   .     A
O329   H330    0.992   .     S
O331   H332    0.992   .     S
O333   H334    0.988   .     S
O335   H336    0.992   .     S
O337   H338    0.992   .     S
O339   H340    0.992   .     S
O341   H342    0.991   .     S
O343   H344    0.992   .     S
O345   H346    0.991   .     S
O347   H348    0.992   .     S
O349   H350    0.991   .     S
O351   H352    0.992   .     S
O353   H354    0.992   .     S
O355   H356    0.992   .     S
O357   H358    0.992   .     S
O359   H360    0.992   .     S
O361   Zn389   1.989   .     S
O361   C377    1.295   .     A
O362   C378    1.293   .     A
O362   Zn270   1.989   1_655 S
O363   C378    1.293   .     A
O363   Zn269   1.992   1_655 S
O364   C377    1.294   .     A
O364   Zn390   1.992   .     S
O365   C379    1.296   .     A
O365   Zn270   2.005   1_655 S
O366   C380    1.292   .     A
O366   Zn389   2.005   .     S
O367   C380    1.293   .     A
O367   Zn390   1.996   .     S
O368   C379    1.292   .     A
O368   Zn269   1.996   1_655 S
O369   C381    1.292   .     A
O369   Zn151   1.989   1_565 S
O370   C382    1.296   .     A
O370   Zn392   1.989   .     S
O371   Zn391   1.992   .     S
O371   C382    1.293   .     A
O372   C381    1.294   .     A
O372   Zn152   1.992   1_565 S
O373   C383    1.289   .     A
O373   Zn152   2.005   1_565 S
O374   Zn391   2.005   .     S
O374   C384    1.296   .     A
O375   Zn392   1.996   .     S
O375   C384    1.292   .     A
O376   C383    1.297   .     A
O376   Zn151   1.996   1_565 S
C377   C420    1.451   .     S
C378   C419    1.446   .     S
C379   C418    1.450   .     S
C380   C417    1.445   .     S
C381   C424    1.446   .     S
C382   C423    1.451   .     S
C383   C422    1.448   .     S
C384   C421    1.451   .     S
N385   Zn389   2.017   .     S
N386   Zn390   2.017   .     S
N386   C393    1.370   .     S
N386   C395    1.371   .     S
N387   Zn391   2.017   .     S
N387   C400    1.372   .     A
N388   Zn392   2.017   .     S
N388   C397    1.370   .     A
C393   N425    1.430   .     S
C393   C1236   1.421   1_554 S
C394   N265    1.370   1_655 A
C394   N428    1.430   .     S
C394   C755    1.421   1_655 S
C395   N431    1.430   .     S
C395   C1234   1.421   1_554 S
C396   N265    1.372   1_655 A
C396   N434    1.430   .     S
C396   C753    1.421   1_655 S
C397   N437    1.430   .     S
C397   C1360   1.422   1_554 S
C398   N440    1.432   .     S
C398   N147    1.366   1_565 S
C398   C879    1.418   .     S
C399   N443    1.438   .     S
C399   N148    1.381   1_565 S
C399   C1358   1.418   1_554 S
C400   N446    1.430   .     S
C400   C877    1.422   .     S
C401   O449    1.381   .     S
C401   C418    1.406   .     A
C401   C411    1.389   .     A
C402   O451    1.379   .     S
C402   C417    1.404   .     A
C402   C412    1.371   .     A
C403   C409    1.397   .     A
C403   O453    1.385   .     S
C403   C417    1.403   .     A
C404   C418    1.409   .     A
C404   C410    1.376   .     A
C404   O455    1.379   .     S
C405   C420    1.410   .     A
C405   O457    1.380   .     S
C405   C415    1.377   .     A
C406   O459    1.379   .     S
C406   C419    1.408   .     A
C406   C416    1.373   .     A
C407   O461    1.383   .     S
C407   C413    1.387   .     A
C407   C419    1.404   .     A
C408   C414    1.378   .     A
C408   C420    1.411   .     A
C408   O463    1.378   .     S
C409   O465    1.379   .     S
C409   C422    1.417   .     A
C410   O467    1.379   .     S
C410   C421    1.409   .     A
C411   C421    1.409   .     A
C411   O469    1.384   .     S
C412   O471    1.379   .     S
C412   C422    1.411   .     A
C413   C424    1.410   .     A
C413   O473    1.381   .     S
C414   C423    1.407   .     A
C414   O475    1.380   .     S
C415   C423    1.408   .     A
C415   O477    1.379   .     S
C416   C424    1.407   .     A
C416   O479    1.378   .     S
N425   O427    1.299   .     A
O426   N305    1.298   1_655 S
N428   O430    1.299   .     A
N428   O309    1.298   1_655 S
N431   O433    1.299   .     A
O432   N311    1.298   1_655 S
N434   O436    1.299   .     A
N434   O315    1.297   1_655 S
N437   O438    1.298   .     A
N437   O439    1.299   .     A
N440   O442    1.300   .     A
N440   O441    1.298   .     A
N443   O444    1.294   .     A
N443   O445    1.301   .     A
N446   O448    1.299   .     A
N446   O447    1.297   .     A
O449   H450    0.992   .     S
O451   H452    0.992   .     S
O453   H454    0.988   .     S
O455   H456    0.992   .     S
O457   H458    0.992   .     S
O459   H460    0.992   .     S
O461   H462    0.991   .     S
O463   H464    0.992   .     S
O465   H466    0.991   .     S
O467   H468    0.992   .     S
O469   H470    0.991   .     S
O471   H472    0.992   .     S
O473   H474    0.992   .     S
O475   H476    0.992   .     S
O477   H478    0.992   .     S
O479   H480    0.992   .     S
O481   Zn509   1.989   .     S
O481   C497    1.295   .     A
O482   C498    1.293   .     A
O482   Zn630   1.989   .     S
O483   C498    1.293   .     A
O483   Zn629   1.992   .     S
O484   C497    1.294   .     A
O484   Zn510   1.992   .     S
O485   C499    1.296   .     A
O485   Zn630   2.005   .     S
O486   C500    1.292   .     A
O486   Zn509   2.005   .     S
O487   C500    1.293   .     A
O487   Zn510   1.996   .     S
O488   C499    1.292   .     A
O488   Zn629   1.996   .     S
O489   C501    1.292   .     A
O489   Zn751   1.989   .     S
O490   C502    1.296   .     A
O490   Zn512   1.989   .     S
O491   Zn511   1.992   .     S
O491   C502    1.293   .     A
O492   C501    1.294   .     A
O492   Zn752   1.992   .     S
O493   C503    1.289   .     A
O493   Zn752   2.005   .     S
O494   Zn511   2.005   .     S
O494   C504    1.296   .     A
O495   Zn512   1.996   .     S
O495   C504    1.292   .     A
O496   C503    1.297   .     A
O496   Zn751   1.996   .     S
C497   C540    1.451   .     S
C498   C539    1.446   .     S
C499   C538    1.450   .     S
C500   C537    1.445   .     S
C501   C544    1.446   .     S
C502   C543    1.451   .     S
C503   C542    1.448   .     S
C504   C541    1.451   .     S
N505   C634    1.370   1_455 A
N505   C636    1.372   1_455 A
N505   Zn509   2.017   .     S
N506   Zn510   2.017   .     S
N506   C513    1.370   .     S
N506   C515    1.371   .     S
N507   Zn511   2.017   .     S
N507   C520    1.372   .     A
N507   C758    1.366   1_545 S
N508   Zn512   2.017   .     S
N508   C517    1.370   .     A
N508   C759    1.381   1_545 S
Zn509  O608    1.996   1_455 S
Zn509  O603    1.992   1_455 S
Zn510  O602    1.989   1_455 S
Zn510  O605    2.005   1_455 S
Zn511  O736    1.996   1_545 S
Zn511  O729    1.989   1_545 S
Zn512  O733    2.005   1_545 S
Zn512  O732    1.992   1_545 S
C513   N545    1.430   .     S
C513   C156    1.421   1_455 S
C514   N625    1.370   .     A
C514   N548    1.430   .     S
C514   C1115   1.421   .     S
C515   N551    1.430   .     S
C515   C154    1.421   1_455 S
C516   N625    1.372   .     A
C516   N554    1.430   .     S
C516   C1113   1.421   .     S
C517   N557    1.430   .     S
C518   N560    1.432   .     S
C518   N747    1.366   .     S
C518   C999    1.418   .     S
C519   N563    1.438   .     S
C519   N748    1.381   .     S
C520   N566    1.430   .     S
C520   C997    1.422   .     S
C521   O569    1.381   .     S
C521   C538    1.406   .     A
C521   C531    1.389   .     A
C522   O571    1.379   .     S
C522   C537    1.404   .     A
C522   C532    1.371   .     A
C523   C529    1.397   .     A
C523   O573    1.385   .     S
C523   C537    1.403   .     A
C524   C538    1.409   .     A
C524   C530    1.376   .     A
C524   O575    1.379   .     S
C525   C540    1.410   .     A
C525   O577    1.380   .     S
C525   C535    1.377   .     A
C526   O579    1.379   .     S
C526   C539    1.408   .     A
C526   C536    1.373   .     A
C527   O581    1.383   .     S
C527   C533    1.387   .     A
C527   C539    1.404   .     A
C528   C534    1.378   .     A
C528   C540    1.411   .     A
C528   O583    1.378   .     S
C529   O585    1.379   .     S
C529   C542    1.417   .     A
C530   O587    1.379   .     S
C530   C541    1.409   .     A
C531   C541    1.409   .     A
C531   O589    1.384   .     S
C532   O591    1.379   .     S
C532   C542    1.411   .     A
C533   C544    1.410   .     A
C533   O593    1.381   .     S
C534   C543    1.407   .     A
C534   O595    1.380   .     S
C535   C543    1.408   .     A
C535   O597    1.379   .     S
C536   C544    1.407   .     A
C536   O599    1.378   .     S
N545   O547    1.299   .     A
N545   O666    1.298   1_455 S
O546   N665    1.298   .     S
N548   O550    1.299   .     A
N548   O669    1.298   .     S
O549   N668    1.298   1_455 S
N551   O553    1.299   .     A
N551   O672    1.298   1_455 S
O552   N671    1.298   .     S
N554   O556    1.299   .     A
N554   O675    1.297   .     S
O555   N674    1.297   1_455 S
N557   O558    1.298   .     A
N557   O559    1.299   .     A
N560   O562    1.300   .     A
N560   O561    1.298   .     A
N563   O564    1.294   .     A
N563   O565    1.301   .     A
N566   O568    1.299   .     A
N566   O567    1.297   .     A
O569   H570    0.992   .     S
O571   H572    0.992   .     S
O573   H574    0.988   .     S
O575   H576    0.992   .     S
O577   H578    0.992   .     S
O579   H580    0.992   .     S
O581   H582    0.991   .     S
O583   H584    0.992   .     S
O585   H586    0.991   .     S
O587   H588    0.992   .     S
O589   H590    0.991   .     S
O591   H592    0.992   .     S
O593   H594    0.992   .     S
O595   H596    0.992   .     S
O597   H598    0.992   .     S
O599   H600    0.992   .     S
O601   Zn629   1.989   .     S
O601   C617    1.295   .     A
O602   C618    1.293   .     A
O602   Zn510   1.989   1_655 S
O603   C618    1.293   .     A
O603   Zn509   1.992   1_655 S
O604   C617    1.294   .     A
O604   Zn630   1.992   .     S
O605   C619    1.296   .     A
O605   Zn510   2.005   1_655 S
O606   C620    1.292   .     A
O606   Zn629   2.005   .     S
O607   C620    1.293   .     A
O607   Zn630   1.996   .     S
O608   C619    1.292   .     A
O608   Zn509   1.996   1_655 S
O609   C621    1.292   .     A
O609   Zn871   1.989   .     S
O610   C622    1.296   .     A
O610   Zn632   1.989   .     S
O611   Zn631   1.992   .     S
O611   C622    1.293   .     A
O612   C621    1.294   .     A
O612   Zn872   1.992   .     S
O613   C623    1.289   .     A
O613   Zn872   2.005   .     S
O614   Zn631   2.005   .     S
O614   C624    1.296   .     A
O615   Zn632   1.996   .     S
O615   C624    1.292   .     A
O616   C623    1.297   .     A
O616   Zn871   1.996   .     S
C617   C660    1.451   .     S
C618   C659    1.446   .     S
C619   C658    1.450   .     S
C620   C657    1.445   .     S
C621   C664    1.446   .     S
C622   C663    1.451   .     S
C623   C662    1.448   .     S
C624   C661    1.451   .     S
N625   Zn629   2.017   .     S
N626   Zn630   2.017   .     S
N626   C633    1.370   .     S
N626   C635    1.371   .     S
N627   Zn631   2.017   .     S
N627   C640    1.372   .     A
N627   C878    1.366   1_545 S
N628   Zn632   2.017   .     S
N628   C637    1.370   .     A
N628   C879    1.381   1_545 S
Zn631  O856    1.996   1_545 S
Zn631  O849    1.989   1_545 S
Zn632  O853    2.005   1_545 S
Zn632  O852    1.992   1_545 S
C633   N665    1.430   .     S
C634   N505    1.370   1_655 A
C634   N668    1.430   .     S
C634   C995    1.421   1_655 S
C635   N671    1.430   .     S
C636   N505    1.372   1_655 A
C636   N674    1.430   .     S
C636   C993    1.421   1_655 S
C637   N677    1.430   .     S
C638   N680    1.432   .     S
C638   N867    1.366   .     S
C638   C1119   1.418   .     S
C639   N683    1.438   .     S
C639   N868    1.381   .     S
C640   N686    1.430   .     S
C640   C1117   1.422   .     S
C641   O689    1.381   .     S
C641   C658    1.406   .     A
C641   C651    1.389   .     A
C642   O691    1.379   .     S
C642   C657    1.404   .     A
C642   C652    1.371   .     A
C643   C649    1.397   .     A
C643   O693    1.385   .     S
C643   C657    1.403   .     A
C644   C658    1.409   .     A
C644   C650    1.376   .     A
C644   O695    1.379   .     S
C645   C660    1.410   .     A
C645   O697    1.380   .     S
C645   C655    1.377   .     A
C646   O699    1.379   .     S
C646   C659    1.408   .     A
C646   C656    1.373   .     A
C647   O701    1.383   .     S
C647   C653    1.387   .     A
C647   C659    1.404   .     A
C648   C654    1.378   .     A
C648   C660    1.411   .     A
C648   O703    1.378   .     S
C649   O705    1.379   .     S
C649   C662    1.417   .     A
C650   O707    1.379   .     S
C650   C661    1.409   .     A
C651   C661    1.409   .     A
C651   O709    1.384   .     S
C652   O711    1.379   .     S
C652   C662    1.411   .     A
C653   C664    1.410   .     A
C653   O713    1.381   .     S
C654   C663    1.407   .     A
C654   O715    1.380   .     S
C655   C663    1.408   .     A
C655   O717    1.379   .     S
C656   C664    1.407   .     A
C656   O719    1.378   .     S
N665   O667    1.299   .     A
O666   N545    1.298   1_655 S
N668   O670    1.299   .     A
N668   O549    1.298   1_655 S
N671   O673    1.299   .     A
O672   N551    1.298   1_655 S
N674   O676    1.299   .     A
N674   O555    1.297   1_655 S
N677   O678    1.298   .     A
N677   O679    1.299   .     A
N680   O682    1.300   .     A
N680   O681    1.298   .     A
N683   O684    1.294   .     A
N683   O685    1.301   .     A
N686   O688    1.299   .     A
N686   O687    1.297   .     A
O689   H690    0.992   .     S
O691   H692    0.992   .     S
O693   H694    0.988   .     S
O695   H696    0.992   .     S
O697   H698    0.992   .     S
O699   H700    0.992   .     S
O701   H702    0.991   .     S
O703   H704    0.992   .     S
O705   H706    0.991   .     S
O707   H708    0.992   .     S
O709   H710    0.991   .     S
O711   H712    0.992   .     S
O713   H714    0.992   .     S
O715   H716    0.992   .     S
O717   H718    0.992   .     S
O719   H720    0.992   .     S
O721   Zn749   1.989   .     S
O721   C737    1.295   .     A
O722   C738    1.293   .     A
O722   Zn870   1.989   .     S
O723   C738    1.293   .     A
O723   Zn869   1.992   .     S
O724   C737    1.294   .     A
O724   Zn750   1.992   .     S
O725   C739    1.296   .     A
O725   Zn870   2.005   .     S
O726   C740    1.292   .     A
O726   Zn749   2.005   .     S
O727   C740    1.293   .     A
O727   Zn750   1.996   .     S
O728   C739    1.292   .     A
O728   Zn869   1.996   .     S
O729   C741    1.292   .     A
O729   Zn511   1.989   1_565 S
O730   C742    1.296   .     A
O730   Zn752   1.989   .     S
O731   Zn751   1.992   .     S
O731   C742    1.293   .     A
O732   C741    1.294   .     A
O732   Zn512   1.992   1_565 S
O733   C743    1.289   .     A
O733   Zn512   2.005   1_565 S
O734   Zn751   2.005   .     S
O734   C744    1.296   .     A
O735   Zn752   1.996   .     S
O735   C744    1.292   .     A
O736   C743    1.297   .     A
O736   Zn511   1.996   1_565 S
C737   C780    1.451   .     S
C738   C779    1.446   .     S
C739   C778    1.450   .     S
C740   C777    1.445   .     S
C741   C784    1.446   .     S
C742   C783    1.451   .     S
C743   C782    1.448   .     S
C744   C781    1.451   .     S
N745   C874    1.370   1_455 A
N745   C876    1.372   1_455 A
N745   Zn749   2.017   .     S
N746   Zn750   2.017   .     S
N746   C753    1.370   .     S
N746   C755    1.371   .     S
N747   Zn751   2.017   .     S
N747   C760    1.372   .     A
N748   Zn752   2.017   .     S
N748   C757    1.370   .     A
Zn749  O848    1.996   1_455 S
Zn749  O843    1.992   1_455 S
Zn750  O842    1.989   1_455 S
Zn750  O845    2.005   1_455 S
C753   N785    1.430   .     S
C753   C396    1.421   1_455 S
C754   N865    1.370   .     A
C754   N788    1.430   .     S
C754   C1355   1.421   .     S
C755   N791    1.430   .     S
C755   C394    1.421   1_455 S
C756   N865    1.372   .     A
C756   N794    1.430   .     S
C756   C1353   1.421   .     S
C757   N797    1.430   .     S
C758   N800    1.432   .     S
C758   N507    1.366   1_565 S
C758   C1239   1.418   .     S
C759   N803    1.438   .     S
C759   N508    1.381   1_565 S
C760   N806    1.430   .     S
C760   C1237   1.422   .     S
C761   O809    1.381   .     S
C761   C778    1.406   .     A
C761   C771    1.389   .     A
C762   O811    1.379   .     S
C762   C777    1.404   .     A
C762   C772    1.371   .     A
C763   C769    1.397   .     A
C763   O813    1.385   .     S
C763   C777    1.403   .     A
C764   C778    1.409   .     A
C764   C770    1.376   .     A
C764   O815    1.379   .     S
C765   C780    1.410   .     A
C765   O817    1.380   .     S
C765   C775    1.377   .     A
C766   O819    1.379   .     S
C766   C779    1.408   .     A
C766   C776    1.373   .     A
C767   O821    1.383   .     S
C767   C773    1.387   .     A
C767   C779    1.404   .     A
C768   C774    1.378   .     A
C768   C780    1.411   .     A
C768   O823    1.378   .     S
C769   O825    1.379   .     S
C769   C782    1.417   .     A
C770   O827    1.379   .     S
C770   C781    1.409   .     A
C771   C781    1.409   .     A
C771   O829    1.384   .     S
C772   O831    1.379   .     S
C772   C782    1.411   .     A
C773   C784    1.410   .     A
C773   O833    1.381   .     S
C774   C783    1.407   .     A
C774   O835    1.380   .     S
C775   C783    1.408   .     A
C775   O837    1.379   .     S
C776   C784    1.407   .     A
C776   O839    1.378   .     S
N785   O787    1.299   .     A
N785   O906    1.298   1_455 S
O786   N905    1.298   .     S
N788   O790    1.299   .     A
N788   O909    1.298   .     S
O789   N908    1.298   1_455 S
N791   O793    1.299   .     A
N791   O912    1.298   1_455 S
O792   N911    1.298   .     S
N794   O796    1.299   .     A
N794   O915    1.297   .     S
O795   N914    1.297   1_455 S
N797   O798    1.298   .     A
N797   O799    1.299   .     A
N800   O802    1.300   .     A
N800   O801    1.298   .     A
N803   O804    1.294   .     A
N803   O805    1.301   .     A
N806   O808    1.299   .     A
N806   O807    1.297   .     A
O809   H810    0.992   .     S
O811   H812    0.992   .     S
O813   H814    0.988   .     S
O815   H816    0.992   .     S
O817   H818    0.992   .     S
O819   H820    0.992   .     S
O821   H822    0.991   .     S
O823   H824    0.992   .     S
O825   H826    0.991   .     S
O827   H828    0.992   .     S
O829   H830    0.991   .     S
O831   H832    0.992   .     S
O833   H834    0.992   .     S
O835   H836    0.992   .     S
O837   H838    0.992   .     S
O839   H840    0.992   .     S
O841   Zn869   1.989   .     S
O841   C857    1.295   .     A
O842   C858    1.293   .     A
O842   Zn750   1.989   1_655 S
O843   C858    1.293   .     A
O843   Zn749   1.992   1_655 S
O844   C857    1.294   .     A
O844   Zn870   1.992   .     S
O845   C859    1.296   .     A
O845   Zn750   2.005   1_655 S
O846   C860    1.292   .     A
O846   Zn869   2.005   .     S
O847   C860    1.293   .     A
O847   Zn870   1.996   .     S
O848   C859    1.292   .     A
O848   Zn749   1.996   1_655 S
O849   C861    1.292   .     A
O849   Zn631   1.989   1_565 S
O850   C862    1.296   .     A
O850   Zn872   1.989   .     S
O851   Zn871   1.992   .     S
O851   C862    1.293   .     A
O852   C861    1.294   .     A
O852   Zn632   1.992   1_565 S
O853   C863    1.289   .     A
O853   Zn632   2.005   1_565 S
O854   Zn871   2.005   .     S
O854   C864    1.296   .     A
O855   Zn872   1.996   .     S
O855   C864    1.292   .     A
O856   C863    1.297   .     A
O856   Zn631   1.996   1_565 S
C857   C900    1.451   .     S
C858   C899    1.446   .     S
C859   C898    1.450   .     S
C860   C897    1.445   .     S
C861   C904    1.446   .     S
C862   C903    1.451   .     S
C863   C902    1.448   .     S
C864   C901    1.451   .     S
N865   Zn869   2.017   .     S
N866   Zn870   2.017   .     S
N866   C873    1.370   .     S
N866   C875    1.371   .     S
N867   Zn871   2.017   .     S
N867   C880    1.372   .     A
N868   Zn872   2.017   .     S
N868   C877    1.370   .     A
C873   N905    1.430   .     S
C874   N745    1.370   1_655 A
C874   N908    1.430   .     S
C874   C1235   1.421   1_655 S
C875   N911    1.430   .     S
C876   N745    1.372   1_655 A
C876   N914    1.430   .     S
C876   C1233   1.421   1_655 S
C877   N917    1.430   .     S
C878   N920    1.432   .     S
C878   N627    1.366   1_565 S
C878   C1359   1.418   .     S
C879   N923    1.438   .     S
C879   N628    1.381   1_565 S
C880   N926    1.430   .     S
C880   C1357   1.422   .     S
C881   O929    1.381   .     S
C881   C898    1.406   .     A
C881   C891    1.389   .     A
C882   O931    1.379   .     S
C882   C897    1.404   .     A
C882   C892    1.371   .     A
C883   C889    1.397   .     A
C883   O933    1.385   .     S
C883   C897    1.403   .     A
C884   C898    1.409   .     A
C884   C890    1.376   .     A
C884   O935    1.379   .     S
C885   C900    1.410   .     A
C885   O937    1.380   .     S
C885   C895    1.377   .     A
C886   O939    1.379   .     S
C886   C899    1.408   .     A
C886   C896    1.373   .     A
C887   O941    1.383   .     S
C887   C893    1.387   .     A
C887   C899    1.404   .     A
C888   C894    1.378   .     A
C888   C900    1.411   .     A
C888   O943    1.378   .     S
C889   O945    1.379   .     S
C889   C902    1.417   .     A
C890   O947    1.379   .     S
C890   C901    1.409   .     A
C891   C901    1.409   .     A
C891   O949    1.384   .     S
C892   O951    1.379   .     S
C892   C902    1.411   .     A
C893   C904    1.410   .     A
C893   O953    1.381   .     S
C894   C903    1.407   .     A
C894   O955    1.380   .     S
C895   C903    1.408   .     A
C895   O957    1.379   .     S
C896   C904    1.407   .     A
C896   O959    1.378   .     S
N905   O907    1.299   .     A
O906   N785    1.298   1_655 S
N908   O910    1.299   .     A
N908   O789    1.298   1_655 S
N911   O913    1.299   .     A
O912   N791    1.298   1_655 S
N914   O916    1.299   .     A
N914   O795    1.297   1_655 S
N917   O918    1.298   .     A
N917   O919    1.299   .     A
N920   O922    1.300   .     A
N920   O921    1.298   .     A
N923   O924    1.294   .     A
N923   O925    1.301   .     A
N926   O928    1.299   .     A
N926   O927    1.297   .     A
O929   H930    0.992   .     S
O931   H932    0.992   .     S
O933   H934    0.988   .     S
O935   H936    0.992   .     S
O937   H938    0.992   .     S
O939   H940    0.992   .     S
O941   H942    0.991   .     S
O943   H944    0.992   .     S
O945   H946    0.991   .     S
O947   H948    0.992   .     S
O949   H950    0.991   .     S
O951   H952    0.992   .     S
O953   H954    0.992   .     S
O955   H956    0.992   .     S
O957   H958    0.992   .     S
O959   H960    0.992   .     S
O961   Zn989   1.989   .     S
O961   C977    1.295   .     A
O962   C978    1.293   .     A
O962   Zn1110  1.989   .     S
O963   C978    1.293   .     A
O963   Zn1109  1.992   .     S
O964   C977    1.294   .     A
O964   Zn990   1.992   .     S
O965   C979    1.296   .     A
O965   Zn1110  2.005   .     S
O966   C980    1.292   .     A
O966   Zn989   2.005   .     S
O967   C980    1.293   .     A
O967   Zn990   1.996   .     S
O968   C979    1.292   .     A
O968   Zn1109  1.996   .     S
O969   C981    1.292   .     A
O969   Zn1231  1.989   .     S
O970   C982    1.296   .     A
O970   Zn992   1.989   .     S
O971   Zn991   1.992   .     S
O971   C982    1.293   .     A
O972   C981    1.294   .     A
O972   Zn1232  1.992   .     S
O973   C983    1.289   .     A
O973   Zn1232  2.005   .     S
O974   Zn991   2.005   .     S
O974   C984    1.296   .     A
O975   Zn992   1.996   .     S
O975   C984    1.292   .     A
O976   C983    1.297   .     A
O976   Zn1231  1.996   .     S
C977   C1020   1.451   .     S
C978   C1019   1.446   .     S
C979   C1018   1.450   .     S
C980   C1017   1.445   .     S
C981   C1024   1.446   .     S
C982   C1023   1.451   .     S
C983   C1022   1.448   .     S
C984   C1021   1.451   .     S
N985   C1114   1.370   1_455 A
N985   C1116   1.372   1_455 A
N985   Zn989   2.017   .     S
N986   Zn990   2.017   .     S
N986   C993    1.370   .     S
N986   C995    1.371   .     S
N987   Zn991   2.017   .     S
N987   C1000   1.372   .     A
N987   C1238   1.366   1_545 S
N988   Zn992   2.017   .     S
N988   C997    1.370   .     A
N988   C1239   1.381   1_545 S
Zn989  O1088   1.996   1_455 S
Zn989  O1083   1.992   1_455 S
Zn990  O1082   1.989   1_455 S
Zn990  O1085   2.005   1_455 S
Zn991  O1216   1.996   1_545 S
Zn991  O1209   1.989   1_545 S
Zn992  O1213   2.005   1_545 S
Zn992  O1212   1.992   1_545 S
C993   N1025   1.430   .     S
C993   C636    1.421   1_455 S
C994   N1105   1.370   .     A
C994   N1028   1.430   .     S
C994   C155    1.421   1_556 S
C995   N1031   1.430   .     S
C995   C634    1.421   1_455 S
C996   N1105   1.372   .     A
C996   N1034   1.430   .     S
C996   C153    1.421   1_556 S
C997   N1037   1.430   .     S
C998   N1040   1.432   .     S
C998   N1227   1.366   .     S
C998   C39     1.418   1_556 S
C999   N1043   1.438   .     S
C999   N1228   1.381   .     S
C1000  N1046   1.430   .     S
C1000  C37     1.422   1_556 S
C1001  O1049   1.381   .     S
C1001  C1018   1.406   .     A
C1001  C1011   1.389   .     A
C1002  O1051   1.379   .     S
C1002  C1017   1.404   .     A
C1002  C1012   1.371   .     A
C1003  C1009   1.397   .     A
C1003  O1053   1.385   .     S
C1003  C1017   1.403   .     A
C1004  C1018   1.409   .     A
C1004  C1010   1.376   .     A
C1004  O1055   1.379   .     S
C1005  C1020   1.410   .     A
C1005  O1057   1.380   .     S
C1005  C1015   1.377   .     A
C1006  O1059   1.379   .     S
C1006  C1019   1.408   .     A
C1006  C1016   1.373   .     A
C1007  O1061   1.383   .     S
C1007  C1013   1.387   .     A
C1007  C1019   1.404   .     A
C1008  C1014   1.378   .     A
C1008  C1020   1.411   .     A
C1008  O1063   1.378   .     S
C1009  O1065   1.379   .     S
C1009  C1022   1.417   .     A
C1010  O1067   1.379   .     S
C1010  C1021   1.409   .     A
C1011  C1021   1.409   .     A
C1011  O1069   1.384   .     S
C1012  O1071   1.379   .     S
C1012  C1022   1.411   .     A
C1013  C1024   1.410   .     A
C1013  O1073   1.381   .     S
C1014  C1023   1.407   .     A
C1014  O1075   1.380   .     S
C1015  C1023   1.408   .     A
C1015  O1077   1.379   .     S
C1016  C1024   1.407   .     A
C1016  O1079   1.378   .     S
N1025  O1027   1.299   .     A
N1025  O1146   1.298   1_455 S
O1026  N1145   1.298   .     S
N1028  O1030   1.299   .     A
N1028  O1149   1.298   .     S
O1029  N1148   1.298   1_455 S
N1031  O1033   1.299   .     A
N1031  O1152   1.298   1_455 S
O1032  N1151   1.298   .     S
N1034  O1036   1.299   .     A
N1034  O1155   1.297   .     S
O1035  N1154   1.297   1_455 S
N1037  O1038   1.298   .     A
N1037  O1039   1.299   .     A
N1040  O1042   1.300   .     A
N1040  O1041   1.298   .     A
N1043  O1044   1.294   .     A
N1043  O1045   1.301   .     A
N1046  O1048   1.299   .     A
N1046  O1047   1.297   .     A
O1049  H1050   0.992   .     S
O1051  H1052   0.992   .     S
O1053  H1054   0.988   .     S
O1055  H1056   0.992   .     S
O1057  H1058   0.992   .     S
O1059  H1060   0.992   .     S
O1061  H1062   0.991   .     S
O1063  H1064   0.992   .     S
O1065  H1066   0.991   .     S
O1067  H1068   0.992   .     S
O1069  H1070   0.991   .     S
O1071  H1072   0.992   .     S
O1073  H1074   0.992   .     S
O1075  H1076   0.992   .     S
O1077  H1078   0.992   .     S
O1079  H1080   0.992   .     S
O1081  Zn1109  1.989   .     S
O1081  C1097   1.295   .     A
O1082  C1098   1.293   .     A
O1082  Zn990   1.989   1_655 S
O1083  C1098   1.293   .     A
O1083  Zn989   1.992   1_655 S
O1084  C1097   1.294   .     A
O1084  Zn1110  1.992   .     S
O1085  C1099   1.296   .     A
O1085  Zn990   2.005   1_655 S
O1086  C1100   1.292   .     A
O1086  Zn1109  2.005   .     S
O1087  C1100   1.293   .     A
O1087  Zn1110  1.996   .     S
O1088  C1099   1.292   .     A
O1088  Zn989   1.996   1_655 S
O1089  C1101   1.292   .     A
O1089  Zn1351  1.989   .     S
O1090  C1102   1.296   .     A
O1090  Zn1112  1.989   .     S
O1091  Zn1111  1.992   .     S
O1091  C1102   1.293   .     A
O1092  C1101   1.294   .     A
O1092  Zn1352  1.992   .     S
O1093  C1103   1.289   .     A
O1093  Zn1352  2.005   .     S
O1094  Zn1111  2.005   .     S
O1094  C1104   1.296   .     A
O1095  Zn1112  1.996   .     S
O1095  C1104   1.292   .     A
O1096  C1103   1.297   .     A
O1096  Zn1351  1.996   .     S
C1097  C1140   1.451   .     S
C1098  C1139   1.446   .     S
C1099  C1138   1.450   .     S
C1100  C1137   1.445   .     S
C1101  C1144   1.446   .     S
C1102  C1143   1.451   .     S
C1103  C1142   1.448   .     S
C1104  C1141   1.451   .     S
N1105  Zn1109  2.017   .     S
N1106  Zn1110  2.017   .     S
N1106  C1113   1.370   .     S
N1106  C1115   1.371   .     S
N1107  Zn1111  2.017   .     S
N1107  C1120   1.372   .     A
N1107  C1358   1.366   1_545 S
N1108  Zn1112  2.017   .     S
N1108  C1117   1.370   .     A
N1108  C1359   1.381   1_545 S
Zn1111 O1336   1.996   1_545 S
Zn1111 O1329   1.989   1_545 S
Zn1112 O1333   2.005   1_545 S
Zn1112 O1332   1.992   1_545 S
C1113  N1145   1.430   .     S
C1114  N985    1.370   1_655 A
C1114  N1148   1.430   .     S
C1114  C35     1.421   1_656 S
C1115  N1151   1.430   .     S
C1116  N985    1.372   1_655 A
C1116  N1154   1.430   .     S
C1116  C33     1.421   1_656 S
C1117  N1157   1.430   .     S
C1118  N1160   1.432   .     S
C1118  N1347   1.366   .     S
C1118  C159    1.418   1_556 S
C1119  N1163   1.438   .     S
C1119  N1348   1.381   .     S
C1120  N1166   1.430   .     S
C1120  C157    1.422   1_556 S
C1121  O1169   1.381   .     S
C1121  C1138   1.406   .     A
C1121  C1131   1.389   .     A
C1122  O1171   1.379   .     S
C1122  C1137   1.404   .     A
C1122  C1132   1.371   .     A
C1123  C1129   1.397   .     A
C1123  O1173   1.385   .     S
C1123  C1137   1.403   .     A
C1124  C1138   1.409   .     A
C1124  C1130   1.376   .     A
C1124  O1175   1.379   .     S
C1125  C1140   1.410   .     A
C1125  O1177   1.380   .     S
C1125  C1135   1.377   .     A
C1126  O1179   1.379   .     S
C1126  C1139   1.408   .     A
C1126  C1136   1.373   .     A
C1127  O1181   1.383   .     S
C1127  C1133   1.387   .     A
C1127  C1139   1.404   .     A
C1128  C1134   1.378   .     A
C1128  C1140   1.411   .     A
C1128  O1183   1.378   .     S
C1129  O1185   1.379   .     S
C1129  C1142   1.417   .     A
C1130  O1187   1.379   .     S
C1130  C1141   1.409   .     A
C1131  C1141   1.409   .     A
C1131  O1189   1.384   .     S
C1132  O1191   1.379   .     S
C1132  C1142   1.411   .     A
C1133  C1144   1.410   .     A
C1133  O1193   1.381   .     S
C1134  C1143   1.407   .     A
C1134  O1195   1.380   .     S
C1135  C1143   1.408   .     A
C1135  O1197   1.379   .     S
C1136  C1144   1.407   .     A
C1136  O1199   1.378   .     S
N1145  O1147   1.299   .     A
O1146  N1025   1.298   1_655 S
N1148  O1150   1.299   .     A
N1148  O1029   1.298   1_655 S
N1151  O1153   1.299   .     A
O1152  N1031   1.298   1_655 S
N1154  O1156   1.299   .     A
N1154  O1035   1.297   1_655 S
N1157  O1158   1.298   .     A
N1157  O1159   1.299   .     A
N1160  O1162   1.300   .     A
N1160  O1161   1.298   .     A
N1163  O1164   1.294   .     A
N1163  O1165   1.301   .     A
N1166  O1168   1.299   .     A
N1166  O1167   1.297   .     A
O1169  H1170   0.992   .     S
O1171  H1172   0.992   .     S
O1173  H1174   0.988   .     S
O1175  H1176   0.992   .     S
O1177  H1178   0.992   .     S
O1179  H1180   0.992   .     S
O1181  H1182   0.991   .     S
O1183  H1184   0.992   .     S
O1185  H1186   0.991   .     S
O1187  H1188   0.992   .     S
O1189  H1190   0.991   .     S
O1191  H1192   0.992   .     S
O1193  H1194   0.992   .     S
O1195  H1196   0.992   .     S
O1197  H1198   0.992   .     S
O1199  H1200   0.992   .     S
O1201  Zn1229  1.989   .     S
O1201  C1217   1.295   .     A
O1202  C1218   1.293   .     A
O1202  Zn1350  1.989   .     S
O1203  C1218   1.293   .     A
O1203  Zn1349  1.992   .     S
O1204  C1217   1.294   .     A
O1204  Zn1230  1.992   .     S
O1205  C1219   1.296   .     A
O1205  Zn1350  2.005   .     S
O1206  C1220   1.292   .     A
O1206  Zn1229  2.005   .     S
O1207  C1220   1.293   .     A
O1207  Zn1230  1.996   .     S
O1208  C1219   1.292   .     A
O1208  Zn1349  1.996   .     S
O1209  C1221   1.292   .     A
O1209  Zn991   1.989   1_565 S
O1210  C1222   1.296   .     A
O1210  Zn1232  1.989   .     S
O1211  Zn1231  1.992   .     S
O1211  C1222   1.293   .     A
O1212  C1221   1.294   .     A
O1212  Zn992   1.992   1_565 S
O1213  C1223   1.289   .     A
O1213  Zn992   2.005   1_565 S
O1214  Zn1231  2.005   .     S
O1214  C1224   1.296   .     A
O1215  Zn1232  1.996   .     S
O1215  C1224   1.292   .     A
O1216  C1223   1.297   .     A
O1216  Zn991   1.996   1_565 S
C1217  C1260   1.451   .     S
C1218  C1259   1.446   .     S
C1219  C1258   1.450   .     S
C1220  C1257   1.445   .     S
C1221  C1264   1.446   .     S
C1222  C1263   1.451   .     S
C1223  C1262   1.448   .     S
C1224  C1261   1.451   .     S
N1225  C1354   1.370   1_455 A
N1225  C1356   1.372   1_455 A
N1225  Zn1229  2.017   .     S
N1226  Zn1230  2.017   .     S
N1226  C1233   1.370   .     S
N1226  C1235   1.371   .     S
N1227  Zn1231  2.017   .     S
N1227  C1240   1.372   .     A
N1228  Zn1232  2.017   .     S
N1228  C1237   1.370   .     A
Zn1229 O1328   1.996   1_455 S
Zn1229 O1323   1.992   1_455 S
Zn1230 O1322   1.989   1_455 S
Zn1230 O1325   2.005   1_455 S
C1233  N1265   1.430   .     S
C1233  C876    1.421   1_455 S
C1234  N1345   1.370   .     A
C1234  N1268   1.430   .     S
C1234  C395    1.421   1_556 S
C1235  N1271   1.430   .     S
C1235  C874    1.421   1_455 S
C1236  N1345   1.372   .     A
C1236  N1274   1.430   .     S
C1236  C393    1.421   1_556 S
C1237  N1277   1.430   .     S
C1238  N1280   1.432   .     S
C1238  N987    1.366   1_565 S
C1238  C279    1.418   1_556 S
C1239  N1283   1.438   .     S
C1239  N988    1.381   1_565 S
C1240  N1286   1.430   .     S
C1240  C277    1.422   1_556 S
C1241  O1289   1.381   .     S
C1241  C1258   1.406   .     A
C1241  C1251   1.389   .     A
C1242  O1291   1.379   .     S
C1242  C1257   1.404   .     A
C1242  C1252   1.371   .     A
C1243  C1249   1.397   .     A
C1243  O1293   1.385   .     S
C1243  C1257   1.403   .     A
C1244  C1258   1.409   .     A
C1244  C1250   1.376   .     A
C1244  O1295   1.379   .     S
C1245  C1260   1.410   .     A
C1245  O1297   1.380   .     S
C1245  C1255   1.377   .     A
C1246  O1299   1.379   .     S
C1246  C1259   1.408   .     A
C1246  C1256   1.373   .     A
C1247  O1301   1.383   .     S
C1247  C1253   1.387   .     A
C1247  C1259   1.404   .     A
C1248  C1254   1.378   .     A
C1248  C1260   1.411   .     A
C1248  O1303   1.378   .     S
C1249  O1305   1.379   .     S
C1249  C1262   1.417   .     A
C1250  O1307   1.379   .     S
C1250  C1261   1.409   .     A
C1251  C1261   1.409   .     A
C1251  O1309   1.384   .     S
C1252  O1311   1.379   .     S
C1252  C1262   1.411   .     A
C1253  C1264   1.410   .     A
C1253  O1313   1.381   .     S
C1254  C1263   1.407   .     A
C1254  O1315   1.380   .     S
C1255  C1263   1.408   .     A
C1255  O1317   1.379   .     S
C1256  C1264   1.407   .     A
C1256  O1319   1.378   .     S
N1265  O1267   1.299   .     A
N1265  O1386   1.298   1_455 S
O1266  N1385   1.298   .     S
N1268  O1270   1.299   .     A
N1268  O1389   1.298   .     S
O1269  N1388   1.298   1_455 S
N1271  O1273   1.299   .     A
N1271  O1392   1.298   1_455 S
O1272  N1391   1.298   .     S
N1274  O1276   1.299   .     A
N1274  O1395   1.297   .     S
O1275  N1394   1.297   1_455 S
N1277  O1278   1.298   .     A
N1277  O1279   1.299   .     A
N1280  O1282   1.300   .     A
N1280  O1281   1.298   .     A
N1283  O1284   1.294   .     A
N1283  O1285   1.301   .     A
N1286  O1288   1.299   .     A
N1286  O1287   1.297   .     A
O1289  H1290   0.992   .     S
O1291  H1292   0.992   .     S
O1293  H1294   0.988   .     S
O1295  H1296   0.992   .     S
O1297  H1298   0.992   .     S
O1299  H1300   0.992   .     S
O1301  H1302   0.991   .     S
O1303  H1304   0.992   .     S
O1305  H1306   0.991   .     S
O1307  H1308   0.992   .     S
O1309  H1310   0.991   .     S
O1311  H1312   0.992   .     S
O1313  H1314   0.992   .     S
O1315  H1316   0.992   .     S
O1317  H1318   0.992   .     S
O1319  H1320   0.992   .     S
O1321  Zn1349  1.989   .     S
O1321  C1337   1.295   .     A
O1322  C1338   1.293   .     A
O1322  Zn1230  1.989   1_655 S
O1323  C1338   1.293   .     A
O1323  Zn1229  1.992   1_655 S
O1324  C1337   1.294   .     A
O1324  Zn1350  1.992   .     S
O1325  C1339   1.296   .     A
O1325  Zn1230  2.005   1_655 S
O1326  C1340   1.292   .     A
O1326  Zn1349  2.005   .     S
O1327  C1340   1.293   .     A
O1327  Zn1350  1.996   .     S
O1328  C1339   1.292   .     A
O1328  Zn1229  1.996   1_655 S
O1329  C1341   1.292   .     A
O1329  Zn1111  1.989   1_565 S
O1330  C1342   1.296   .     A
O1330  Zn1352  1.989   .     S
O1331  Zn1351  1.992   .     S
O1331  C1342   1.293   .     A
O1332  C1341   1.294   .     A
O1332  Zn1112  1.992   1_565 S
O1333  C1343   1.289   .     A
O1333  Zn1112  2.005   1_565 S
O1334  Zn1351  2.005   .     S
O1334  C1344   1.296   .     A
O1335  Zn1352  1.996   .     S
O1335  C1344   1.292   .     A
O1336  C1343   1.297   .     A
O1336  Zn1111  1.996   1_565 S
C1337  C1380   1.451   .     S
C1338  C1379   1.446   .     S
C1339  C1378   1.450   .     S
C1340  C1377   1.445   .     S
C1341  C1384   1.446   .     S
C1342  C1383   1.451   .     S
C1343  C1382   1.448   .     S
C1344  C1381   1.451   .     S
N1345  Zn1349  2.017   .     S
N1346  Zn1350  2.017   .     S
N1346  C1353   1.370   .     S
N1346  C1355   1.371   .     S
N1347  Zn1351  2.017   .     S
N1347  C1360   1.372   .     A
N1348  Zn1352  2.017   .     S
N1348  C1357   1.370   .     A
C1353  N1385   1.430   .     S
C1354  N1225   1.370   1_655 A
C1354  N1388   1.430   .     S
C1354  C275    1.421   1_656 S
C1355  N1391   1.430   .     S
C1356  N1225   1.372   1_655 A
C1356  N1394   1.430   .     S
C1356  C273    1.421   1_656 S
C1357  N1397   1.430   .     S
C1358  N1400   1.432   .     S
C1358  N1107   1.366   1_565 S
C1358  C399    1.418   1_556 S
C1359  N1403   1.438   .     S
C1359  N1108   1.381   1_565 S
C1360  N1406   1.430   .     S
C1360  C397    1.422   1_556 S
C1361  O1409   1.381   .     S
C1361  C1378   1.406   .     A
C1361  C1371   1.389   .     A
C1362  O1411   1.379   .     S
C1362  C1377   1.404   .     A
C1362  C1372   1.371   .     A
C1363  C1369   1.397   .     A
C1363  O1413   1.385   .     S
C1363  C1377   1.403   .     A
C1364  C1378   1.409   .     A
C1364  C1370   1.376   .     A
C1364  O1415   1.379   .     S
C1365  C1380   1.410   .     A
C1365  O1417   1.380   .     S
C1365  C1375   1.377   .     A
C1366  O1419   1.379   .     S
C1366  C1379   1.408   .     A
C1366  C1376   1.373   .     A
C1367  O1421   1.383   .     S
C1367  C1373   1.387   .     A
C1367  C1379   1.404   .     A
C1368  C1374   1.378   .     A
C1368  C1380   1.411   .     A
C1368  O1423   1.378   .     S
C1369  O1425   1.379   .     S
C1369  C1382   1.417   .     A
C1370  O1427   1.379   .     S
C1370  C1381   1.409   .     A
C1371  C1381   1.409   .     A
C1371  O1429   1.384   .     S
C1372  O1431   1.379   .     S
C1372  C1382   1.411   .     A
C1373  C1384   1.410   .     A
C1373  O1433   1.381   .     S
C1374  C1383   1.407   .     A
C1374  O1435   1.380   .     S
C1375  C1383   1.408   .     A
C1375  O1437   1.379   .     S
C1376  C1384   1.407   .     A
C1376  O1439   1.378   .     S
N1385  O1387   1.299   .     A
O1386  N1265   1.298   1_655 S
N1388  O1390   1.299   .     A
N1388  O1269   1.298   1_655 S
N1391  O1393   1.299   .     A
O1392  N1271   1.298   1_655 S
N1394  O1396   1.299   .     A
N1394  O1275   1.297   1_655 S
N1397  O1398   1.298   .     A
N1397  O1399   1.299   .     A
N1400  O1402   1.300   .     A
N1400  O1401   1.298   .     A
N1403  O1404   1.294   .     A
N1403  O1405   1.301   .     A
N1406  O1408   1.299   .     A
N1406  O1407   1.297   .     A
O1409  H1410   0.992   .     S
O1411  H1412   0.992   .     S
O1413  H1414   0.988   .     S
O1415  H1416   0.992   .     S
O1417  H1418   0.992   .     S
O1419  H1420   0.992   .     S
O1421  H1422   0.991   .     S
O1423  H1424   0.992   .     S
O1425  H1426   0.991   .     S
O1427  H1428   0.992   .     S
O1429  H1430   0.991   .     S
O1431  H1432   0.992   .     S
O1433  H1434   0.992   .     S
O1435  H1436   0.992   .     S
O1437  H1438   0.992   .     S
O1439  H1440   0.992   .     S
