data_str_m3_o2_o10_pcu_sym.156
_audit_creation_date              2020-01-03
_audit_creation_method            'Materials Studio'
_symmetry_space_group_name_H-M    'P1'
_symmetry_Int_Tables_number       1
_symmetry_cell_setting            triclinic
loop_
_symmetry_equiv_pos_as_xyz
  x,y,z
_cell_length_a                    25.7402
_cell_length_b                    29.8805
_cell_length_c                    28.4932
_cell_angle_alpha                 89.2423
_cell_angle_beta                  98.3502
_cell_angle_gamma                 90.7935
loop_
_atom_site_label
_atom_site_type_symbol
_atom_site_fract_x
_atom_site_fract_y
_atom_site_fract_z
_atom_site_U_iso_or_equiv
_atom_site_adp_type
_atom_site_occupancy
C1     C     0.16780   0.16396   0.25047   0.00000  Uiso   1.00
C2     C     0.16522   0.33594   0.24956   0.00000  Uiso   1.00
C3     C     0.13927   0.21661   0.04998   0.00000  Uiso   1.00
C4     C     0.20502   0.27423   0.45159   0.00000  Uiso   1.00
C5     C     0.13890   0.21802   0.09930   0.00000  Uiso   1.00
C6     C     0.20337   0.27455   0.40198   0.00000  Uiso   1.00
C7     C     0.19560   0.28108   0.10519   0.00000  Uiso   1.00
C8     C     0.13105   0.22439   0.39380   0.00000  Uiso   1.00
C9     C     0.19528   0.28182   0.05590   0.00000  Uiso   1.00
C10    C     0.13012   0.22463   0.44293   0.00000  Uiso   1.00
C11    C     0.16728   0.24923   0.02681   0.00000  Uiso   1.00
C12    C     0.16753   0.24944   0.47338   0.00000  Uiso   1.00
C13    C     0.06710   0.25009   0.23763   0.00000  Uiso   1.00
C14    C     0.26623   0.25029   0.26236   0.00000  Uiso   1.00
C15    C     0.01209   0.25015   0.23093   0.00000  Uiso   1.00
C16    C     0.32123   0.25099   0.26902   0.00000  Uiso   1.00
C17    C     0.19804   0.04536   0.28775   0.00000  Uiso   1.00
C18    C     0.12238   0.45202   0.27118   0.00000  Uiso   1.00
C19    C     0.20027   0.09219   0.28731   0.00000  Uiso   1.00
C20    C     0.12284   0.40508   0.27041   0.00000  Uiso   1.00
C21    C     0.16833   0.11590   0.25124   0.00000  Uiso   1.00
C22    C     0.16143   0.38373   0.24860   0.00000  Uiso   1.00
C23    C     0.13571   0.09365   0.21534   0.00000  Uiso   1.00
C24    C     0.19749   0.40800   0.22611   0.00000  Uiso   1.00
C25    C     0.13357   0.04764   0.21548   0.00000  Uiso   1.00
C26    C     0.19697   0.45398   0.22651   0.00000  Uiso   1.00
C27    C     0.16401   0.02372   0.25147   0.00000  Uiso   1.00
C28    C     0.16040   0.47569   0.24944   0.00000  Uiso   1.00
H29    H     0.32497   0.24920   0.19474   0.00000  Uiso   1.00
H30    H     0.00832   0.25217   0.30519   0.00000  Uiso   1.00
H31    H     0.11124   0.11197   0.18759   0.00000  Uiso   1.00
H32    H     0.22701   0.39130   0.20944   0.00000  Uiso   1.00
H33    H     0.10792   0.03050   0.18767   0.00000  Uiso   1.00
H34    H     0.22585   0.47281   0.20995   0.00000  Uiso   1.00
H35    H     0.11804   0.18950   0.03087   0.00000  Uiso   1.00
H36    H     0.23623   0.29306   0.47213   0.00000  Uiso   1.00
H37    H     0.11687   0.19298   0.11618   0.00000  Uiso   1.00
H38    H     0.23213   0.29401   0.38607   0.00000  Uiso   1.00
H39    H     0.21713   0.30826   0.04114   0.00000  Uiso   1.00
H40    H     0.09976   0.20522   0.45645   0.00000  Uiso   1.00
N41    N     0.16667   0.24999   0.12623   0.00000  Uiso   1.00
N42    N     0.16667   0.25001   0.37376   0.00000  Uiso   1.00
O43    O     0.16667   0.18453   0.28974   0.00000  Uiso   1.00
O44    O     0.16666   0.31546   0.21026   0.00000  Uiso   1.00
O45    O     0.16667   0.18453   0.21026   0.00000  Uiso   1.00
O46    O     0.16666   0.31547   0.28974   0.00000  Uiso   1.00
O47    O     0.09058   0.25000   0.28044   0.00000  Uiso   1.00
O48    O     0.24275   0.25000   0.21955   0.00000  Uiso   1.00
O49    O     0.09058   0.24999   0.20097   0.00000  Uiso   1.00
O50    O     0.24275   0.25000   0.29903   0.00000  Uiso   1.00
Zn51   Zn    0.16667   0.25000   0.30307   0.00000  Uiso   1.00
Zn52   Zn    0.16667   0.24999   0.19693   0.00000  Uiso   1.00
C53    C     0.23179   0.01956   0.32663   0.00000  Uiso   1.00
H54    H     0.22602   0.48281   0.32423   0.00000  Uiso   1.00
H55    H     0.27390   0.02690   0.32497   0.00000  Uiso   1.00
H56    H     0.22233   0.02974   0.36173   0.00000  Uiso   1.00
C57    C     0.08301   0.47739   0.29496   0.00000  Uiso   1.00
H58    H     0.10412   0.49882   0.32328   0.00000  Uiso   1.00
H59    H     0.05906   0.49898   0.26838   0.00000  Uiso   1.00
H60    H     0.05565   0.45554   0.31161   0.00000  Uiso   1.00
Cl61   Cl    0.24488   0.12072   0.33045   0.00000  Uiso   1.00
Cl62   Cl    0.07463   0.37278   0.29463   0.00000  Uiso   1.00
Cl63   Cl    0.23583   0.32020   0.13900   0.00000  Uiso   1.00
Cl64   Cl    0.08650   0.18881   0.35930   0.00000  Uiso   1.00
C65    C     0.50113   0.16396   0.25047   0.00000  Uiso   1.00
C66    C     0.49855   0.33594   0.24956   0.00000  Uiso   1.00
C67    C     0.47260   0.21661   0.04998   0.00000  Uiso   1.00
C68    C     0.53835   0.27423   0.45159   0.00000  Uiso   1.00
C69    C     0.47223   0.21802   0.09930   0.00000  Uiso   1.00
C70    C     0.53670   0.27455   0.40198   0.00000  Uiso   1.00
C71    C     0.52894   0.28108   0.10519   0.00000  Uiso   1.00
C72    C     0.46438   0.22439   0.39380   0.00000  Uiso   1.00
C73    C     0.52862   0.28182   0.05590   0.00000  Uiso   1.00
C74    C     0.46345   0.22463   0.44293   0.00000  Uiso   1.00
C75    C     0.50062   0.24923   0.02681   0.00000  Uiso   1.00
C76    C     0.50086   0.24944   0.47338   0.00000  Uiso   1.00
C77    C     0.40043   0.25009   0.23763   0.00000  Uiso   1.00
C78    C     0.59956   0.25029   0.26236   0.00000  Uiso   1.00
C79    C     0.34542   0.25015   0.23093   0.00000  Uiso   1.00
C80    C     0.65456   0.25099   0.26902   0.00000  Uiso   1.00
C81    C     0.53137   0.04536   0.28775   0.00000  Uiso   1.00
C82    C     0.45572   0.45202   0.27118   0.00000  Uiso   1.00
C83    C     0.53361   0.09219   0.28731   0.00000  Uiso   1.00
C84    C     0.45618   0.40508   0.27041   0.00000  Uiso   1.00
C85    C     0.50166   0.11590   0.25124   0.00000  Uiso   1.00
C86    C     0.49476   0.38373   0.24860   0.00000  Uiso   1.00
C87    C     0.46904   0.09365   0.21534   0.00000  Uiso   1.00
C88    C     0.53083   0.40800   0.22611   0.00000  Uiso   1.00
C89    C     0.46690   0.04764   0.21548   0.00000  Uiso   1.00
C90    C     0.53030   0.45398   0.22651   0.00000  Uiso   1.00
C91    C     0.49735   0.02372   0.25147   0.00000  Uiso   1.00
C92    C     0.49374   0.47569   0.24944   0.00000  Uiso   1.00
H93    H     0.65830   0.24920   0.19474   0.00000  Uiso   1.00
H94    H     0.34165   0.25217   0.30519   0.00000  Uiso   1.00
H95    H     0.44457   0.11197   0.18759   0.00000  Uiso   1.00
H96    H     0.56035   0.39130   0.20944   0.00000  Uiso   1.00
H97    H     0.44126   0.03050   0.18767   0.00000  Uiso   1.00
H98    H     0.55918   0.47281   0.20995   0.00000  Uiso   1.00
H99    H     0.45137   0.18950   0.03087   0.00000  Uiso   1.00
H100   H     0.56957   0.29306   0.47213   0.00000  Uiso   1.00
H101   H     0.45021   0.19298   0.11618   0.00000  Uiso   1.00
H102   H     0.56546   0.29401   0.38607   0.00000  Uiso   1.00
H103   H     0.55047   0.30826   0.04114   0.00000  Uiso   1.00
H104   H     0.43310   0.20522   0.45645   0.00000  Uiso   1.00
N105   N     0.50000   0.24999   0.12623   0.00000  Uiso   1.00
N106   N     0.50000   0.25001   0.37376   0.00000  Uiso   1.00
O107   O     0.50000   0.18453   0.28974   0.00000  Uiso   1.00
O108   O     0.50000   0.31546   0.21026   0.00000  Uiso   1.00
O109   O     0.50000   0.18453   0.21026   0.00000  Uiso   1.00
O110   O     0.50000   0.31547   0.28974   0.00000  Uiso   1.00
O111   O     0.42392   0.25000   0.28044   0.00000  Uiso   1.00
O112   O     0.57608   0.25000   0.21955   0.00000  Uiso   1.00
O113   O     0.42392   0.24999   0.20097   0.00000  Uiso   1.00
O114   O     0.57608   0.25000   0.29903   0.00000  Uiso   1.00
Zn115  Zn    0.50000   0.25000   0.30307   0.00000  Uiso   1.00
Zn116  Zn    0.50000   0.24999   0.19693   0.00000  Uiso   1.00
C117   C     0.56513   0.01956   0.32663   0.00000  Uiso   1.00
H118   H     0.55935   0.48281   0.32423   0.00000  Uiso   1.00
H119   H     0.60723   0.02690   0.32497   0.00000  Uiso   1.00
H120   H     0.55566   0.02974   0.36173   0.00000  Uiso   1.00
C121   C     0.41635   0.47739   0.29496   0.00000  Uiso   1.00
H122   H     0.43745   0.49882   0.32328   0.00000  Uiso   1.00
H123   H     0.39240   0.49898   0.26838   0.00000  Uiso   1.00
H124   H     0.38898   0.45554   0.31161   0.00000  Uiso   1.00
Cl125  Cl    0.57821   0.12072   0.33045   0.00000  Uiso   1.00
Cl126  Cl    0.40796   0.37278   0.29463   0.00000  Uiso   1.00
Cl127  Cl    0.56916   0.32020   0.13900   0.00000  Uiso   1.00
Cl128  Cl    0.41984   0.18881   0.35930   0.00000  Uiso   1.00
C129   C     0.83446   0.16396   0.25047   0.00000  Uiso   1.00
C130   C     0.83188   0.33594   0.24956   0.00000  Uiso   1.00
C131   C     0.80594   0.21661   0.04998   0.00000  Uiso   1.00
C132   C     0.87168   0.27423   0.45159   0.00000  Uiso   1.00
C133   C     0.80556   0.21802   0.09930   0.00000  Uiso   1.00
C134   C     0.87003   0.27455   0.40198   0.00000  Uiso   1.00
C135   C     0.86227   0.28108   0.10519   0.00000  Uiso   1.00
C136   C     0.79772   0.22439   0.39380   0.00000  Uiso   1.00
C137   C     0.86195   0.28182   0.05590   0.00000  Uiso   1.00
C138   C     0.79679   0.22463   0.44293   0.00000  Uiso   1.00
C139   C     0.83395   0.24923   0.02681   0.00000  Uiso   1.00
C140   C     0.83419   0.24944   0.47338   0.00000  Uiso   1.00
C141   C     0.73376   0.25009   0.23763   0.00000  Uiso   1.00
C142   C     0.93290   0.25029   0.26236   0.00000  Uiso   1.00
C143   C     0.67875   0.25015   0.23093   0.00000  Uiso   1.00
C144   C     0.98790   0.25099   0.26902   0.00000  Uiso   1.00
C145   C     0.86470   0.04536   0.28775   0.00000  Uiso   1.00
C146   C     0.78905   0.45202   0.27118   0.00000  Uiso   1.00
C147   C     0.86694   0.09219   0.28731   0.00000  Uiso   1.00
C148   C     0.78951   0.40508   0.27041   0.00000  Uiso   1.00
C149   C     0.83500   0.11590   0.25124   0.00000  Uiso   1.00
C150   C     0.82810   0.38373   0.24860   0.00000  Uiso   1.00
C151   C     0.80238   0.09365   0.21534   0.00000  Uiso   1.00
C152   C     0.86416   0.40800   0.22611   0.00000  Uiso   1.00
C153   C     0.80024   0.04764   0.21548   0.00000  Uiso   1.00
C154   C     0.86363   0.45398   0.22651   0.00000  Uiso   1.00
C155   C     0.83068   0.02372   0.25147   0.00000  Uiso   1.00
C156   C     0.82707   0.47569   0.24944   0.00000  Uiso   1.00
H157   H     0.99163   0.24920   0.19474   0.00000  Uiso   1.00
H158   H     0.67498   0.25217   0.30519   0.00000  Uiso   1.00
H159   H     0.77790   0.11197   0.18759   0.00000  Uiso   1.00
H160   H     0.89368   0.39130   0.20944   0.00000  Uiso   1.00
H161   H     0.77459   0.03050   0.18767   0.00000  Uiso   1.00
H162   H     0.89252   0.47281   0.20995   0.00000  Uiso   1.00
H163   H     0.78471   0.18950   0.03087   0.00000  Uiso   1.00
H164   H     0.90290   0.29306   0.47213   0.00000  Uiso   1.00
H165   H     0.78354   0.19298   0.11618   0.00000  Uiso   1.00
H166   H     0.89880   0.29401   0.38607   0.00000  Uiso   1.00
H167   H     0.88380   0.30826   0.04114   0.00000  Uiso   1.00
H168   H     0.76643   0.20522   0.45645   0.00000  Uiso   1.00
N169   N     0.83333   0.24999   0.12623   0.00000  Uiso   1.00
N170   N     0.83333   0.25001   0.37376   0.00000  Uiso   1.00
O171   O     0.83334   0.18453   0.28974   0.00000  Uiso   1.00
O172   O     0.83333   0.31546   0.21026   0.00000  Uiso   1.00
O173   O     0.83334   0.18453   0.21026   0.00000  Uiso   1.00
O174   O     0.83333   0.31547   0.28974   0.00000  Uiso   1.00
O175   O     0.75725   0.25000   0.28044   0.00000  Uiso   1.00
O176   O     0.90942   0.25000   0.21955   0.00000  Uiso   1.00
O177   O     0.75725   0.24999   0.20097   0.00000  Uiso   1.00
O178   O     0.90942   0.25000   0.29903   0.00000  Uiso   1.00
Zn179  Zn    0.83333   0.25000   0.30307   0.00000  Uiso   1.00
Zn180  Zn    0.83333   0.24999   0.19693   0.00000  Uiso   1.00
C181   C     0.89846   0.01956   0.32663   0.00000  Uiso   1.00
H182   H     0.89268   0.48281   0.32423   0.00000  Uiso   1.00
H183   H     0.94057   0.02690   0.32497   0.00000  Uiso   1.00
H184   H     0.88899   0.02974   0.36173   0.00000  Uiso   1.00
C185   C     0.74968   0.47739   0.29496   0.00000  Uiso   1.00
H186   H     0.77079   0.49882   0.32328   0.00000  Uiso   1.00
H187   H     0.72573   0.49898   0.26838   0.00000  Uiso   1.00
H188   H     0.72232   0.45554   0.31161   0.00000  Uiso   1.00
Cl189  Cl    0.91154   0.12072   0.33045   0.00000  Uiso   1.00
Cl190  Cl    0.74130   0.37278   0.29463   0.00000  Uiso   1.00
Cl191  Cl    0.90250   0.32020   0.13900   0.00000  Uiso   1.00
Cl192  Cl    0.75317   0.18881   0.35930   0.00000  Uiso   1.00
C193   C     0.16780   0.66396   0.25047   0.00000  Uiso   1.00
C194   C     0.16522   0.83594   0.24956   0.00000  Uiso   1.00
C195   C     0.13927   0.71661   0.04998   0.00000  Uiso   1.00
C196   C     0.20502   0.77423   0.45159   0.00000  Uiso   1.00
C197   C     0.13890   0.71802   0.09930   0.00000  Uiso   1.00
C198   C     0.20337   0.77455   0.40198   0.00000  Uiso   1.00
C199   C     0.19560   0.78108   0.10519   0.00000  Uiso   1.00
C200   C     0.13105   0.72439   0.39380   0.00000  Uiso   1.00
C201   C     0.19528   0.78182   0.05590   0.00000  Uiso   1.00
C202   C     0.13012   0.72463   0.44293   0.00000  Uiso   1.00
C203   C     0.16728   0.74923   0.02681   0.00000  Uiso   1.00
C204   C     0.16753   0.74944   0.47338   0.00000  Uiso   1.00
C205   C     0.06710   0.75009   0.23763   0.00000  Uiso   1.00
C206   C     0.26623   0.75029   0.26236   0.00000  Uiso   1.00
C207   C     0.01209   0.75015   0.23093   0.00000  Uiso   1.00
C208   C     0.32123   0.75099   0.26902   0.00000  Uiso   1.00
C209   C     0.19804   0.54536   0.28775   0.00000  Uiso   1.00
C210   C     0.12238   0.95202   0.27118   0.00000  Uiso   1.00
C211   C     0.20027   0.59219   0.28731   0.00000  Uiso   1.00
C212   C     0.12284   0.90508   0.27041   0.00000  Uiso   1.00
C213   C     0.16833   0.61590   0.25124   0.00000  Uiso   1.00
C214   C     0.16143   0.88373   0.24860   0.00000  Uiso   1.00
C215   C     0.13571   0.59365   0.21534   0.00000  Uiso   1.00
C216   C     0.19749   0.90800   0.22611   0.00000  Uiso   1.00
C217   C     0.13357   0.54764   0.21548   0.00000  Uiso   1.00
C218   C     0.19697   0.95398   0.22651   0.00000  Uiso   1.00
C219   C     0.16401   0.52372   0.25147   0.00000  Uiso   1.00
C220   C     0.16040   0.97569   0.24944   0.00000  Uiso   1.00
H221   H     0.32497   0.74920   0.19474   0.00000  Uiso   1.00
H222   H     0.00832   0.75217   0.30519   0.00000  Uiso   1.00
H223   H     0.11124   0.61197   0.18759   0.00000  Uiso   1.00
H224   H     0.22701   0.89130   0.20944   0.00000  Uiso   1.00
H225   H     0.10792   0.53050   0.18767   0.00000  Uiso   1.00
H226   H     0.22585   0.97281   0.20995   0.00000  Uiso   1.00
H227   H     0.11804   0.68950   0.03087   0.00000  Uiso   1.00
H228   H     0.23623   0.79306   0.47213   0.00000  Uiso   1.00
H229   H     0.11687   0.69298   0.11618   0.00000  Uiso   1.00
H230   H     0.23213   0.79401   0.38607   0.00000  Uiso   1.00
H231   H     0.21713   0.80826   0.04114   0.00000  Uiso   1.00
H232   H     0.09976   0.70522   0.45645   0.00000  Uiso   1.00
N233   N     0.16667   0.74999   0.12623   0.00000  Uiso   1.00
N234   N     0.16667   0.75001   0.37376   0.00000  Uiso   1.00
O235   O     0.16667   0.68453   0.28974   0.00000  Uiso   1.00
O236   O     0.16666   0.81546   0.21026   0.00000  Uiso   1.00
O237   O     0.16667   0.68453   0.21026   0.00000  Uiso   1.00
O238   O     0.16666   0.81547   0.28974   0.00000  Uiso   1.00
O239   O     0.09058   0.75000   0.28044   0.00000  Uiso   1.00
O240   O     0.24275   0.75000   0.21955   0.00000  Uiso   1.00
O241   O     0.09058   0.74999   0.20097   0.00000  Uiso   1.00
O242   O     0.24275   0.75000   0.29903   0.00000  Uiso   1.00
Zn243  Zn    0.16667   0.75000   0.30307   0.00000  Uiso   1.00
Zn244  Zn    0.16667   0.74999   0.19693   0.00000  Uiso   1.00
C245   C     0.23179   0.51956   0.32663   0.00000  Uiso   1.00
H246   H     0.22602   0.98281   0.32423   0.00000  Uiso   1.00
H247   H     0.27390   0.52690   0.32497   0.00000  Uiso   1.00
H248   H     0.22233   0.52974   0.36173   0.00000  Uiso   1.00
C249   C     0.08301   0.97739   0.29496   0.00000  Uiso   1.00
H250   H     0.10412   0.99882   0.32328   0.00000  Uiso   1.00
H251   H     0.05906   0.99898   0.26838   0.00000  Uiso   1.00
H252   H     0.05565   0.95554   0.31161   0.00000  Uiso   1.00
Cl253  Cl    0.24488   0.62072   0.33045   0.00000  Uiso   1.00
Cl254  Cl    0.07463   0.87278   0.29463   0.00000  Uiso   1.00
Cl255  Cl    0.23583   0.82020   0.13900   0.00000  Uiso   1.00
Cl256  Cl    0.08650   0.68881   0.35930   0.00000  Uiso   1.00
C257   C     0.50113   0.66396   0.25047   0.00000  Uiso   1.00
C258   C     0.49855   0.83594   0.24956   0.00000  Uiso   1.00
C259   C     0.47260   0.71661   0.04998   0.00000  Uiso   1.00
C260   C     0.53835   0.77423   0.45159   0.00000  Uiso   1.00
C261   C     0.47223   0.71802   0.09930   0.00000  Uiso   1.00
C262   C     0.53670   0.77455   0.40198   0.00000  Uiso   1.00
C263   C     0.52894   0.78108   0.10519   0.00000  Uiso   1.00
C264   C     0.46438   0.72439   0.39380   0.00000  Uiso   1.00
C265   C     0.52862   0.78182   0.05590   0.00000  Uiso   1.00
C266   C     0.46345   0.72463   0.44293   0.00000  Uiso   1.00
C267   C     0.50062   0.74923   0.02681   0.00000  Uiso   1.00
C268   C     0.50086   0.74944   0.47338   0.00000  Uiso   1.00
C269   C     0.40043   0.75009   0.23763   0.00000  Uiso   1.00
C270   C     0.59956   0.75029   0.26236   0.00000  Uiso   1.00
C271   C     0.34542   0.75015   0.23093   0.00000  Uiso   1.00
C272   C     0.65456   0.75099   0.26902   0.00000  Uiso   1.00
C273   C     0.53137   0.54536   0.28775   0.00000  Uiso   1.00
C274   C     0.45572   0.95202   0.27118   0.00000  Uiso   1.00
C275   C     0.53361   0.59219   0.28731   0.00000  Uiso   1.00
C276   C     0.45618   0.90508   0.27041   0.00000  Uiso   1.00
C277   C     0.50166   0.61590   0.25124   0.00000  Uiso   1.00
C278   C     0.49476   0.88373   0.24860   0.00000  Uiso   1.00
C279   C     0.46904   0.59365   0.21534   0.00000  Uiso   1.00
C280   C     0.53083   0.90800   0.22611   0.00000  Uiso   1.00
C281   C     0.46690   0.54764   0.21548   0.00000  Uiso   1.00
C282   C     0.53030   0.95398   0.22651   0.00000  Uiso   1.00
C283   C     0.49735   0.52372   0.25147   0.00000  Uiso   1.00
C284   C     0.49374   0.97569   0.24944   0.00000  Uiso   1.00
H285   H     0.65830   0.74920   0.19474   0.00000  Uiso   1.00
H286   H     0.34165   0.75217   0.30519   0.00000  Uiso   1.00
H287   H     0.44457   0.61197   0.18759   0.00000  Uiso   1.00
H288   H     0.56035   0.89130   0.20944   0.00000  Uiso   1.00
H289   H     0.44126   0.53050   0.18767   0.00000  Uiso   1.00
H290   H     0.55918   0.97281   0.20995   0.00000  Uiso   1.00
H291   H     0.45137   0.68950   0.03087   0.00000  Uiso   1.00
H292   H     0.56957   0.79306   0.47213   0.00000  Uiso   1.00
H293   H     0.45021   0.69298   0.11618   0.00000  Uiso   1.00
H294   H     0.56546   0.79401   0.38607   0.00000  Uiso   1.00
H295   H     0.55047   0.80826   0.04114   0.00000  Uiso   1.00
H296   H     0.43310   0.70522   0.45645   0.00000  Uiso   1.00
N297   N     0.50000   0.74999   0.12623   0.00000  Uiso   1.00
N298   N     0.50000   0.75001   0.37376   0.00000  Uiso   1.00
O299   O     0.50000   0.68453   0.28974   0.00000  Uiso   1.00
O300   O     0.50000   0.81546   0.21026   0.00000  Uiso   1.00
O301   O     0.50000   0.68453   0.21026   0.00000  Uiso   1.00
O302   O     0.50000   0.81547   0.28974   0.00000  Uiso   1.00
O303   O     0.42392   0.75000   0.28044   0.00000  Uiso   1.00
O304   O     0.57608   0.75000   0.21955   0.00000  Uiso   1.00
O305   O     0.42392   0.74999   0.20097   0.00000  Uiso   1.00
O306   O     0.57608   0.75000   0.29903   0.00000  Uiso   1.00
Zn307  Zn    0.50000   0.75000   0.30307   0.00000  Uiso   1.00
Zn308  Zn    0.50000   0.74999   0.19693   0.00000  Uiso   1.00
C309   C     0.56513   0.51956   0.32663   0.00000  Uiso   1.00
H310   H     0.55935   0.98281   0.32423   0.00000  Uiso   1.00
H311   H     0.60723   0.52690   0.32497   0.00000  Uiso   1.00
H312   H     0.55566   0.52974   0.36173   0.00000  Uiso   1.00
C313   C     0.41635   0.97739   0.29496   0.00000  Uiso   1.00
H314   H     0.43745   0.99882   0.32328   0.00000  Uiso   1.00
H315   H     0.39240   0.99898   0.26838   0.00000  Uiso   1.00
H316   H     0.38898   0.95554   0.31161   0.00000  Uiso   1.00
Cl317  Cl    0.57821   0.62072   0.33045   0.00000  Uiso   1.00
Cl318  Cl    0.40796   0.87278   0.29463   0.00000  Uiso   1.00
Cl319  Cl    0.56916   0.82020   0.13900   0.00000  Uiso   1.00
Cl320  Cl    0.41984   0.68881   0.35930   0.00000  Uiso   1.00
C321   C     0.83446   0.66396   0.25047   0.00000  Uiso   1.00
C322   C     0.83188   0.83594   0.24956   0.00000  Uiso   1.00
C323   C     0.80594   0.71661   0.04998   0.00000  Uiso   1.00
C324   C     0.87168   0.77423   0.45159   0.00000  Uiso   1.00
C325   C     0.80556   0.71802   0.09930   0.00000  Uiso   1.00
C326   C     0.87003   0.77455   0.40198   0.00000  Uiso   1.00
C327   C     0.86227   0.78108   0.10519   0.00000  Uiso   1.00
C328   C     0.79772   0.72439   0.39380   0.00000  Uiso   1.00
C329   C     0.86195   0.78182   0.05590   0.00000  Uiso   1.00
C330   C     0.79679   0.72463   0.44293   0.00000  Uiso   1.00
C331   C     0.83395   0.74923   0.02681   0.00000  Uiso   1.00
C332   C     0.83419   0.74944   0.47338   0.00000  Uiso   1.00
C333   C     0.73376   0.75009   0.23763   0.00000  Uiso   1.00
C334   C     0.93290   0.75029   0.26236   0.00000  Uiso   1.00
C335   C     0.67875   0.75015   0.23093   0.00000  Uiso   1.00
C336   C     0.98790   0.75099   0.26902   0.00000  Uiso   1.00
C337   C     0.86470   0.54536   0.28775   0.00000  Uiso   1.00
C338   C     0.78905   0.95202   0.27118   0.00000  Uiso   1.00
C339   C     0.86694   0.59219   0.28731   0.00000  Uiso   1.00
C340   C     0.78951   0.90508   0.27041   0.00000  Uiso   1.00
C341   C     0.83500   0.61590   0.25124   0.00000  Uiso   1.00
C342   C     0.82810   0.88373   0.24860   0.00000  Uiso   1.00
C343   C     0.80238   0.59365   0.21534   0.00000  Uiso   1.00
C344   C     0.86416   0.90800   0.22611   0.00000  Uiso   1.00
C345   C     0.80024   0.54764   0.21548   0.00000  Uiso   1.00
C346   C     0.86363   0.95398   0.22651   0.00000  Uiso   1.00
C347   C     0.83068   0.52372   0.25147   0.00000  Uiso   1.00
C348   C     0.82707   0.97569   0.24944   0.00000  Uiso   1.00
H349   H     0.99163   0.74920   0.19474   0.00000  Uiso   1.00
H350   H     0.67498   0.75217   0.30519   0.00000  Uiso   1.00
H351   H     0.77790   0.61197   0.18759   0.00000  Uiso   1.00
H352   H     0.89368   0.89130   0.20944   0.00000  Uiso   1.00
H353   H     0.77459   0.53050   0.18767   0.00000  Uiso   1.00
H354   H     0.89252   0.97281   0.20995   0.00000  Uiso   1.00
H355   H     0.78471   0.68950   0.03087   0.00000  Uiso   1.00
H356   H     0.90290   0.79306   0.47213   0.00000  Uiso   1.00
H357   H     0.78354   0.69298   0.11618   0.00000  Uiso   1.00
H358   H     0.89880   0.79401   0.38607   0.00000  Uiso   1.00
H359   H     0.88380   0.80826   0.04114   0.00000  Uiso   1.00
H360   H     0.76643   0.70522   0.45645   0.00000  Uiso   1.00
N361   N     0.83333   0.74999   0.12623   0.00000  Uiso   1.00
N362   N     0.83333   0.75001   0.37376   0.00000  Uiso   1.00
O363   O     0.83334   0.68453   0.28974   0.00000  Uiso   1.00
O364   O     0.83333   0.81546   0.21026   0.00000  Uiso   1.00
O365   O     0.83334   0.68453   0.21026   0.00000  Uiso   1.00
O366   O     0.83333   0.81547   0.28974   0.00000  Uiso   1.00
O367   O     0.75725   0.75000   0.28044   0.00000  Uiso   1.00
O368   O     0.90942   0.75000   0.21955   0.00000  Uiso   1.00
O369   O     0.75725   0.74999   0.20097   0.00000  Uiso   1.00
O370   O     0.90942   0.75000   0.29903   0.00000  Uiso   1.00
Zn371  Zn    0.83333   0.75000   0.30307   0.00000  Uiso   1.00
Zn372  Zn    0.83333   0.74999   0.19693   0.00000  Uiso   1.00
C373   C     0.89846   0.51956   0.32663   0.00000  Uiso   1.00
H374   H     0.89268   0.98281   0.32423   0.00000  Uiso   1.00
H375   H     0.94057   0.52690   0.32497   0.00000  Uiso   1.00
H376   H     0.88899   0.52974   0.36173   0.00000  Uiso   1.00
C377   C     0.74968   0.97739   0.29496   0.00000  Uiso   1.00
H378   H     0.77079   0.99882   0.32328   0.00000  Uiso   1.00
H379   H     0.72573   0.99898   0.26838   0.00000  Uiso   1.00
H380   H     0.72232   0.95554   0.31161   0.00000  Uiso   1.00
Cl381  Cl    0.91154   0.62072   0.33045   0.00000  Uiso   1.00
Cl382  Cl    0.74130   0.87278   0.29463   0.00000  Uiso   1.00
Cl383  Cl    0.90250   0.82020   0.13900   0.00000  Uiso   1.00
Cl384  Cl    0.75317   0.68881   0.35930   0.00000  Uiso   1.00
C385   C     0.16780   0.16396   0.75047   0.00000  Uiso   1.00
C386   C     0.16522   0.33594   0.74956   0.00000  Uiso   1.00
C387   C     0.13927   0.21661   0.54998   0.00000  Uiso   1.00
C388   C     0.20502   0.27423   0.95159   0.00000  Uiso   1.00
C389   C     0.13890   0.21802   0.59930   0.00000  Uiso   1.00
C390   C     0.20337   0.27455   0.90198   0.00000  Uiso   1.00
C391   C     0.19560   0.28108   0.60519   0.00000  Uiso   1.00
C392   C     0.13105   0.22439   0.89380   0.00000  Uiso   1.00
C393   C     0.19528   0.28182   0.55590   0.00000  Uiso   1.00
C394   C     0.13012   0.22463   0.94293   0.00000  Uiso   1.00
C395   C     0.16728   0.24923   0.52681   0.00000  Uiso   1.00
C396   C     0.16753   0.24944   0.97338   0.00000  Uiso   1.00
C397   C     0.06710   0.25009   0.73763   0.00000  Uiso   1.00
C398   C     0.26623   0.25029   0.76236   0.00000  Uiso   1.00
C399   C     0.01209   0.25015   0.73093   0.00000  Uiso   1.00
C400   C     0.32123   0.25099   0.76902   0.00000  Uiso   1.00
C401   C     0.19804   0.04536   0.78775   0.00000  Uiso   1.00
C402   C     0.12238   0.45202   0.77118   0.00000  Uiso   1.00
C403   C     0.20027   0.09219   0.78731   0.00000  Uiso   1.00
C404   C     0.12284   0.40508   0.77041   0.00000  Uiso   1.00
C405   C     0.16833   0.11590   0.75124   0.00000  Uiso   1.00
C406   C     0.16143   0.38373   0.74860   0.00000  Uiso   1.00
C407   C     0.13571   0.09365   0.71534   0.00000  Uiso   1.00
C408   C     0.19749   0.40800   0.72611   0.00000  Uiso   1.00
C409   C     0.13357   0.04764   0.71548   0.00000  Uiso   1.00
C410   C     0.19697   0.45398   0.72651   0.00000  Uiso   1.00
C411   C     0.16401   0.02372   0.75147   0.00000  Uiso   1.00
C412   C     0.16040   0.47569   0.74944   0.00000  Uiso   1.00
H413   H     0.32497   0.24920   0.69474   0.00000  Uiso   1.00
H414   H     0.00832   0.25217   0.80519   0.00000  Uiso   1.00
H415   H     0.11124   0.11197   0.68759   0.00000  Uiso   1.00
H416   H     0.22701   0.39130   0.70944   0.00000  Uiso   1.00
H417   H     0.10792   0.03050   0.68767   0.00000  Uiso   1.00
H418   H     0.22585   0.47281   0.70995   0.00000  Uiso   1.00
H419   H     0.11804   0.18950   0.53087   0.00000  Uiso   1.00
H420   H     0.23623   0.29306   0.97213   0.00000  Uiso   1.00
H421   H     0.11687   0.19298   0.61618   0.00000  Uiso   1.00
H422   H     0.23213   0.29401   0.88607   0.00000  Uiso   1.00
H423   H     0.21713   0.30826   0.54114   0.00000  Uiso   1.00
H424   H     0.09976   0.20522   0.95645   0.00000  Uiso   1.00
N425   N     0.16667   0.24999   0.62623   0.00000  Uiso   1.00
N426   N     0.16667   0.25001   0.87376   0.00000  Uiso   1.00
O427   O     0.16667   0.18453   0.78974   0.00000  Uiso   1.00
O428   O     0.16666   0.31546   0.71026   0.00000  Uiso   1.00
O429   O     0.16667   0.18453   0.71026   0.00000  Uiso   1.00
O430   O     0.16666   0.31547   0.78974   0.00000  Uiso   1.00
O431   O     0.09058   0.25000   0.78044   0.00000  Uiso   1.00
O432   O     0.24275   0.25000   0.71955   0.00000  Uiso   1.00
O433   O     0.09058   0.24999   0.70097   0.00000  Uiso   1.00
O434   O     0.24275   0.25000   0.79903   0.00000  Uiso   1.00
Zn435  Zn    0.16667   0.25000   0.80307   0.00000  Uiso   1.00
Zn436  Zn    0.16667   0.24999   0.69693   0.00000  Uiso   1.00
C437   C     0.23179   0.01956   0.82663   0.00000  Uiso   1.00
H438   H     0.22602   0.48281   0.82423   0.00000  Uiso   1.00
H439   H     0.27390   0.02690   0.82497   0.00000  Uiso   1.00
H440   H     0.22233   0.02974   0.86173   0.00000  Uiso   1.00
C441   C     0.08301   0.47739   0.79496   0.00000  Uiso   1.00
H442   H     0.10412   0.49882   0.82328   0.00000  Uiso   1.00
H443   H     0.05906   0.49898   0.76838   0.00000  Uiso   1.00
H444   H     0.05565   0.45554   0.81161   0.00000  Uiso   1.00
Cl445  Cl    0.24488   0.12072   0.83045   0.00000  Uiso   1.00
Cl446  Cl    0.07463   0.37278   0.79463   0.00000  Uiso   1.00
Cl447  Cl    0.23583   0.32020   0.63900   0.00000  Uiso   1.00
Cl448  Cl    0.08650   0.18881   0.85930   0.00000  Uiso   1.00
C449   C     0.50113   0.16396   0.75047   0.00000  Uiso   1.00
C450   C     0.49855   0.33594   0.74956   0.00000  Uiso   1.00
C451   C     0.47260   0.21661   0.54998   0.00000  Uiso   1.00
C452   C     0.53835   0.27423   0.95159   0.00000  Uiso   1.00
C453   C     0.47223   0.21802   0.59930   0.00000  Uiso   1.00
C454   C     0.53670   0.27455   0.90198   0.00000  Uiso   1.00
C455   C     0.52894   0.28108   0.60519   0.00000  Uiso   1.00
C456   C     0.46438   0.22439   0.89380   0.00000  Uiso   1.00
C457   C     0.52862   0.28182   0.55590   0.00000  Uiso   1.00
C458   C     0.46345   0.22463   0.94293   0.00000  Uiso   1.00
C459   C     0.50062   0.24923   0.52681   0.00000  Uiso   1.00
C460   C     0.50086   0.24944   0.97338   0.00000  Uiso   1.00
C461   C     0.40043   0.25009   0.73763   0.00000  Uiso   1.00
C462   C     0.59956   0.25029   0.76236   0.00000  Uiso   1.00
C463   C     0.34542   0.25015   0.73093   0.00000  Uiso   1.00
C464   C     0.65456   0.25099   0.76902   0.00000  Uiso   1.00
C465   C     0.53137   0.04536   0.78775   0.00000  Uiso   1.00
C466   C     0.45572   0.45202   0.77118   0.00000  Uiso   1.00
C467   C     0.53361   0.09219   0.78731   0.00000  Uiso   1.00
C468   C     0.45618   0.40508   0.77041   0.00000  Uiso   1.00
C469   C     0.50166   0.11590   0.75124   0.00000  Uiso   1.00
C470   C     0.49476   0.38373   0.74860   0.00000  Uiso   1.00
C471   C     0.46904   0.09365   0.71534   0.00000  Uiso   1.00
C472   C     0.53083   0.40800   0.72611   0.00000  Uiso   1.00
C473   C     0.46690   0.04764   0.71548   0.00000  Uiso   1.00
C474   C     0.53030   0.45398   0.72651   0.00000  Uiso   1.00
C475   C     0.49735   0.02372   0.75147   0.00000  Uiso   1.00
C476   C     0.49374   0.47569   0.74944   0.00000  Uiso   1.00
H477   H     0.65830   0.24920   0.69474   0.00000  Uiso   1.00
H478   H     0.34165   0.25217   0.80519   0.00000  Uiso   1.00
H479   H     0.44457   0.11197   0.68759   0.00000  Uiso   1.00
H480   H     0.56035   0.39130   0.70944   0.00000  Uiso   1.00
H481   H     0.44126   0.03050   0.68767   0.00000  Uiso   1.00
H482   H     0.55918   0.47281   0.70995   0.00000  Uiso   1.00
H483   H     0.45137   0.18950   0.53087   0.00000  Uiso   1.00
H484   H     0.56957   0.29306   0.97213   0.00000  Uiso   1.00
H485   H     0.45021   0.19298   0.61618   0.00000  Uiso   1.00
H486   H     0.56546   0.29401   0.88607   0.00000  Uiso   1.00
H487   H     0.55047   0.30826   0.54114   0.00000  Uiso   1.00
H488   H     0.43310   0.20522   0.95645   0.00000  Uiso   1.00
N489   N     0.50000   0.24999   0.62623   0.00000  Uiso   1.00
N490   N     0.50000   0.25001   0.87376   0.00000  Uiso   1.00
O491   O     0.50000   0.18453   0.78974   0.00000  Uiso   1.00
O492   O     0.50000   0.31546   0.71026   0.00000  Uiso   1.00
O493   O     0.50000   0.18453   0.71026   0.00000  Uiso   1.00
O494   O     0.50000   0.31547   0.78974   0.00000  Uiso   1.00
O495   O     0.42392   0.25000   0.78044   0.00000  Uiso   1.00
O496   O     0.57608   0.25000   0.71955   0.00000  Uiso   1.00
O497   O     0.42392   0.24999   0.70097   0.00000  Uiso   1.00
O498   O     0.57608   0.25000   0.79903   0.00000  Uiso   1.00
Zn499  Zn    0.50000   0.25000   0.80307   0.00000  Uiso   1.00
Zn500  Zn    0.50000   0.24999   0.69693   0.00000  Uiso   1.00
C501   C     0.56513   0.01956   0.82663   0.00000  Uiso   1.00
H502   H     0.55935   0.48281   0.82423   0.00000  Uiso   1.00
H503   H     0.60723   0.02690   0.82497   0.00000  Uiso   1.00
H504   H     0.55566   0.02974   0.86173   0.00000  Uiso   1.00
C505   C     0.41635   0.47739   0.79496   0.00000  Uiso   1.00
H506   H     0.43745   0.49882   0.82328   0.00000  Uiso   1.00
H507   H     0.39240   0.49898   0.76838   0.00000  Uiso   1.00
H508   H     0.38898   0.45554   0.81161   0.00000  Uiso   1.00
Cl509  Cl    0.57821   0.12072   0.83045   0.00000  Uiso   1.00
Cl510  Cl    0.40796   0.37278   0.79463   0.00000  Uiso   1.00
Cl511  Cl    0.56916   0.32020   0.63900   0.00000  Uiso   1.00
Cl512  Cl    0.41984   0.18881   0.85930   0.00000  Uiso   1.00
C513   C     0.83446   0.16396   0.75047   0.00000  Uiso   1.00
C514   C     0.83188   0.33594   0.74956   0.00000  Uiso   1.00
C515   C     0.80594   0.21661   0.54998   0.00000  Uiso   1.00
C516   C     0.87168   0.27423   0.95159   0.00000  Uiso   1.00
C517   C     0.80556   0.21802   0.59930   0.00000  Uiso   1.00
C518   C     0.87003   0.27455   0.90198   0.00000  Uiso   1.00
C519   C     0.86227   0.28108   0.60519   0.00000  Uiso   1.00
C520   C     0.79772   0.22439   0.89380   0.00000  Uiso   1.00
C521   C     0.86195   0.28182   0.55590   0.00000  Uiso   1.00
C522   C     0.79679   0.22463   0.94293   0.00000  Uiso   1.00
C523   C     0.83395   0.24923   0.52681   0.00000  Uiso   1.00
C524   C     0.83419   0.24944   0.97338   0.00000  Uiso   1.00
C525   C     0.73376   0.25009   0.73763   0.00000  Uiso   1.00
C526   C     0.93290   0.25029   0.76236   0.00000  Uiso   1.00
C527   C     0.67875   0.25015   0.73093   0.00000  Uiso   1.00
C528   C     0.98790   0.25099   0.76902   0.00000  Uiso   1.00
C529   C     0.86470   0.04536   0.78775   0.00000  Uiso   1.00
C530   C     0.78905   0.45202   0.77118   0.00000  Uiso   1.00
C531   C     0.86694   0.09219   0.78731   0.00000  Uiso   1.00
C532   C     0.78951   0.40508   0.77041   0.00000  Uiso   1.00
C533   C     0.83500   0.11590   0.75124   0.00000  Uiso   1.00
C534   C     0.82810   0.38373   0.74860   0.00000  Uiso   1.00
C535   C     0.80238   0.09365   0.71534   0.00000  Uiso   1.00
C536   C     0.86416   0.40800   0.72611   0.00000  Uiso   1.00
C537   C     0.80024   0.04764   0.71548   0.00000  Uiso   1.00
C538   C     0.86363   0.45398   0.72651   0.00000  Uiso   1.00
C539   C     0.83068   0.02372   0.75147   0.00000  Uiso   1.00
C540   C     0.82707   0.47569   0.74944   0.00000  Uiso   1.00
H541   H     0.99163   0.24920   0.69474   0.00000  Uiso   1.00
H542   H     0.67498   0.25217   0.80519   0.00000  Uiso   1.00
H543   H     0.77790   0.11197   0.68759   0.00000  Uiso   1.00
H544   H     0.89368   0.39130   0.70944   0.00000  Uiso   1.00
H545   H     0.77459   0.03050   0.68767   0.00000  Uiso   1.00
H546   H     0.89252   0.47281   0.70995   0.00000  Uiso   1.00
H547   H     0.78471   0.18950   0.53087   0.00000  Uiso   1.00
H548   H     0.90290   0.29306   0.97213   0.00000  Uiso   1.00
H549   H     0.78354   0.19298   0.61618   0.00000  Uiso   1.00
H550   H     0.89880   0.29401   0.88607   0.00000  Uiso   1.00
H551   H     0.88380   0.30826   0.54114   0.00000  Uiso   1.00
H552   H     0.76643   0.20522   0.95645   0.00000  Uiso   1.00
N553   N     0.83333   0.24999   0.62623   0.00000  Uiso   1.00
N554   N     0.83333   0.25001   0.87376   0.00000  Uiso   1.00
O555   O     0.83334   0.18453   0.78974   0.00000  Uiso   1.00
O556   O     0.83333   0.31546   0.71026   0.00000  Uiso   1.00
O557   O     0.83334   0.18453   0.71026   0.00000  Uiso   1.00
O558   O     0.83333   0.31547   0.78974   0.00000  Uiso   1.00
O559   O     0.75725   0.25000   0.78044   0.00000  Uiso   1.00
O560   O     0.90942   0.25000   0.71955   0.00000  Uiso   1.00
O561   O     0.75725   0.24999   0.70097   0.00000  Uiso   1.00
O562   O     0.90942   0.25000   0.79903   0.00000  Uiso   1.00
Zn563  Zn    0.83333   0.25000   0.80307   0.00000  Uiso   1.00
Zn564  Zn    0.83333   0.24999   0.69693   0.00000  Uiso   1.00
C565   C     0.89846   0.01956   0.82663   0.00000  Uiso   1.00
H566   H     0.89268   0.48281   0.82423   0.00000  Uiso   1.00
H567   H     0.94057   0.02690   0.82497   0.00000  Uiso   1.00
H568   H     0.88899   0.02974   0.86173   0.00000  Uiso   1.00
C569   C     0.74968   0.47739   0.79496   0.00000  Uiso   1.00
H570   H     0.77079   0.49882   0.82328   0.00000  Uiso   1.00
H571   H     0.72573   0.49898   0.76838   0.00000  Uiso   1.00
H572   H     0.72232   0.45554   0.81161   0.00000  Uiso   1.00
Cl573  Cl    0.91154   0.12072   0.83045   0.00000  Uiso   1.00
Cl574  Cl    0.74130   0.37278   0.79463   0.00000  Uiso   1.00
Cl575  Cl    0.90250   0.32020   0.63900   0.00000  Uiso   1.00
Cl576  Cl    0.75317   0.18881   0.85930   0.00000  Uiso   1.00
C577   C     0.16780   0.66396   0.75047   0.00000  Uiso   1.00
C578   C     0.16522   0.83594   0.74956   0.00000  Uiso   1.00
C579   C     0.13927   0.71661   0.54998   0.00000  Uiso   1.00
C580   C     0.20502   0.77423   0.95159   0.00000  Uiso   1.00
C581   C     0.13890   0.71802   0.59930   0.00000  Uiso   1.00
C582   C     0.20337   0.77455   0.90198   0.00000  Uiso   1.00
C583   C     0.19560   0.78108   0.60519   0.00000  Uiso   1.00
C584   C     0.13105   0.72439   0.89380   0.00000  Uiso   1.00
C585   C     0.19528   0.78182   0.55590   0.00000  Uiso   1.00
C586   C     0.13012   0.72463   0.94293   0.00000  Uiso   1.00
C587   C     0.16728   0.74923   0.52681   0.00000  Uiso   1.00
C588   C     0.16753   0.74944   0.97338   0.00000  Uiso   1.00
C589   C     0.06710   0.75009   0.73763   0.00000  Uiso   1.00
C590   C     0.26623   0.75029   0.76236   0.00000  Uiso   1.00
C591   C     0.01209   0.75015   0.73093   0.00000  Uiso   1.00
C592   C     0.32123   0.75099   0.76902   0.00000  Uiso   1.00
C593   C     0.19804   0.54536   0.78775   0.00000  Uiso   1.00
C594   C     0.12238   0.95202   0.77118   0.00000  Uiso   1.00
C595   C     0.20027   0.59219   0.78731   0.00000  Uiso   1.00
C596   C     0.12284   0.90508   0.77041   0.00000  Uiso   1.00
C597   C     0.16833   0.61590   0.75124   0.00000  Uiso   1.00
C598   C     0.16143   0.88373   0.74860   0.00000  Uiso   1.00
C599   C     0.13571   0.59365   0.71534   0.00000  Uiso   1.00
C600   C     0.19749   0.90800   0.72611   0.00000  Uiso   1.00
C601   C     0.13357   0.54764   0.71548   0.00000  Uiso   1.00
C602   C     0.19697   0.95398   0.72651   0.00000  Uiso   1.00
C603   C     0.16401   0.52372   0.75147   0.00000  Uiso   1.00
C604   C     0.16040   0.97569   0.74944   0.00000  Uiso   1.00
H605   H     0.32497   0.74920   0.69474   0.00000  Uiso   1.00
H606   H     0.00832   0.75217   0.80519   0.00000  Uiso   1.00
H607   H     0.11124   0.61197   0.68759   0.00000  Uiso   1.00
H608   H     0.22701   0.89130   0.70944   0.00000  Uiso   1.00
H609   H     0.10792   0.53050   0.68767   0.00000  Uiso   1.00
H610   H     0.22585   0.97281   0.70995   0.00000  Uiso   1.00
H611   H     0.11804   0.68950   0.53087   0.00000  Uiso   1.00
H612   H     0.23623   0.79306   0.97213   0.00000  Uiso   1.00
H613   H     0.11687   0.69298   0.61618   0.00000  Uiso   1.00
H614   H     0.23213   0.79401   0.88607   0.00000  Uiso   1.00
H615   H     0.21713   0.80826   0.54114   0.00000  Uiso   1.00
H616   H     0.09976   0.70522   0.95645   0.00000  Uiso   1.00
N617   N     0.16667   0.74999   0.62623   0.00000  Uiso   1.00
N618   N     0.16667   0.75001   0.87376   0.00000  Uiso   1.00
O619   O     0.16667   0.68453   0.78974   0.00000  Uiso   1.00
O620   O     0.16666   0.81546   0.71026   0.00000  Uiso   1.00
O621   O     0.16667   0.68453   0.71026   0.00000  Uiso   1.00
O622   O     0.16666   0.81547   0.78974   0.00000  Uiso   1.00
O623   O     0.09058   0.75000   0.78044   0.00000  Uiso   1.00
O624   O     0.24275   0.75000   0.71955   0.00000  Uiso   1.00
O625   O     0.09058   0.74999   0.70097   0.00000  Uiso   1.00
O626   O     0.24275   0.75000   0.79903   0.00000  Uiso   1.00
Zn627  Zn    0.16667   0.75000   0.80307   0.00000  Uiso   1.00
Zn628  Zn    0.16667   0.74999   0.69693   0.00000  Uiso   1.00
C629   C     0.23179   0.51956   0.82663   0.00000  Uiso   1.00
H630   H     0.22602   0.98281   0.82423   0.00000  Uiso   1.00
H631   H     0.27390   0.52690   0.82497   0.00000  Uiso   1.00
H632   H     0.22233   0.52974   0.86173   0.00000  Uiso   1.00
C633   C     0.08301   0.97739   0.79496   0.00000  Uiso   1.00
H634   H     0.10412   0.99882   0.82328   0.00000  Uiso   1.00
H635   H     0.05906   0.99898   0.76838   0.00000  Uiso   1.00
H636   H     0.05565   0.95554   0.81161   0.00000  Uiso   1.00
Cl637  Cl    0.24488   0.62072   0.83045   0.00000  Uiso   1.00
Cl638  Cl    0.07463   0.87278   0.79463   0.00000  Uiso   1.00
Cl639  Cl    0.23583   0.82020   0.63900   0.00000  Uiso   1.00
Cl640  Cl    0.08650   0.68881   0.85930   0.00000  Uiso   1.00
C641   C     0.50113   0.66396   0.75047   0.00000  Uiso   1.00
C642   C     0.49855   0.83594   0.74956   0.00000  Uiso   1.00
C643   C     0.47260   0.71661   0.54998   0.00000  Uiso   1.00
C644   C     0.53835   0.77423   0.95159   0.00000  Uiso   1.00
C645   C     0.47223   0.71802   0.59930   0.00000  Uiso   1.00
C646   C     0.53670   0.77455   0.90198   0.00000  Uiso   1.00
C647   C     0.52894   0.78108   0.60519   0.00000  Uiso   1.00
C648   C     0.46438   0.72439   0.89380   0.00000  Uiso   1.00
C649   C     0.52862   0.78182   0.55590   0.00000  Uiso   1.00
C650   C     0.46345   0.72463   0.94293   0.00000  Uiso   1.00
C651   C     0.50062   0.74923   0.52681   0.00000  Uiso   1.00
C652   C     0.50086   0.74944   0.97338   0.00000  Uiso   1.00
C653   C     0.40043   0.75009   0.73763   0.00000  Uiso   1.00
C654   C     0.59956   0.75029   0.76236   0.00000  Uiso   1.00
C655   C     0.34542   0.75015   0.73093   0.00000  Uiso   1.00
C656   C     0.65456   0.75099   0.76902   0.00000  Uiso   1.00
C657   C     0.53137   0.54536   0.78775   0.00000  Uiso   1.00
C658   C     0.45572   0.95202   0.77118   0.00000  Uiso   1.00
C659   C     0.53361   0.59219   0.78731   0.00000  Uiso   1.00
C660   C     0.45618   0.90508   0.77041   0.00000  Uiso   1.00
C661   C     0.50166   0.61590   0.75124   0.00000  Uiso   1.00
C662   C     0.49476   0.88373   0.74860   0.00000  Uiso   1.00
C663   C     0.46904   0.59365   0.71534   0.00000  Uiso   1.00
C664   C     0.53083   0.90800   0.72611   0.00000  Uiso   1.00
C665   C     0.46690   0.54764   0.71548   0.00000  Uiso   1.00
C666   C     0.53030   0.95398   0.72651   0.00000  Uiso   1.00
C667   C     0.49735   0.52372   0.75147   0.00000  Uiso   1.00
C668   C     0.49374   0.97569   0.74944   0.00000  Uiso   1.00
H669   H     0.65830   0.74920   0.69474   0.00000  Uiso   1.00
H670   H     0.34165   0.75217   0.80519   0.00000  Uiso   1.00
H671   H     0.44457   0.61197   0.68759   0.00000  Uiso   1.00
H672   H     0.56035   0.89130   0.70944   0.00000  Uiso   1.00
H673   H     0.44126   0.53050   0.68767   0.00000  Uiso   1.00
H674   H     0.55918   0.97281   0.70995   0.00000  Uiso   1.00
H675   H     0.45137   0.68950   0.53087   0.00000  Uiso   1.00
H676   H     0.56957   0.79306   0.97213   0.00000  Uiso   1.00
H677   H     0.45021   0.69298   0.61618   0.00000  Uiso   1.00
H678   H     0.56546   0.79401   0.88607   0.00000  Uiso   1.00
H679   H     0.55047   0.80826   0.54114   0.00000  Uiso   1.00
H680   H     0.43310   0.70522   0.95645   0.00000  Uiso   1.00
N681   N     0.50000   0.74999   0.62623   0.00000  Uiso   1.00
N682   N     0.50000   0.75001   0.87376   0.00000  Uiso   1.00
O683   O     0.50000   0.68453   0.78974   0.00000  Uiso   1.00
O684   O     0.50000   0.81546   0.71026   0.00000  Uiso   1.00
O685   O     0.50000   0.68453   0.71026   0.00000  Uiso   1.00
O686   O     0.50000   0.81547   0.78974   0.00000  Uiso   1.00
O687   O     0.42392   0.75000   0.78044   0.00000  Uiso   1.00
O688   O     0.57608   0.75000   0.71955   0.00000  Uiso   1.00
O689   O     0.42392   0.74999   0.70097   0.00000  Uiso   1.00
O690   O     0.57608   0.75000   0.79903   0.00000  Uiso   1.00
Zn691  Zn    0.50000   0.75000   0.80307   0.00000  Uiso   1.00
Zn692  Zn    0.50000   0.74999   0.69693   0.00000  Uiso   1.00
C693   C     0.56513   0.51956   0.82663   0.00000  Uiso   1.00
H694   H     0.55935   0.98281   0.82423   0.00000  Uiso   1.00
H695   H     0.60723   0.52690   0.82497   0.00000  Uiso   1.00
H696   H     0.55566   0.52974   0.86173   0.00000  Uiso   1.00
C697   C     0.41635   0.97739   0.79496   0.00000  Uiso   1.00
H698   H     0.43745   0.99882   0.82328   0.00000  Uiso   1.00
H699   H     0.39240   0.99898   0.76838   0.00000  Uiso   1.00
H700   H     0.38898   0.95554   0.81161   0.00000  Uiso   1.00
Cl701  Cl    0.57821   0.62072   0.83045   0.00000  Uiso   1.00
Cl702  Cl    0.40796   0.87278   0.79463   0.00000  Uiso   1.00
Cl703  Cl    0.56916   0.82020   0.63900   0.00000  Uiso   1.00
Cl704  Cl    0.41984   0.68881   0.85930   0.00000  Uiso   1.00
C705   C     0.83446   0.66396   0.75047   0.00000  Uiso   1.00
C706   C     0.83188   0.83594   0.74956   0.00000  Uiso   1.00
C707   C     0.80594   0.71661   0.54998   0.00000  Uiso   1.00
C708   C     0.87168   0.77423   0.95159   0.00000  Uiso   1.00
C709   C     0.80556   0.71802   0.59930   0.00000  Uiso   1.00
C710   C     0.87003   0.77455   0.90198   0.00000  Uiso   1.00
C711   C     0.86227   0.78108   0.60519   0.00000  Uiso   1.00
C712   C     0.79772   0.72439   0.89380   0.00000  Uiso   1.00
C713   C     0.86195   0.78182   0.55590   0.00000  Uiso   1.00
C714   C     0.79679   0.72463   0.94293   0.00000  Uiso   1.00
C715   C     0.83395   0.74923   0.52681   0.00000  Uiso   1.00
C716   C     0.83419   0.74944   0.97338   0.00000  Uiso   1.00
C717   C     0.73376   0.75009   0.73763   0.00000  Uiso   1.00
C718   C     0.93290   0.75029   0.76236   0.00000  Uiso   1.00
C719   C     0.67875   0.75015   0.73093   0.00000  Uiso   1.00
C720   C     0.98790   0.75099   0.76902   0.00000  Uiso   1.00
C721   C     0.86470   0.54536   0.78775   0.00000  Uiso   1.00
C722   C     0.78905   0.95202   0.77118   0.00000  Uiso   1.00
C723   C     0.86694   0.59219   0.78731   0.00000  Uiso   1.00
C724   C     0.78951   0.90508   0.77041   0.00000  Uiso   1.00
C725   C     0.83500   0.61590   0.75124   0.00000  Uiso   1.00
C726   C     0.82810   0.88373   0.74860   0.00000  Uiso   1.00
C727   C     0.80238   0.59365   0.71534   0.00000  Uiso   1.00
C728   C     0.86416   0.90800   0.72611   0.00000  Uiso   1.00
C729   C     0.80024   0.54764   0.71548   0.00000  Uiso   1.00
C730   C     0.86363   0.95398   0.72651   0.00000  Uiso   1.00
C731   C     0.83068   0.52372   0.75147   0.00000  Uiso   1.00
C732   C     0.82707   0.97569   0.74944   0.00000  Uiso   1.00
H733   H     0.99163   0.74920   0.69474   0.00000  Uiso   1.00
H734   H     0.67498   0.75217   0.80519   0.00000  Uiso   1.00
H735   H     0.77790   0.61197   0.68759   0.00000  Uiso   1.00
H736   H     0.89368   0.89130   0.70944   0.00000  Uiso   1.00
H737   H     0.77459   0.53050   0.68767   0.00000  Uiso   1.00
H738   H     0.89252   0.97281   0.70995   0.00000  Uiso   1.00
H739   H     0.78471   0.68950   0.53087   0.00000  Uiso   1.00
H740   H     0.90290   0.79306   0.97213   0.00000  Uiso   1.00
H741   H     0.78354   0.69298   0.61618   0.00000  Uiso   1.00
H742   H     0.89880   0.79401   0.88607   0.00000  Uiso   1.00
H743   H     0.88380   0.80826   0.54114   0.00000  Uiso   1.00
H744   H     0.76643   0.70522   0.95645   0.00000  Uiso   1.00
N745   N     0.83333   0.74999   0.62623   0.00000  Uiso   1.00
N746   N     0.83333   0.75001   0.87376   0.00000  Uiso   1.00
O747   O     0.83334   0.68453   0.78974   0.00000  Uiso   1.00
O748   O     0.83333   0.81546   0.71026   0.00000  Uiso   1.00
O749   O     0.83334   0.68453   0.71026   0.00000  Uiso   1.00
O750   O     0.83333   0.81547   0.78974   0.00000  Uiso   1.00
O751   O     0.75725   0.75000   0.78044   0.00000  Uiso   1.00
O752   O     0.90942   0.75000   0.71955   0.00000  Uiso   1.00
O753   O     0.75725   0.74999   0.70097   0.00000  Uiso   1.00
O754   O     0.90942   0.75000   0.79903   0.00000  Uiso   1.00
Zn755  Zn    0.83333   0.75000   0.80307   0.00000  Uiso   1.00
Zn756  Zn    0.83333   0.74999   0.69693   0.00000  Uiso   1.00
C757   C     0.89846   0.51956   0.82663   0.00000  Uiso   1.00
H758   H     0.89268   0.98281   0.82423   0.00000  Uiso   1.00
H759   H     0.94057   0.52690   0.82497   0.00000  Uiso   1.00
H760   H     0.88899   0.52974   0.86173   0.00000  Uiso   1.00
C761   C     0.74968   0.97739   0.79496   0.00000  Uiso   1.00
H762   H     0.77079   0.99882   0.82328   0.00000  Uiso   1.00
H763   H     0.72573   0.99898   0.76838   0.00000  Uiso   1.00
H764   H     0.72232   0.95554   0.81161   0.00000  Uiso   1.00
Cl765  Cl    0.91154   0.62072   0.83045   0.00000  Uiso   1.00
Cl766  Cl    0.74130   0.87278   0.79463   0.00000  Uiso   1.00
Cl767  Cl    0.90250   0.82020   0.63900   0.00000  Uiso   1.00
Cl768  Cl    0.75317   0.68881   0.85930   0.00000  Uiso   1.00
loop_
_geom_bond_atom_site_label_1
_geom_bond_atom_site_label_2
_geom_bond_distance
_geom_bond_site_symmetry_2
_ccdc_geom_bond_type
C1     C21     1.436   .     S
C1     O43     1.288   .     A
C1     O45     1.290   .     A
C2     C22     1.432   .     S
C2     O46     1.287   .     A
C2     O44     1.289   .     A
C3     H35     1.079   .     S
C3     C11     1.417   .     A
C3     C5      1.408   .     A
C4     C6      1.408   .     A
C4     C12     1.417   .     A
C4     H36     1.079   .     S
C5     H37     1.082   .     S
C5     N41     1.361   .     A
C6     H38     1.082   .     S
C6     N42     1.361   .     A
C7     Cl63    1.753   .     S
C7     C9      1.403   .     A
C7     N41     1.369   .     A
C8     Cl64    1.754   .     S
C8     C10     1.403   .     A
C8     N42     1.369   .     A
C9     C11     1.408   .     A
C9     H39     1.079   .     S
C10    C12     1.408   .     A
C10    H40     1.079   .     S
C11    C396    1.523   1_554 S
C12    C395    1.523   .     S
C13    C15     1.401   .     S
C13    O49     1.281   .     A
C13    O47     1.281   .     A
C14    O48     1.280   .     A
C14    C16     1.401   .     S
C14    O50     1.281   .     A
C15    C144    1.328   1_455 S
C15    H157    1.088   1_455 S
C16    C79     1.328   .     S
C16    H94     1.088   .     S
C17    C27     1.412   .     A
C17    C53     1.514   .     S
C17    C19     1.400   .     A
C18    C28     1.410   .     A
C18    C20     1.403   .     A
C18    C57     1.515   .     S
C19    C21     1.409   .     A
C19    Cl61    1.774   .     S
C20    Cl62    1.774   .     S
C20    C22     1.410   .     A
C21    C23     1.395   .     A
C22    C24     1.393   .     A
C23    C25     1.375   .     A
C23    H31     1.084   .     S
C24    C26     1.374   .     A
C24    H32     1.083   .     S
C25    C27     1.392   .     A
C25    H33     1.084   .     S
C26    C28     1.393   .     A
C26    H34     1.084   .     S
C27    C220    1.438   1_545 S
C28    C219    1.438   .     S
H29    C79     1.088   .     S
H30    C144    1.088   1_455 S
N41    Zn52    2.014   .     S
N42    Zn51    2.014   .     S
O43    Zn51    1.998   .     S
O44    Zn52    1.998   .     S
O45    Zn52    1.988   .     S
O46    Zn51    1.988   .     S
O47    Zn51    1.971   .     S
O48    Zn52    1.971   .     S
O49    Zn52    1.978   .     S
O50    Zn51    1.978   .     S
C53    H55     1.110   .     S
C53    H56     1.110   .     S
C53    H246    1.108   1_545 S
H54    C245    1.108   .     S
C57    H58     1.110   .     S
C57    H59     1.110   .     S
C57    H60     1.106   .     S
C65    C85     1.436   .     S
C65    O107    1.288   .     A
C65    O109    1.290   .     A
C66    C86     1.432   .     S
C66    O110    1.287   .     A
C66    O108    1.289   .     A
C67    H99     1.079   .     S
C67    C75     1.417   .     A
C67    C69     1.408   .     A
C68    C70     1.408   .     A
C68    C76     1.417   .     A
C68    H100    1.079   .     S
C69    H101    1.082   .     S
C69    N105    1.361   .     A
C70    H102    1.082   .     S
C70    N106    1.361   .     A
C71    Cl127   1.753   .     S
C71    C73     1.403   .     A
C71    N105    1.369   .     A
C72    Cl128   1.754   .     S
C72    C74     1.403   .     A
C72    N106    1.369   .     A
C73    C75     1.408   .     A
C73    H103    1.079   .     S
C74    C76     1.408   .     A
C74    H104    1.079   .     S
C75    C460    1.523   1_554 S
C76    C459    1.523   .     S
C77    C79     1.401   .     S
C77    O113    1.281   .     A
C77    O111    1.281   .     A
C78    O112    1.280   .     A
C78    C80     1.401   .     S
C78    O114    1.281   .     A
C80    C143    1.328   .     S
C80    H158    1.088   .     S
C81    C91     1.412   .     A
C81    C117    1.514   .     S
C81    C83     1.400   .     A
C82    C92     1.410   .     A
C82    C84     1.403   .     A
C82    C121    1.515   .     S
C83    C85     1.409   .     A
C83    Cl125   1.774   .     S
C84    Cl126   1.774   .     S
C84    C86     1.410   .     A
C85    C87     1.395   .     A
C86    C88     1.393   .     A
C87    C89     1.375   .     A
C87    H95     1.084   .     S
C88    C90     1.374   .     A
C88    H96     1.083   .     S
C89    C91     1.392   .     A
C89    H97     1.084   .     S
C90    C92     1.393   .     A
C90    H98     1.084   .     S
C91    C284    1.438   1_545 S
C92    C283    1.438   .     S
H93    C143    1.088   .     S
N105   Zn116   2.014   .     S
N106   Zn115   2.014   .     S
O107   Zn115   1.998   .     S
O108   Zn116   1.998   .     S
O109   Zn116   1.988   .     S
O110   Zn115   1.988   .     S
O111   Zn115   1.971   .     S
O112   Zn116   1.971   .     S
O113   Zn116   1.978   .     S
O114   Zn115   1.978   .     S
C117   H119    1.110   .     S
C117   H120    1.110   .     S
C117   H310    1.108   1_545 S
H118   C309    1.108   .     S
C121   H122    1.110   .     S
C121   H123    1.110   .     S
C121   H124    1.106   .     S
C129   C149    1.436   .     S
C129   O171    1.288   .     A
C129   O173    1.290   .     A
C130   C150    1.432   .     S
C130   O174    1.287   .     A
C130   O172    1.289   .     A
C131   H163    1.079   .     S
C131   C139    1.417   .     A
C131   C133    1.408   .     A
C132   C134    1.408   .     A
C132   C140    1.417   .     A
C132   H164    1.079   .     S
C133   H165    1.082   .     S
C133   N169    1.361   .     A
C134   H166    1.082   .     S
C134   N170    1.361   .     A
C135   Cl191   1.753   .     S
C135   C137    1.403   .     A
C135   N169    1.369   .     A
C136   Cl192   1.754   .     S
C136   C138    1.403   .     A
C136   N170    1.369   .     A
C137   C139    1.408   .     A
C137   H167    1.079   .     S
C138   C140    1.408   .     A
C138   H168    1.079   .     S
C139   C524    1.523   1_554 S
C140   C523    1.523   .     S
C141   C143    1.401   .     S
C141   O177    1.281   .     A
C141   O175    1.281   .     A
C142   O176    1.280   .     A
C142   C144    1.401   .     S
C142   O178    1.281   .     A
C144   C15     1.328   1_655 S
C144   H30     1.088   1_655 S
C145   C155    1.412   .     A
C145   C181    1.514   .     S
C145   C147    1.400   .     A
C146   C156    1.410   .     A
C146   C148    1.403   .     A
C146   C185    1.515   .     S
C147   C149    1.409   .     A
C147   Cl189   1.774   .     S
C148   Cl190   1.774   .     S
C148   C150    1.410   .     A
C149   C151    1.395   .     A
C150   C152    1.393   .     A
C151   C153    1.375   .     A
C151   H159    1.084   .     S
C152   C154    1.374   .     A
C152   H160    1.083   .     S
C153   C155    1.392   .     A
C153   H161    1.084   .     S
C154   C156    1.393   .     A
C154   H162    1.084   .     S
C155   C348    1.438   1_545 S
C156   C347    1.438   .     S
H157   C15     1.088   1_655 S
N169   Zn180   2.014   .     S
N170   Zn179   2.014   .     S
O171   Zn179   1.998   .     S
O172   Zn180   1.998   .     S
O173   Zn180   1.988   .     S
O174   Zn179   1.988   .     S
O175   Zn179   1.971   .     S
O176   Zn180   1.971   .     S
O177   Zn180   1.978   .     S
O178   Zn179   1.978   .     S
C181   H183    1.110   .     S
C181   H184    1.110   .     S
C181   H374    1.108   1_545 S
H182   C373    1.108   .     S
C185   H186    1.110   .     S
C185   H187    1.110   .     S
C185   H188    1.106   .     S
C193   C213    1.436   .     S
C193   O235    1.288   .     A
C193   O237    1.290   .     A
C194   C214    1.432   .     S
C194   O238    1.287   .     A
C194   O236    1.289   .     A
C195   H227    1.079   .     S
C195   C203    1.417   .     A
C195   C197    1.408   .     A
C196   C198    1.408   .     A
C196   C204    1.417   .     A
C196   H228    1.079   .     S
C197   H229    1.082   .     S
C197   N233    1.361   .     A
C198   H230    1.082   .     S
C198   N234    1.361   .     A
C199   Cl255   1.753   .     S
C199   C201    1.403   .     A
C199   N233    1.369   .     A
C200   Cl256   1.754   .     S
C200   C202    1.403   .     A
C200   N234    1.369   .     A
C201   C203    1.408   .     A
C201   H231    1.079   .     S
C202   C204    1.408   .     A
C202   H232    1.079   .     S
C203   C588    1.523   1_554 S
C204   C587    1.523   .     S
C205   C207    1.401   .     S
C205   O241    1.281   .     A
C205   O239    1.281   .     A
C206   O240    1.280   .     A
C206   C208    1.401   .     S
C206   O242    1.281   .     A
C207   C336    1.328   1_455 S
C207   H349    1.088   1_455 S
C208   C271    1.328   .     S
C208   H286    1.088   .     S
C209   C219    1.412   .     A
C209   C245    1.514   .     S
C209   C211    1.400   .     A
C210   C220    1.410   .     A
C210   C212    1.403   .     A
C210   C249    1.515   .     S
C211   C213    1.409   .     A
C211   Cl253   1.774   .     S
C212   Cl254   1.774   .     S
C212   C214    1.410   .     A
C213   C215    1.395   .     A
C214   C216    1.393   .     A
C215   C217    1.375   .     A
C215   H223    1.084   .     S
C216   C218    1.374   .     A
C216   H224    1.083   .     S
C217   C219    1.392   .     A
C217   H225    1.084   .     S
C218   C220    1.393   .     A
C218   H226    1.084   .     S
C220   C27     1.438   1_565 S
H221   C271    1.088   .     S
H222   C336    1.088   1_455 S
N233   Zn244   2.014   .     S
N234   Zn243   2.014   .     S
O235   Zn243   1.998   .     S
O236   Zn244   1.998   .     S
O237   Zn244   1.988   .     S
O238   Zn243   1.988   .     S
O239   Zn243   1.971   .     S
O240   Zn244   1.971   .     S
O241   Zn244   1.978   .     S
O242   Zn243   1.978   .     S
C245   H247    1.110   .     S
C245   H248    1.110   .     S
H246   C53     1.108   1_565 S
C249   H250    1.110   .     S
C249   H251    1.110   .     S
C249   H252    1.106   .     S
C257   C277    1.436   .     S
C257   O299    1.288   .     A
C257   O301    1.290   .     A
C258   C278    1.432   .     S
C258   O302    1.287   .     A
C258   O300    1.289   .     A
C259   H291    1.079   .     S
C259   C267    1.417   .     A
C259   C261    1.408   .     A
C260   C262    1.408   .     A
C260   C268    1.417   .     A
C260   H292    1.079   .     S
C261   H293    1.082   .     S
C261   N297    1.361   .     A
C262   H294    1.082   .     S
C262   N298    1.361   .     A
C263   Cl319   1.753   .     S
C263   C265    1.403   .     A
C263   N297    1.369   .     A
C264   Cl320   1.754   .     S
C264   C266    1.403   .     A
C264   N298    1.369   .     A
C265   C267    1.408   .     A
C265   H295    1.079   .     S
C266   C268    1.408   .     A
C266   H296    1.079   .     S
C267   C652    1.523   1_554 S
C268   C651    1.523   .     S
C269   C271    1.401   .     S
C269   O305    1.281   .     A
C269   O303    1.281   .     A
C270   O304    1.280   .     A
C270   C272    1.401   .     S
C270   O306    1.281   .     A
C272   C335    1.328   .     S
C272   H350    1.088   .     S
C273   C283    1.412   .     A
C273   C309    1.514   .     S
C273   C275    1.400   .     A
C274   C284    1.410   .     A
C274   C276    1.403   .     A
C274   C313    1.515   .     S
C275   C277    1.409   .     A
C275   Cl317   1.774   .     S
C276   Cl318   1.774   .     S
C276   C278    1.410   .     A
C277   C279    1.395   .     A
C278   C280    1.393   .     A
C279   C281    1.375   .     A
C279   H287    1.084   .     S
C280   C282    1.374   .     A
C280   H288    1.083   .     S
C281   C283    1.392   .     A
C281   H289    1.084   .     S
C282   C284    1.393   .     A
C282   H290    1.084   .     S
C284   C91     1.438   1_565 S
H285   C335    1.088   .     S
N297   Zn308   2.014   .     S
N298   Zn307   2.014   .     S
O299   Zn307   1.998   .     S
O300   Zn308   1.998   .     S
O301   Zn308   1.988   .     S
O302   Zn307   1.988   .     S
O303   Zn307   1.971   .     S
O304   Zn308   1.971   .     S
O305   Zn308   1.978   .     S
O306   Zn307   1.978   .     S
C309   H311    1.110   .     S
C309   H312    1.110   .     S
H310   C117    1.108   1_565 S
C313   H314    1.110   .     S
C313   H315    1.110   .     S
C313   H316    1.106   .     S
C321   C341    1.436   .     S
C321   O363    1.288   .     A
C321   O365    1.290   .     A
C322   C342    1.432   .     S
C322   O366    1.287   .     A
C322   O364    1.289   .     A
C323   H355    1.079   .     S
C323   C331    1.417   .     A
C323   C325    1.408   .     A
C324   C326    1.408   .     A
C324   C332    1.417   .     A
C324   H356    1.079   .     S
C325   H357    1.082   .     S
C325   N361    1.361   .     A
C326   H358    1.082   .     S
C326   N362    1.361   .     A
C327   Cl383   1.753   .     S
C327   C329    1.403   .     A
C327   N361    1.369   .     A
C328   Cl384   1.754   .     S
C328   C330    1.403   .     A
C328   N362    1.369   .     A
C329   C331    1.408   .     A
C329   H359    1.079   .     S
C330   C332    1.408   .     A
C330   H360    1.079   .     S
C331   C716    1.523   1_554 S
C332   C715    1.523   .     S
C333   C335    1.401   .     S
C333   O369    1.281   .     A
C333   O367    1.281   .     A
C334   O368    1.280   .     A
C334   C336    1.401   .     S
C334   O370    1.281   .     A
C336   C207    1.328   1_655 S
C336   H222    1.088   1_655 S
C337   C347    1.412   .     A
C337   C373    1.514   .     S
C337   C339    1.400   .     A
C338   C348    1.410   .     A
C338   C340    1.403   .     A
C338   C377    1.515   .     S
C339   C341    1.409   .     A
C339   Cl381   1.774   .     S
C340   Cl382   1.774   .     S
C340   C342    1.410   .     A
C341   C343    1.395   .     A
C342   C344    1.393   .     A
C343   C345    1.375   .     A
C343   H351    1.084   .     S
C344   C346    1.374   .     A
C344   H352    1.083   .     S
C345   C347    1.392   .     A
C345   H353    1.084   .     S
C346   C348    1.393   .     A
C346   H354    1.084   .     S
C348   C155    1.438   1_565 S
H349   C207    1.088   1_655 S
N361   Zn372   2.014   .     S
N362   Zn371   2.014   .     S
O363   Zn371   1.998   .     S
O364   Zn372   1.998   .     S
O365   Zn372   1.988   .     S
O366   Zn371   1.988   .     S
O367   Zn371   1.971   .     S
O368   Zn372   1.971   .     S
O369   Zn372   1.978   .     S
O370   Zn371   1.978   .     S
C373   H375    1.110   .     S
C373   H376    1.110   .     S
H374   C181    1.108   1_565 S
C377   H378    1.110   .     S
C377   H379    1.110   .     S
C377   H380    1.106   .     S
C385   C405    1.436   .     S
C385   O427    1.288   .     A
C385   O429    1.290   .     A
C386   C406    1.432   .     S
C386   O430    1.287   .     A
C386   O428    1.289   .     A
C387   H419    1.079   .     S
C387   C395    1.417   .     A
C387   C389    1.408   .     A
C388   C390    1.408   .     A
C388   C396    1.417   .     A
C388   H420    1.079   .     S
C389   H421    1.082   .     S
C389   N425    1.361   .     A
C390   H422    1.082   .     S
C390   N426    1.361   .     A
C391   Cl447   1.753   .     S
C391   C393    1.403   .     A
C391   N425    1.369   .     A
C392   Cl448   1.754   .     S
C392   C394    1.403   .     A
C392   N426    1.369   .     A
C393   C395    1.408   .     A
C393   H423    1.079   .     S
C394   C396    1.408   .     A
C394   H424    1.079   .     S
C396   C11     1.523   1_556 S
C397   C399    1.401   .     S
C397   O433    1.281   .     A
C397   O431    1.281   .     A
C398   O432    1.280   .     A
C398   C400    1.401   .     S
C398   O434    1.281   .     A
C399   C528    1.328   1_455 S
C399   H541    1.088   1_455 S
C400   C463    1.328   .     S
C400   H478    1.088   .     S
C401   C411    1.412   .     A
C401   C437    1.514   .     S
C401   C403    1.400   .     A
C402   C412    1.410   .     A
C402   C404    1.403   .     A
C402   C441    1.515   .     S
C403   C405    1.409   .     A
C403   Cl445   1.774   .     S
C404   Cl446   1.774   .     S
C404   C406    1.410   .     A
C405   C407    1.395   .     A
C406   C408    1.393   .     A
C407   C409    1.375   .     A
C407   H415    1.084   .     S
C408   C410    1.374   .     A
C408   H416    1.083   .     S
C409   C411    1.392   .     A
C409   H417    1.084   .     S
C410   C412    1.393   .     A
C410   H418    1.084   .     S
C411   C604    1.438   1_545 S
C412   C603    1.438   .     S
H413   C463    1.088   .     S
H414   C528    1.088   1_455 S
N425   Zn436   2.014   .     S
N426   Zn435   2.014   .     S
O427   Zn435   1.998   .     S
O428   Zn436   1.998   .     S
O429   Zn436   1.988   .     S
O430   Zn435   1.988   .     S
O431   Zn435   1.971   .     S
O432   Zn436   1.971   .     S
O433   Zn436   1.978   .     S
O434   Zn435   1.978   .     S
C437   H439    1.110   .     S
C437   H440    1.110   .     S
C437   H630    1.108   1_545 S
H438   C629    1.108   .     S
C441   H442    1.110   .     S
C441   H443    1.110   .     S
C441   H444    1.106   .     S
C449   C469    1.436   .     S
C449   O491    1.288   .     A
C449   O493    1.290   .     A
C450   C470    1.432   .     S
C450   O494    1.287   .     A
C450   O492    1.289   .     A
C451   H483    1.079   .     S
C451   C459    1.417   .     A
C451   C453    1.408   .     A
C452   C454    1.408   .     A
C452   C460    1.417   .     A
C452   H484    1.079   .     S
C453   H485    1.082   .     S
C453   N489    1.361   .     A
C454   H486    1.082   .     S
C454   N490    1.361   .     A
C455   Cl511   1.753   .     S
C455   C457    1.403   .     A
C455   N489    1.369   .     A
C456   Cl512   1.754   .     S
C456   C458    1.403   .     A
C456   N490    1.369   .     A
C457   C459    1.408   .     A
C457   H487    1.079   .     S
C458   C460    1.408   .     A
C458   H488    1.079   .     S
C460   C75     1.523   1_556 S
C461   C463    1.401   .     S
C461   O497    1.281   .     A
C461   O495    1.281   .     A
C462   O496    1.280   .     A
C462   C464    1.401   .     S
C462   O498    1.281   .     A
C464   C527    1.328   .     S
C464   H542    1.088   .     S
C465   C475    1.412   .     A
C465   C501    1.514   .     S
C465   C467    1.400   .     A
C466   C476    1.410   .     A
C466   C468    1.403   .     A
C466   C505    1.515   .     S
C467   C469    1.409   .     A
C467   Cl509   1.774   .     S
C468   Cl510   1.774   .     S
C468   C470    1.410   .     A
C469   C471    1.395   .     A
C470   C472    1.393   .     A
C471   C473    1.375   .     A
C471   H479    1.084   .     S
C472   C474    1.374   .     A
C472   H480    1.083   .     S
C473   C475    1.392   .     A
C473   H481    1.084   .     S
C474   C476    1.393   .     A
C474   H482    1.084   .     S
C475   C668    1.438   1_545 S
C476   C667    1.438   .     S
H477   C527    1.088   .     S
N489   Zn500   2.014   .     S
N490   Zn499   2.014   .     S
O491   Zn499   1.998   .     S
O492   Zn500   1.998   .     S
O493   Zn500   1.988   .     S
O494   Zn499   1.988   .     S
O495   Zn499   1.971   .     S
O496   Zn500   1.971   .     S
O497   Zn500   1.978   .     S
O498   Zn499   1.978   .     S
C501   H503    1.110   .     S
C501   H504    1.110   .     S
C501   H694    1.108   1_545 S
H502   C693    1.108   .     S
C505   H506    1.110   .     S
C505   H507    1.110   .     S
C505   H508    1.106   .     S
C513   C533    1.436   .     S
C513   O555    1.288   .     A
C513   O557    1.290   .     A
C514   C534    1.432   .     S
C514   O558    1.287   .     A
C514   O556    1.289   .     A
C515   H547    1.079   .     S
C515   C523    1.417   .     A
C515   C517    1.408   .     A
C516   C518    1.408   .     A
C516   C524    1.417   .     A
C516   H548    1.079   .     S
C517   H549    1.082   .     S
C517   N553    1.361   .     A
C518   H550    1.082   .     S
C518   N554    1.361   .     A
C519   Cl575   1.753   .     S
C519   C521    1.403   .     A
C519   N553    1.369   .     A
C520   Cl576   1.754   .     S
C520   C522    1.403   .     A
C520   N554    1.369   .     A
C521   C523    1.408   .     A
C521   H551    1.079   .     S
C522   C524    1.408   .     A
C522   H552    1.079   .     S
C524   C139    1.523   1_556 S
C525   C527    1.401   .     S
C525   O561    1.281   .     A
C525   O559    1.281   .     A
C526   O560    1.280   .     A
C526   C528    1.401   .     S
C526   O562    1.281   .     A
C528   C399    1.328   1_655 S
C528   H414    1.088   1_655 S
C529   C539    1.412   .     A
C529   C565    1.514   .     S
C529   C531    1.400   .     A
C530   C540    1.410   .     A
C530   C532    1.403   .     A
C530   C569    1.515   .     S
C531   C533    1.409   .     A
C531   Cl573   1.774   .     S
C532   Cl574   1.774   .     S
C532   C534    1.410   .     A
C533   C535    1.395   .     A
C534   C536    1.393   .     A
C535   C537    1.375   .     A
C535   H543    1.084   .     S
C536   C538    1.374   .     A
C536   H544    1.083   .     S
C537   C539    1.392   .     A
C537   H545    1.084   .     S
C538   C540    1.393   .     A
C538   H546    1.084   .     S
C539   C732    1.438   1_545 S
C540   C731    1.438   .     S
H541   C399    1.088   1_655 S
N553   Zn564   2.014   .     S
N554   Zn563   2.014   .     S
O555   Zn563   1.998   .     S
O556   Zn564   1.998   .     S
O557   Zn564   1.988   .     S
O558   Zn563   1.988   .     S
O559   Zn563   1.971   .     S
O560   Zn564   1.971   .     S
O561   Zn564   1.978   .     S
O562   Zn563   1.978   .     S
C565   H567    1.110   .     S
C565   H568    1.110   .     S
C565   H758    1.108   1_545 S
H566   C757    1.108   .     S
C569   H570    1.110   .     S
C569   H571    1.110   .     S
C569   H572    1.106   .     S
C577   C597    1.436   .     S
C577   O619    1.288   .     A
C577   O621    1.290   .     A
C578   C598    1.432   .     S
C578   O622    1.287   .     A
C578   O620    1.289   .     A
C579   H611    1.079   .     S
C579   C587    1.417   .     A
C579   C581    1.408   .     A
C580   C582    1.408   .     A
C580   C588    1.417   .     A
C580   H612    1.079   .     S
C581   H613    1.082   .     S
C581   N617    1.361   .     A
C582   H614    1.082   .     S
C582   N618    1.361   .     A
C583   Cl639   1.753   .     S
C583   C585    1.403   .     A
C583   N617    1.369   .     A
C584   Cl640   1.754   .     S
C584   C586    1.403   .     A
C584   N618    1.369   .     A
C585   C587    1.408   .     A
C585   H615    1.079   .     S
C586   C588    1.408   .     A
C586   H616    1.079   .     S
C588   C203    1.523   1_556 S
C589   C591    1.401   .     S
C589   O625    1.281   .     A
C589   O623    1.281   .     A
C590   O624    1.280   .     A
C590   C592    1.401   .     S
C590   O626    1.281   .     A
C591   C720    1.328   1_455 S
C591   H733    1.088   1_455 S
C592   C655    1.328   .     S
C592   H670    1.088   .     S
C593   C603    1.412   .     A
C593   C629    1.514   .     S
C593   C595    1.400   .     A
C594   C604    1.410   .     A
C594   C596    1.403   .     A
C594   C633    1.515   .     S
C595   C597    1.409   .     A
C595   Cl637   1.774   .     S
C596   Cl638   1.774   .     S
C596   C598    1.410   .     A
C597   C599    1.395   .     A
C598   C600    1.393   .     A
C599   C601    1.375   .     A
C599   H607    1.084   .     S
C600   C602    1.374   .     A
C600   H608    1.083   .     S
C601   C603    1.392   .     A
C601   H609    1.084   .     S
C602   C604    1.393   .     A
C602   H610    1.084   .     S
C604   C411    1.438   1_565 S
H605   C655    1.088   .     S
H606   C720    1.088   1_455 S
N617   Zn628   2.014   .     S
N618   Zn627   2.014   .     S
O619   Zn627   1.998   .     S
O620   Zn628   1.998   .     S
O621   Zn628   1.988   .     S
O622   Zn627   1.988   .     S
O623   Zn627   1.971   .     S
O624   Zn628   1.971   .     S
O625   Zn628   1.978   .     S
O626   Zn627   1.978   .     S
C629   H631    1.110   .     S
C629   H632    1.110   .     S
H630   C437    1.108   1_565 S
C633   H634    1.110   .     S
C633   H635    1.110   .     S
C633   H636    1.106   .     S
C641   C661    1.436   .     S
C641   O683    1.288   .     A
C641   O685    1.290   .     A
C642   C662    1.432   .     S
C642   O686    1.287   .     A
C642   O684    1.289   .     A
C643   H675    1.079   .     S
C643   C651    1.417   .     A
C643   C645    1.408   .     A
C644   C646    1.408   .     A
C644   C652    1.417   .     A
C644   H676    1.079   .     S
C645   H677    1.082   .     S
C645   N681    1.361   .     A
C646   H678    1.082   .     S
C646   N682    1.361   .     A
C647   Cl703   1.753   .     S
C647   C649    1.403   .     A
C647   N681    1.369   .     A
C648   Cl704   1.754   .     S
C648   C650    1.403   .     A
C648   N682    1.369   .     A
C649   C651    1.408   .     A
C649   H679    1.079   .     S
C650   C652    1.408   .     A
C650   H680    1.079   .     S
C652   C267    1.523   1_556 S
C653   C655    1.401   .     S
C653   O689    1.281   .     A
C653   O687    1.281   .     A
C654   O688    1.280   .     A
C654   C656    1.401   .     S
C654   O690    1.281   .     A
C656   C719    1.328   .     S
C656   H734    1.088   .     S
C657   C667    1.412   .     A
C657   C693    1.514   .     S
C657   C659    1.400   .     A
C658   C668    1.410   .     A
C658   C660    1.403   .     A
C658   C697    1.515   .     S
C659   C661    1.409   .     A
C659   Cl701   1.774   .     S
C660   Cl702   1.774   .     S
C660   C662    1.410   .     A
C661   C663    1.395   .     A
C662   C664    1.393   .     A
C663   C665    1.375   .     A
C663   H671    1.084   .     S
C664   C666    1.374   .     A
C664   H672    1.083   .     S
C665   C667    1.392   .     A
C665   H673    1.084   .     S
C666   C668    1.393   .     A
C666   H674    1.084   .     S
C668   C475    1.438   1_565 S
H669   C719    1.088   .     S
N681   Zn692   2.014   .     S
N682   Zn691   2.014   .     S
O683   Zn691   1.998   .     S
O684   Zn692   1.998   .     S
O685   Zn692   1.988   .     S
O686   Zn691   1.988   .     S
O687   Zn691   1.971   .     S
O688   Zn692   1.971   .     S
O689   Zn692   1.978   .     S
O690   Zn691   1.978   .     S
C693   H695    1.110   .     S
C693   H696    1.110   .     S
H694   C501    1.108   1_565 S
C697   H698    1.110   .     S
C697   H699    1.110   .     S
C697   H700    1.106   .     S
C705   C725    1.436   .     S
C705   O747    1.288   .     A
C705   O749    1.290   .     A
C706   C726    1.432   .     S
C706   O750    1.287   .     A
C706   O748    1.289   .     A
C707   H739    1.079   .     S
C707   C715    1.417   .     A
C707   C709    1.408   .     A
C708   C710    1.408   .     A
C708   C716    1.417   .     A
C708   H740    1.079   .     S
C709   H741    1.082   .     S
C709   N745    1.361   .     A
C710   H742    1.082   .     S
C710   N746    1.361   .     A
C711   Cl767   1.753   .     S
C711   C713    1.403   .     A
C711   N745    1.369   .     A
C712   Cl768   1.754   .     S
C712   C714    1.403   .     A
C712   N746    1.369   .     A
C713   C715    1.408   .     A
C713   H743    1.079   .     S
C714   C716    1.408   .     A
C714   H744    1.079   .     S
C716   C331    1.523   1_556 S
C717   C719    1.401   .     S
C717   O753    1.281   .     A
C717   O751    1.281   .     A
C718   O752    1.280   .     A
C718   C720    1.401   .     S
C718   O754    1.281   .     A
C720   C591    1.328   1_655 S
C720   H606    1.088   1_655 S
C721   C731    1.412   .     A
C721   C757    1.514   .     S
C721   C723    1.400   .     A
C722   C732    1.410   .     A
C722   C724    1.403   .     A
C722   C761    1.515   .     S
C723   C725    1.409   .     A
C723   Cl765   1.774   .     S
C724   Cl766   1.774   .     S
C724   C726    1.410   .     A
C725   C727    1.395   .     A
C726   C728    1.393   .     A
C727   C729    1.375   .     A
C727   H735    1.084   .     S
C728   C730    1.374   .     A
C728   H736    1.083   .     S
C729   C731    1.392   .     A
C729   H737    1.084   .     S
C730   C732    1.393   .     A
C730   H738    1.084   .     S
C732   C539    1.438   1_565 S
H733   C591    1.088   1_655 S
N745   Zn756   2.014   .     S
N746   Zn755   2.014   .     S
O747   Zn755   1.998   .     S
O748   Zn756   1.998   .     S
O749   Zn756   1.988   .     S
O750   Zn755   1.988   .     S
O751   Zn755   1.971   .     S
O752   Zn756   1.971   .     S
O753   Zn756   1.978   .     S
O754   Zn755   1.978   .     S
C757   H759    1.110   .     S
C757   H760    1.110   .     S
H758   C565    1.108   1_565 S
C761   H762    1.110   .     S
C761   H763    1.110   .     S
C761   H764    1.106   .     S
