data_str_m3_o10_o16_pcu_sym.11
_audit_creation_date              2020-01-03
_audit_creation_method            'Materials Studio'
_symmetry_space_group_name_H-M    'P1'
_symmetry_Int_Tables_number       1
_symmetry_cell_setting            triclinic
loop_
_symmetry_equiv_pos_as_xyz
  x,y,z
_cell_length_a                    23.4536
_cell_length_b                    25.7299
_cell_length_c                    25.1989
_cell_angle_alpha                 92.3618
_cell_angle_beta                  103.2859
_cell_angle_gamma                 93.7817
loop_
_atom_site_label
_atom_site_type_symbol
_atom_site_fract_x
_atom_site_fract_y
_atom_site_fract_z
_atom_site_U_iso_or_equiv
_atom_site_adp_type
_atom_site_occupancy
C1     C     0.01472   0.26483   0.24856   0.00000  Uiso   1.00
C2     C     0.06522   0.19293   0.41141   0.00000  Uiso   1.00
C3     C     0.02242   0.31934   0.24773   0.00000  Uiso   1.00
C4     C     0.03860   0.17663   0.35379   0.00000  Uiso   1.00
C5     C     0.31087   0.01399   0.25213   0.00000  Uiso   1.00
C6     C     0.31859   0.06850   0.25140   0.00000  Uiso   1.00
C7     C     0.29563   0.15776   0.14638   0.00000  Uiso   1.00
C8     C     0.29032   0.13147   0.49885   0.00000  Uiso   1.00
C9     C     0.27330   0.14515   0.08866   0.00000  Uiso   1.00
C10    C     0.03192   0.21511   0.44474   0.00000  Uiso   1.00
C11    C     0.05485   0.22214   0.00098   0.00000  Uiso   1.00
C12    C     0.14264   0.18083   0.49103   0.00000  Uiso   1.00
C13    C     0.10853   0.20274   0.02444   0.00000  Uiso   1.00
C14    C     0.12482   0.18504   0.43450   0.00000  Uiso   1.00
C15    C     0.19645   0.15911   0.01189   0.00000  Uiso   1.00
C16    C     0.23514   0.14921   0.47744   0.00000  Uiso   1.00
C17    C     0.22015   0.16099   0.42333   0.00000  Uiso   1.00
C18    C     0.16763   0.18216   0.40341   0.00000  Uiso   1.00
C19    C     0.21349   0.14693   0.06605   0.00000  Uiso   1.00
C20    C     0.31115   0.13341   0.05501   0.00000  Uiso   1.00
H21    H     0.02332   0.12707   0.07192   0.00000  Uiso   1.00
H22    H     0.16290   0.19906   0.36465   0.00000  Uiso   1.00
H23    H     0.06479   0.00292   0.24354   0.00000  Uiso   1.00
H24    H     0.26849   0.33041   0.25631   0.00000  Uiso   1.00
H25    H     0.15730   0.12015   0.21656   0.00000  Uiso   1.00
H26    H     0.17623   0.21361   0.28295   0.00000  Uiso   1.00
H27    H     0.25002   0.15605   0.39704   0.00000  Uiso   1.00
H28    H     0.31937   0.12178   0.47275   0.00000  Uiso   1.00
H29    H     0.32177   0.22687   0.42746   0.00000  Uiso   1.00
H30    H     0.12404   0.20694   0.06837   0.00000  Uiso   1.00
H31    H     0.02945   0.23986   0.02671   0.00000  Uiso   1.00
I32    I     0.15231   0.10283   0.10083   0.00000  Uiso   1.00
N33    N     0.14493   0.15223   0.23542   0.00000  Uiso   1.00
N34    N     0.18840   0.18110   0.26457   0.00000  Uiso   1.00
O35    O     0.29769   0.24629   0.25357   0.00000  Uiso   1.00
O36    O     0.05742   0.23704   0.24423   0.00000  Uiso   1.00
O37    O     0.31490   0.17358   0.33380   0.00000  Uiso   1.00
O38    O     0.07463   0.16433   0.32446   0.00000  Uiso   1.00
O39    O     0.27592   0.09629   0.25576   0.00000  Uiso   1.00
O40    O     0.03565   0.08704   0.24642   0.00000  Uiso   1.00
O41    O     0.25870   0.16901   0.17554   0.00000  Uiso   1.00
O42    O     0.01843   0.15976   0.16620   0.00000  Uiso   1.00
Zn43   Zn    0.27119   0.17284   0.25623   0.00000  Uiso   1.00
Zn44   Zn    0.06214   0.16049   0.24376   0.00000  Uiso   1.00
C45    C     0.34806   0.26483   0.24856   0.00000  Uiso   1.00
C46    C     0.39855   0.19293   0.41141   0.00000  Uiso   1.00
C47    C     0.35575   0.31934   0.24773   0.00000  Uiso   1.00
C48    C     0.37193   0.17663   0.35379   0.00000  Uiso   1.00
C49    C     0.64420   0.01399   0.25213   0.00000  Uiso   1.00
C50    C     0.65193   0.06850   0.25140   0.00000  Uiso   1.00
C51    C     0.62897   0.15776   0.14638   0.00000  Uiso   1.00
C52    C     0.62365   0.13147   0.49885   0.00000  Uiso   1.00
C53    C     0.60663   0.14515   0.08866   0.00000  Uiso   1.00
C54    C     0.36525   0.21511   0.44474   0.00000  Uiso   1.00
C55    C     0.38818   0.22214   0.00098   0.00000  Uiso   1.00
C56    C     0.47598   0.18083   0.49103   0.00000  Uiso   1.00
C57    C     0.44186   0.20274   0.02444   0.00000  Uiso   1.00
C58    C     0.45816   0.18504   0.43450   0.00000  Uiso   1.00
C59    C     0.52978   0.15911   0.01189   0.00000  Uiso   1.00
C60    C     0.56848   0.14921   0.47744   0.00000  Uiso   1.00
C61    C     0.55349   0.16099   0.42333   0.00000  Uiso   1.00
C62    C     0.50096   0.18216   0.40341   0.00000  Uiso   1.00
C63    C     0.54683   0.14693   0.06605   0.00000  Uiso   1.00
C64    C     0.64448   0.13341   0.05501   0.00000  Uiso   1.00
H65    H     0.35665   0.12707   0.07192   0.00000  Uiso   1.00
H66    H     0.49623   0.19906   0.36465   0.00000  Uiso   1.00
H67    H     0.39812   0.00292   0.24354   0.00000  Uiso   1.00
H68    H     0.60182   0.33041   0.25631   0.00000  Uiso   1.00
H69    H     0.49064   0.12015   0.21656   0.00000  Uiso   1.00
H70    H     0.50956   0.21361   0.28295   0.00000  Uiso   1.00
H71    H     0.58335   0.15605   0.39704   0.00000  Uiso   1.00
H72    H     0.65271   0.12178   0.47275   0.00000  Uiso   1.00
H73    H     0.65510   0.22687   0.42746   0.00000  Uiso   1.00
H74    H     0.45737   0.20694   0.06837   0.00000  Uiso   1.00
H75    H     0.36279   0.23986   0.02671   0.00000  Uiso   1.00
I76    I     0.48564   0.10283   0.10083   0.00000  Uiso   1.00
N77    N     0.47827   0.15223   0.23542   0.00000  Uiso   1.00
N78    N     0.52173   0.18110   0.26457   0.00000  Uiso   1.00
O79    O     0.63102   0.24629   0.25357   0.00000  Uiso   1.00
O80    O     0.39075   0.23704   0.24423   0.00000  Uiso   1.00
O81    O     0.64823   0.17358   0.33380   0.00000  Uiso   1.00
O82    O     0.40796   0.16433   0.32446   0.00000  Uiso   1.00
O83    O     0.60925   0.09629   0.25576   0.00000  Uiso   1.00
O84    O     0.36898   0.08704   0.24642   0.00000  Uiso   1.00
O85    O     0.59204   0.16901   0.17554   0.00000  Uiso   1.00
O86    O     0.35177   0.15976   0.16620   0.00000  Uiso   1.00
Zn87   Zn    0.60453   0.17284   0.25623   0.00000  Uiso   1.00
Zn88   Zn    0.39547   0.16049   0.24376   0.00000  Uiso   1.00
C89    C     0.68139   0.26483   0.24856   0.00000  Uiso   1.00
C90    C     0.73188   0.19293   0.41141   0.00000  Uiso   1.00
C91    C     0.68908   0.31934   0.24773   0.00000  Uiso   1.00
C92    C     0.70527   0.17663   0.35379   0.00000  Uiso   1.00
C93    C     0.97753   0.01399   0.25213   0.00000  Uiso   1.00
C94    C     0.98526   0.06850   0.25140   0.00000  Uiso   1.00
C95    C     0.96230   0.15776   0.14638   0.00000  Uiso   1.00
C96    C     0.95699   0.13147   0.49885   0.00000  Uiso   1.00
C97    C     0.93996   0.14515   0.08866   0.00000  Uiso   1.00
C98    C     0.69859   0.21511   0.44474   0.00000  Uiso   1.00
C99    C     0.72152   0.22214   0.00098   0.00000  Uiso   1.00
C100   C     0.80931   0.18083   0.49103   0.00000  Uiso   1.00
C101   C     0.77520   0.20274   0.02444   0.00000  Uiso   1.00
C102   C     0.79149   0.18504   0.43450   0.00000  Uiso   1.00
C103   C     0.86311   0.15911   0.01189   0.00000  Uiso   1.00
C104   C     0.90181   0.14921   0.47744   0.00000  Uiso   1.00
C105   C     0.88682   0.16099   0.42333   0.00000  Uiso   1.00
C106   C     0.83430   0.18216   0.40341   0.00000  Uiso   1.00
C107   C     0.88016   0.14693   0.06605   0.00000  Uiso   1.00
C108   C     0.97782   0.13341   0.05501   0.00000  Uiso   1.00
H109   H     0.68998   0.12707   0.07192   0.00000  Uiso   1.00
H110   H     0.82957   0.19906   0.36465   0.00000  Uiso   1.00
H111   H     0.73146   0.00292   0.24354   0.00000  Uiso   1.00
H112   H     0.93515   0.33041   0.25631   0.00000  Uiso   1.00
H113   H     0.82397   0.12015   0.21656   0.00000  Uiso   1.00
H114   H     0.84289   0.21361   0.28295   0.00000  Uiso   1.00
H115   H     0.91669   0.15605   0.39704   0.00000  Uiso   1.00
H116   H     0.98604   0.12178   0.47275   0.00000  Uiso   1.00
H117   H     0.98844   0.22687   0.42746   0.00000  Uiso   1.00
H118   H     0.79070   0.20694   0.06837   0.00000  Uiso   1.00
H119   H     0.69612   0.23986   0.02671   0.00000  Uiso   1.00
I120   I     0.81898   0.10283   0.10083   0.00000  Uiso   1.00
N121   N     0.81160   0.15223   0.23542   0.00000  Uiso   1.00
N122   N     0.85507   0.18110   0.26457   0.00000  Uiso   1.00
O123   O     0.96435   0.24629   0.25357   0.00000  Uiso   1.00
O124   O     0.72408   0.23704   0.24423   0.00000  Uiso   1.00
O125   O     0.98157   0.17358   0.33380   0.00000  Uiso   1.00
O126   O     0.74130   0.16433   0.32446   0.00000  Uiso   1.00
O127   O     0.94258   0.09629   0.25576   0.00000  Uiso   1.00
O128   O     0.70231   0.08704   0.24642   0.00000  Uiso   1.00
O129   O     0.92537   0.16901   0.17554   0.00000  Uiso   1.00
O130   O     0.68510   0.15976   0.16620   0.00000  Uiso   1.00
Zn131  Zn    0.93786   0.17284   0.25623   0.00000  Uiso   1.00
Zn132  Zn    0.72881   0.16049   0.24376   0.00000  Uiso   1.00
C133   C     0.01472   0.59817   0.24856   0.00000  Uiso   1.00
C134   C     0.06522   0.52626   0.41141   0.00000  Uiso   1.00
C135   C     0.02242   0.65267   0.24773   0.00000  Uiso   1.00
C136   C     0.03860   0.50997   0.35379   0.00000  Uiso   1.00
C137   C     0.31087   0.34732   0.25213   0.00000  Uiso   1.00
C138   C     0.31859   0.40183   0.25140   0.00000  Uiso   1.00
C139   C     0.29563   0.49109   0.14638   0.00000  Uiso   1.00
C140   C     0.29032   0.46480   0.49885   0.00000  Uiso   1.00
C141   C     0.27330   0.47848   0.08866   0.00000  Uiso   1.00
C142   C     0.03192   0.54844   0.44474   0.00000  Uiso   1.00
C143   C     0.05485   0.55547   0.00098   0.00000  Uiso   1.00
C144   C     0.14264   0.51417   0.49103   0.00000  Uiso   1.00
C145   C     0.10853   0.53607   0.02444   0.00000  Uiso   1.00
C146   C     0.12482   0.51838   0.43450   0.00000  Uiso   1.00
C147   C     0.19645   0.49244   0.01189   0.00000  Uiso   1.00
C148   C     0.23514   0.48254   0.47744   0.00000  Uiso   1.00
C149   C     0.22015   0.49433   0.42333   0.00000  Uiso   1.00
C150   C     0.16763   0.51549   0.40341   0.00000  Uiso   1.00
C151   C     0.21349   0.48026   0.06605   0.00000  Uiso   1.00
C152   C     0.31115   0.46674   0.05501   0.00000  Uiso   1.00
H153   H     0.02332   0.46040   0.07192   0.00000  Uiso   1.00
H154   H     0.16290   0.53239   0.36465   0.00000  Uiso   1.00
H155   H     0.06479   0.33626   0.24354   0.00000  Uiso   1.00
H156   H     0.26849   0.66374   0.25631   0.00000  Uiso   1.00
H157   H     0.15730   0.45348   0.21656   0.00000  Uiso   1.00
H158   H     0.17623   0.54694   0.28295   0.00000  Uiso   1.00
H159   H     0.25002   0.48938   0.39704   0.00000  Uiso   1.00
H160   H     0.31937   0.45512   0.47275   0.00000  Uiso   1.00
H161   H     0.32177   0.56021   0.42746   0.00000  Uiso   1.00
H162   H     0.12404   0.54028   0.06837   0.00000  Uiso   1.00
H163   H     0.02945   0.57319   0.02671   0.00000  Uiso   1.00
I164   I     0.15231   0.43616   0.10083   0.00000  Uiso   1.00
N165   N     0.14493   0.48556   0.23542   0.00000  Uiso   1.00
N166   N     0.18840   0.51444   0.26457   0.00000  Uiso   1.00
O167   O     0.29769   0.57963   0.25357   0.00000  Uiso   1.00
O168   O     0.05742   0.57038   0.24423   0.00000  Uiso   1.00
O169   O     0.31490   0.50691   0.33380   0.00000  Uiso   1.00
O170   O     0.07463   0.49766   0.32446   0.00000  Uiso   1.00
O171   O     0.27592   0.42962   0.25576   0.00000  Uiso   1.00
O172   O     0.03565   0.42037   0.24642   0.00000  Uiso   1.00
O173   O     0.25870   0.50234   0.17554   0.00000  Uiso   1.00
O174   O     0.01843   0.49309   0.16620   0.00000  Uiso   1.00
Zn175  Zn    0.27119   0.50618   0.25623   0.00000  Uiso   1.00
Zn176  Zn    0.06214   0.49382   0.24376   0.00000  Uiso   1.00
C177   C     0.34806   0.59817   0.24856   0.00000  Uiso   1.00
C178   C     0.39855   0.52626   0.41141   0.00000  Uiso   1.00
C179   C     0.35575   0.65267   0.24773   0.00000  Uiso   1.00
C180   C     0.37193   0.50997   0.35379   0.00000  Uiso   1.00
C181   C     0.64420   0.34732   0.25213   0.00000  Uiso   1.00
C182   C     0.65193   0.40183   0.25140   0.00000  Uiso   1.00
C183   C     0.62897   0.49109   0.14638   0.00000  Uiso   1.00
C184   C     0.62365   0.46480   0.49885   0.00000  Uiso   1.00
C185   C     0.60663   0.47848   0.08866   0.00000  Uiso   1.00
C186   C     0.36525   0.54844   0.44474   0.00000  Uiso   1.00
C187   C     0.38818   0.55547   0.00098   0.00000  Uiso   1.00
C188   C     0.47598   0.51417   0.49103   0.00000  Uiso   1.00
C189   C     0.44186   0.53607   0.02444   0.00000  Uiso   1.00
C190   C     0.45816   0.51838   0.43450   0.00000  Uiso   1.00
C191   C     0.52978   0.49244   0.01189   0.00000  Uiso   1.00
C192   C     0.56848   0.48254   0.47744   0.00000  Uiso   1.00
C193   C     0.55349   0.49433   0.42333   0.00000  Uiso   1.00
C194   C     0.50096   0.51549   0.40341   0.00000  Uiso   1.00
C195   C     0.54683   0.48026   0.06605   0.00000  Uiso   1.00
C196   C     0.64448   0.46674   0.05501   0.00000  Uiso   1.00
H197   H     0.35665   0.46040   0.07192   0.00000  Uiso   1.00
H198   H     0.49623   0.53239   0.36465   0.00000  Uiso   1.00
H199   H     0.39812   0.33626   0.24354   0.00000  Uiso   1.00
H200   H     0.60182   0.66374   0.25631   0.00000  Uiso   1.00
H201   H     0.49064   0.45348   0.21656   0.00000  Uiso   1.00
H202   H     0.50956   0.54694   0.28295   0.00000  Uiso   1.00
H203   H     0.58335   0.48938   0.39704   0.00000  Uiso   1.00
H204   H     0.65271   0.45512   0.47275   0.00000  Uiso   1.00
H205   H     0.65510   0.56021   0.42746   0.00000  Uiso   1.00
H206   H     0.45737   0.54028   0.06837   0.00000  Uiso   1.00
H207   H     0.36279   0.57319   0.02671   0.00000  Uiso   1.00
I208   I     0.48564   0.43616   0.10083   0.00000  Uiso   1.00
N209   N     0.47827   0.48556   0.23542   0.00000  Uiso   1.00
N210   N     0.52173   0.51444   0.26457   0.00000  Uiso   1.00
O211   O     0.63102   0.57963   0.25357   0.00000  Uiso   1.00
O212   O     0.39075   0.57038   0.24423   0.00000  Uiso   1.00
O213   O     0.64823   0.50691   0.33380   0.00000  Uiso   1.00
O214   O     0.40796   0.49766   0.32446   0.00000  Uiso   1.00
O215   O     0.60925   0.42962   0.25576   0.00000  Uiso   1.00
O216   O     0.36898   0.42037   0.24642   0.00000  Uiso   1.00
O217   O     0.59204   0.50234   0.17554   0.00000  Uiso   1.00
O218   O     0.35177   0.49309   0.16620   0.00000  Uiso   1.00
Zn219  Zn    0.60453   0.50618   0.25623   0.00000  Uiso   1.00
Zn220  Zn    0.39547   0.49382   0.24376   0.00000  Uiso   1.00
C221   C     0.68139   0.59817   0.24856   0.00000  Uiso   1.00
C222   C     0.73188   0.52626   0.41141   0.00000  Uiso   1.00
C223   C     0.68908   0.65267   0.24773   0.00000  Uiso   1.00
C224   C     0.70527   0.50997   0.35379   0.00000  Uiso   1.00
C225   C     0.97753   0.34732   0.25213   0.00000  Uiso   1.00
C226   C     0.98526   0.40183   0.25140   0.00000  Uiso   1.00
C227   C     0.96230   0.49109   0.14638   0.00000  Uiso   1.00
C228   C     0.95699   0.46480   0.49885   0.00000  Uiso   1.00
C229   C     0.93996   0.47848   0.08866   0.00000  Uiso   1.00
C230   C     0.69859   0.54844   0.44474   0.00000  Uiso   1.00
C231   C     0.72152   0.55547   0.00098   0.00000  Uiso   1.00
C232   C     0.80931   0.51417   0.49103   0.00000  Uiso   1.00
C233   C     0.77520   0.53607   0.02444   0.00000  Uiso   1.00
C234   C     0.79149   0.51838   0.43450   0.00000  Uiso   1.00
C235   C     0.86311   0.49244   0.01189   0.00000  Uiso   1.00
C236   C     0.90181   0.48254   0.47744   0.00000  Uiso   1.00
C237   C     0.88682   0.49433   0.42333   0.00000  Uiso   1.00
C238   C     0.83430   0.51549   0.40341   0.00000  Uiso   1.00
C239   C     0.88016   0.48026   0.06605   0.00000  Uiso   1.00
C240   C     0.97782   0.46674   0.05501   0.00000  Uiso   1.00
H241   H     0.68998   0.46040   0.07192   0.00000  Uiso   1.00
H242   H     0.82957   0.53239   0.36465   0.00000  Uiso   1.00
H243   H     0.73146   0.33626   0.24354   0.00000  Uiso   1.00
H244   H     0.93515   0.66374   0.25631   0.00000  Uiso   1.00
H245   H     0.82397   0.45348   0.21656   0.00000  Uiso   1.00
H246   H     0.84289   0.54694   0.28295   0.00000  Uiso   1.00
H247   H     0.91669   0.48938   0.39704   0.00000  Uiso   1.00
H248   H     0.98604   0.45512   0.47275   0.00000  Uiso   1.00
H249   H     0.98844   0.56021   0.42746   0.00000  Uiso   1.00
H250   H     0.79070   0.54028   0.06837   0.00000  Uiso   1.00
H251   H     0.69612   0.57319   0.02671   0.00000  Uiso   1.00
I252   I     0.81898   0.43616   0.10083   0.00000  Uiso   1.00
N253   N     0.81160   0.48556   0.23542   0.00000  Uiso   1.00
N254   N     0.85507   0.51444   0.26457   0.00000  Uiso   1.00
O255   O     0.96435   0.57963   0.25357   0.00000  Uiso   1.00
O256   O     0.72408   0.57038   0.24423   0.00000  Uiso   1.00
O257   O     0.98157   0.50691   0.33380   0.00000  Uiso   1.00
O258   O     0.74130   0.49766   0.32446   0.00000  Uiso   1.00
O259   O     0.94258   0.42962   0.25576   0.00000  Uiso   1.00
O260   O     0.70231   0.42037   0.24642   0.00000  Uiso   1.00
O261   O     0.92537   0.50234   0.17554   0.00000  Uiso   1.00
O262   O     0.68510   0.49309   0.16620   0.00000  Uiso   1.00
Zn263  Zn    0.93786   0.50618   0.25623   0.00000  Uiso   1.00
Zn264  Zn    0.72881   0.49382   0.24376   0.00000  Uiso   1.00
C265   C     0.01472   0.93150   0.24856   0.00000  Uiso   1.00
C266   C     0.06522   0.85960   0.41141   0.00000  Uiso   1.00
C267   C     0.02242   0.98600   0.24773   0.00000  Uiso   1.00
C268   C     0.03860   0.84330   0.35379   0.00000  Uiso   1.00
C269   C     0.31087   0.68066   0.25213   0.00000  Uiso   1.00
C270   C     0.31859   0.73517   0.25140   0.00000  Uiso   1.00
C271   C     0.29563   0.82443   0.14638   0.00000  Uiso   1.00
C272   C     0.29032   0.79813   0.49885   0.00000  Uiso   1.00
C273   C     0.27330   0.81182   0.08866   0.00000  Uiso   1.00
C274   C     0.03192   0.88178   0.44474   0.00000  Uiso   1.00
C275   C     0.05485   0.88881   0.00098   0.00000  Uiso   1.00
C276   C     0.14264   0.84750   0.49103   0.00000  Uiso   1.00
C277   C     0.10853   0.86940   0.02444   0.00000  Uiso   1.00
C278   C     0.12482   0.85171   0.43450   0.00000  Uiso   1.00
C279   C     0.19645   0.82577   0.01189   0.00000  Uiso   1.00
C280   C     0.23514   0.81587   0.47744   0.00000  Uiso   1.00
C281   C     0.22015   0.82766   0.42333   0.00000  Uiso   1.00
C282   C     0.16763   0.84883   0.40341   0.00000  Uiso   1.00
C283   C     0.21349   0.81360   0.06605   0.00000  Uiso   1.00
C284   C     0.31115   0.80008   0.05501   0.00000  Uiso   1.00
H285   H     0.02332   0.79374   0.07192   0.00000  Uiso   1.00
H286   H     0.16290   0.86572   0.36465   0.00000  Uiso   1.00
H287   H     0.06479   0.66959   0.24354   0.00000  Uiso   1.00
H288   H     0.26849   0.99707   0.25631   0.00000  Uiso   1.00
H289   H     0.15730   0.78682   0.21656   0.00000  Uiso   1.00
H290   H     0.17623   0.88028   0.28295   0.00000  Uiso   1.00
H291   H     0.25002   0.82271   0.39704   0.00000  Uiso   1.00
H292   H     0.31937   0.78845   0.47275   0.00000  Uiso   1.00
H293   H     0.32177   0.89354   0.42746   0.00000  Uiso   1.00
H294   H     0.12404   0.87361   0.06837   0.00000  Uiso   1.00
H295   H     0.02945   0.90652   0.02671   0.00000  Uiso   1.00
I296   I     0.15231   0.76950   0.10083   0.00000  Uiso   1.00
N297   N     0.14493   0.81890   0.23542   0.00000  Uiso   1.00
N298   N     0.18840   0.84777   0.26457   0.00000  Uiso   1.00
O299   O     0.29769   0.91296   0.25357   0.00000  Uiso   1.00
O300   O     0.05742   0.90371   0.24423   0.00000  Uiso   1.00
O301   O     0.31490   0.84024   0.33380   0.00000  Uiso   1.00
O302   O     0.07463   0.83099   0.32446   0.00000  Uiso   1.00
O303   O     0.27592   0.76296   0.25576   0.00000  Uiso   1.00
O304   O     0.03565   0.75371   0.24642   0.00000  Uiso   1.00
O305   O     0.25870   0.83567   0.17554   0.00000  Uiso   1.00
O306   O     0.01843   0.82642   0.16620   0.00000  Uiso   1.00
Zn307  Zn    0.27119   0.83951   0.25623   0.00000  Uiso   1.00
Zn308  Zn    0.06214   0.82716   0.24376   0.00000  Uiso   1.00
C309   C     0.34806   0.93150   0.24856   0.00000  Uiso   1.00
C310   C     0.39855   0.85960   0.41141   0.00000  Uiso   1.00
C311   C     0.35575   0.98600   0.24773   0.00000  Uiso   1.00
C312   C     0.37193   0.84330   0.35379   0.00000  Uiso   1.00
C313   C     0.64420   0.68066   0.25213   0.00000  Uiso   1.00
C314   C     0.65193   0.73517   0.25140   0.00000  Uiso   1.00
C315   C     0.62897   0.82443   0.14638   0.00000  Uiso   1.00
C316   C     0.62365   0.79813   0.49885   0.00000  Uiso   1.00
C317   C     0.60663   0.81182   0.08866   0.00000  Uiso   1.00
C318   C     0.36525   0.88178   0.44474   0.00000  Uiso   1.00
C319   C     0.38818   0.88881   0.00098   0.00000  Uiso   1.00
C320   C     0.47598   0.84750   0.49103   0.00000  Uiso   1.00
C321   C     0.44186   0.86940   0.02444   0.00000  Uiso   1.00
C322   C     0.45816   0.85171   0.43450   0.00000  Uiso   1.00
C323   C     0.52978   0.82577   0.01189   0.00000  Uiso   1.00
C324   C     0.56848   0.81587   0.47744   0.00000  Uiso   1.00
C325   C     0.55349   0.82766   0.42333   0.00000  Uiso   1.00
C326   C     0.50096   0.84883   0.40341   0.00000  Uiso   1.00
C327   C     0.54683   0.81360   0.06605   0.00000  Uiso   1.00
C328   C     0.64448   0.80008   0.05501   0.00000  Uiso   1.00
H329   H     0.35665   0.79374   0.07192   0.00000  Uiso   1.00
H330   H     0.49623   0.86572   0.36465   0.00000  Uiso   1.00
H331   H     0.39812   0.66959   0.24354   0.00000  Uiso   1.00
H332   H     0.60182   0.99707   0.25631   0.00000  Uiso   1.00
H333   H     0.49064   0.78682   0.21656   0.00000  Uiso   1.00
H334   H     0.50956   0.88028   0.28295   0.00000  Uiso   1.00
H335   H     0.58335   0.82271   0.39704   0.00000  Uiso   1.00
H336   H     0.65271   0.78845   0.47275   0.00000  Uiso   1.00
H337   H     0.65510   0.89354   0.42746   0.00000  Uiso   1.00
H338   H     0.45737   0.87361   0.06837   0.00000  Uiso   1.00
H339   H     0.36279   0.90652   0.02671   0.00000  Uiso   1.00
I340   I     0.48564   0.76950   0.10083   0.00000  Uiso   1.00
N341   N     0.47827   0.81890   0.23542   0.00000  Uiso   1.00
N342   N     0.52173   0.84777   0.26457   0.00000  Uiso   1.00
O343   O     0.63102   0.91296   0.25357   0.00000  Uiso   1.00
O344   O     0.39075   0.90371   0.24423   0.00000  Uiso   1.00
O345   O     0.64823   0.84024   0.33380   0.00000  Uiso   1.00
O346   O     0.40796   0.83099   0.32446   0.00000  Uiso   1.00
O347   O     0.60925   0.76296   0.25576   0.00000  Uiso   1.00
O348   O     0.36898   0.75371   0.24642   0.00000  Uiso   1.00
O349   O     0.59204   0.83567   0.17554   0.00000  Uiso   1.00
O350   O     0.35177   0.82642   0.16620   0.00000  Uiso   1.00
Zn351  Zn    0.60453   0.83951   0.25623   0.00000  Uiso   1.00
Zn352  Zn    0.39547   0.82716   0.24376   0.00000  Uiso   1.00
C353   C     0.68139   0.93150   0.24856   0.00000  Uiso   1.00
C354   C     0.73188   0.85960   0.41141   0.00000  Uiso   1.00
C355   C     0.68908   0.98600   0.24773   0.00000  Uiso   1.00
C356   C     0.70527   0.84330   0.35379   0.00000  Uiso   1.00
C357   C     0.97753   0.68066   0.25213   0.00000  Uiso   1.00
C358   C     0.98526   0.73517   0.25140   0.00000  Uiso   1.00
C359   C     0.96230   0.82443   0.14638   0.00000  Uiso   1.00
C360   C     0.95699   0.79813   0.49885   0.00000  Uiso   1.00
C361   C     0.93996   0.81182   0.08866   0.00000  Uiso   1.00
C362   C     0.69859   0.88178   0.44474   0.00000  Uiso   1.00
C363   C     0.72152   0.88881   0.00098   0.00000  Uiso   1.00
C364   C     0.80931   0.84750   0.49103   0.00000  Uiso   1.00
C365   C     0.77520   0.86940   0.02444   0.00000  Uiso   1.00
C366   C     0.79149   0.85171   0.43450   0.00000  Uiso   1.00
C367   C     0.86311   0.82577   0.01189   0.00000  Uiso   1.00
C368   C     0.90181   0.81587   0.47744   0.00000  Uiso   1.00
C369   C     0.88682   0.82766   0.42333   0.00000  Uiso   1.00
C370   C     0.83430   0.84883   0.40341   0.00000  Uiso   1.00
C371   C     0.88016   0.81360   0.06605   0.00000  Uiso   1.00
C372   C     0.97782   0.80008   0.05501   0.00000  Uiso   1.00
H373   H     0.68998   0.79374   0.07192   0.00000  Uiso   1.00
H374   H     0.82957   0.86572   0.36465   0.00000  Uiso   1.00
H375   H     0.73146   0.66959   0.24354   0.00000  Uiso   1.00
H376   H     0.93515   0.99707   0.25631   0.00000  Uiso   1.00
H377   H     0.82397   0.78682   0.21656   0.00000  Uiso   1.00
H378   H     0.84289   0.88028   0.28295   0.00000  Uiso   1.00
H379   H     0.91669   0.82271   0.39704   0.00000  Uiso   1.00
H380   H     0.98604   0.78845   0.47275   0.00000  Uiso   1.00
H381   H     0.98844   0.89354   0.42746   0.00000  Uiso   1.00
H382   H     0.79070   0.87361   0.06837   0.00000  Uiso   1.00
H383   H     0.69612   0.90652   0.02671   0.00000  Uiso   1.00
I384   I     0.81898   0.76950   0.10083   0.00000  Uiso   1.00
N385   N     0.81160   0.81890   0.23542   0.00000  Uiso   1.00
N386   N     0.85507   0.84777   0.26457   0.00000  Uiso   1.00
O387   O     0.96435   0.91296   0.25357   0.00000  Uiso   1.00
O388   O     0.72408   0.90371   0.24423   0.00000  Uiso   1.00
O389   O     0.98157   0.84024   0.33380   0.00000  Uiso   1.00
O390   O     0.74130   0.83099   0.32446   0.00000  Uiso   1.00
O391   O     0.94258   0.76296   0.25576   0.00000  Uiso   1.00
O392   O     0.70231   0.75371   0.24642   0.00000  Uiso   1.00
O393   O     0.92537   0.83567   0.17554   0.00000  Uiso   1.00
O394   O     0.68510   0.82642   0.16620   0.00000  Uiso   1.00
Zn395  Zn    0.93786   0.83951   0.25623   0.00000  Uiso   1.00
Zn396  Zn    0.72881   0.82716   0.24376   0.00000  Uiso   1.00
C397   C     0.01472   0.26483   0.74856   0.00000  Uiso   1.00
C398   C     0.06522   0.19293   0.91141   0.00000  Uiso   1.00
C399   C     0.02242   0.31934   0.74773   0.00000  Uiso   1.00
C400   C     0.03860   0.17663   0.85379   0.00000  Uiso   1.00
C401   C     0.31087   0.01399   0.75213   0.00000  Uiso   1.00
C402   C     0.31859   0.06850   0.75140   0.00000  Uiso   1.00
C403   C     0.29563   0.15776   0.64638   0.00000  Uiso   1.00
C404   C     0.29032   0.13147   0.99885   0.00000  Uiso   1.00
C405   C     0.27330   0.14515   0.58866   0.00000  Uiso   1.00
C406   C     0.03192   0.21511   0.94474   0.00000  Uiso   1.00
C407   C     0.05485   0.22214   0.50098   0.00000  Uiso   1.00
C408   C     0.14264   0.18083   0.99103   0.00000  Uiso   1.00
C409   C     0.10853   0.20274   0.52444   0.00000  Uiso   1.00
C410   C     0.12482   0.18504   0.93450   0.00000  Uiso   1.00
C411   C     0.19645   0.15911   0.51189   0.00000  Uiso   1.00
C412   C     0.23514   0.14921   0.97744   0.00000  Uiso   1.00
C413   C     0.22015   0.16099   0.92333   0.00000  Uiso   1.00
C414   C     0.16763   0.18216   0.90341   0.00000  Uiso   1.00
C415   C     0.21349   0.14693   0.56605   0.00000  Uiso   1.00
C416   C     0.31115   0.13341   0.55501   0.00000  Uiso   1.00
H417   H     0.02332   0.12707   0.57192   0.00000  Uiso   1.00
H418   H     0.16290   0.19906   0.86465   0.00000  Uiso   1.00
H419   H     0.06479   0.00292   0.74354   0.00000  Uiso   1.00
H420   H     0.26849   0.33041   0.75631   0.00000  Uiso   1.00
H421   H     0.15730   0.12015   0.71656   0.00000  Uiso   1.00
H422   H     0.17623   0.21361   0.78295   0.00000  Uiso   1.00
H423   H     0.25002   0.15605   0.89704   0.00000  Uiso   1.00
H424   H     0.31937   0.12178   0.97275   0.00000  Uiso   1.00
H425   H     0.32177   0.22687   0.92746   0.00000  Uiso   1.00
H426   H     0.12404   0.20694   0.56837   0.00000  Uiso   1.00
H427   H     0.02945   0.23986   0.52671   0.00000  Uiso   1.00
I428   I     0.15231   0.10283   0.60083   0.00000  Uiso   1.00
N429   N     0.14493   0.15223   0.73542   0.00000  Uiso   1.00
N430   N     0.18840   0.18110   0.76457   0.00000  Uiso   1.00
O431   O     0.29769   0.24629   0.75357   0.00000  Uiso   1.00
O432   O     0.05742   0.23704   0.74423   0.00000  Uiso   1.00
O433   O     0.31490   0.17358   0.83380   0.00000  Uiso   1.00
O434   O     0.07463   0.16433   0.82446   0.00000  Uiso   1.00
O435   O     0.27592   0.09629   0.75576   0.00000  Uiso   1.00
O436   O     0.03565   0.08704   0.74642   0.00000  Uiso   1.00
O437   O     0.25870   0.16901   0.67554   0.00000  Uiso   1.00
O438   O     0.01843   0.15976   0.66620   0.00000  Uiso   1.00
Zn439  Zn    0.27119   0.17284   0.75623   0.00000  Uiso   1.00
Zn440  Zn    0.06214   0.16049   0.74376   0.00000  Uiso   1.00
C441   C     0.34806   0.26483   0.74856   0.00000  Uiso   1.00
C442   C     0.39855   0.19293   0.91141   0.00000  Uiso   1.00
C443   C     0.35575   0.31934   0.74773   0.00000  Uiso   1.00
C444   C     0.37193   0.17663   0.85379   0.00000  Uiso   1.00
C445   C     0.64420   0.01399   0.75213   0.00000  Uiso   1.00
C446   C     0.65193   0.06850   0.75140   0.00000  Uiso   1.00
C447   C     0.62897   0.15776   0.64638   0.00000  Uiso   1.00
C448   C     0.62365   0.13147   0.99885   0.00000  Uiso   1.00
C449   C     0.60663   0.14515   0.58866   0.00000  Uiso   1.00
C450   C     0.36525   0.21511   0.94474   0.00000  Uiso   1.00
C451   C     0.38818   0.22214   0.50098   0.00000  Uiso   1.00
C452   C     0.47598   0.18083   0.99103   0.00000  Uiso   1.00
C453   C     0.44186   0.20274   0.52444   0.00000  Uiso   1.00
C454   C     0.45816   0.18504   0.93450   0.00000  Uiso   1.00
C455   C     0.52978   0.15911   0.51189   0.00000  Uiso   1.00
C456   C     0.56848   0.14921   0.97744   0.00000  Uiso   1.00
C457   C     0.55349   0.16099   0.92333   0.00000  Uiso   1.00
C458   C     0.50096   0.18216   0.90341   0.00000  Uiso   1.00
C459   C     0.54683   0.14693   0.56605   0.00000  Uiso   1.00
C460   C     0.64448   0.13341   0.55501   0.00000  Uiso   1.00
H461   H     0.35665   0.12707   0.57192   0.00000  Uiso   1.00
H462   H     0.49623   0.19906   0.86465   0.00000  Uiso   1.00
H463   H     0.39812   0.00292   0.74354   0.00000  Uiso   1.00
H464   H     0.60182   0.33041   0.75631   0.00000  Uiso   1.00
H465   H     0.49064   0.12015   0.71656   0.00000  Uiso   1.00
H466   H     0.50956   0.21361   0.78295   0.00000  Uiso   1.00
H467   H     0.58335   0.15605   0.89704   0.00000  Uiso   1.00
H468   H     0.65271   0.12178   0.97275   0.00000  Uiso   1.00
H469   H     0.65510   0.22687   0.92746   0.00000  Uiso   1.00
H470   H     0.45737   0.20694   0.56837   0.00000  Uiso   1.00
H471   H     0.36279   0.23986   0.52671   0.00000  Uiso   1.00
I472   I     0.48564   0.10283   0.60083   0.00000  Uiso   1.00
N473   N     0.47827   0.15223   0.73542   0.00000  Uiso   1.00
N474   N     0.52173   0.18110   0.76457   0.00000  Uiso   1.00
O475   O     0.63102   0.24629   0.75357   0.00000  Uiso   1.00
O476   O     0.39075   0.23704   0.74423   0.00000  Uiso   1.00
O477   O     0.64823   0.17358   0.83380   0.00000  Uiso   1.00
O478   O     0.40796   0.16433   0.82446   0.00000  Uiso   1.00
O479   O     0.60925   0.09629   0.75576   0.00000  Uiso   1.00
O480   O     0.36898   0.08704   0.74642   0.00000  Uiso   1.00
O481   O     0.59204   0.16901   0.67554   0.00000  Uiso   1.00
O482   O     0.35177   0.15976   0.66620   0.00000  Uiso   1.00
Zn483  Zn    0.60453   0.17284   0.75623   0.00000  Uiso   1.00
Zn484  Zn    0.39547   0.16049   0.74376   0.00000  Uiso   1.00
C485   C     0.68139   0.26483   0.74856   0.00000  Uiso   1.00
C486   C     0.73188   0.19293   0.91141   0.00000  Uiso   1.00
C487   C     0.68908   0.31934   0.74773   0.00000  Uiso   1.00
C488   C     0.70527   0.17663   0.85379   0.00000  Uiso   1.00
C489   C     0.97753   0.01399   0.75213   0.00000  Uiso   1.00
C490   C     0.98526   0.06850   0.75140   0.00000  Uiso   1.00
C491   C     0.96230   0.15776   0.64638   0.00000  Uiso   1.00
C492   C     0.95699   0.13147   0.99885   0.00000  Uiso   1.00
C493   C     0.93996   0.14515   0.58866   0.00000  Uiso   1.00
C494   C     0.69859   0.21511   0.94474   0.00000  Uiso   1.00
C495   C     0.72152   0.22214   0.50098   0.00000  Uiso   1.00
C496   C     0.80931   0.18083   0.99103   0.00000  Uiso   1.00
C497   C     0.77520   0.20274   0.52444   0.00000  Uiso   1.00
C498   C     0.79149   0.18504   0.93450   0.00000  Uiso   1.00
C499   C     0.86311   0.15911   0.51189   0.00000  Uiso   1.00
C500   C     0.90181   0.14921   0.97744   0.00000  Uiso   1.00
C501   C     0.88682   0.16099   0.92333   0.00000  Uiso   1.00
C502   C     0.83430   0.18216   0.90341   0.00000  Uiso   1.00
C503   C     0.88016   0.14693   0.56605   0.00000  Uiso   1.00
C504   C     0.97782   0.13341   0.55501   0.00000  Uiso   1.00
H505   H     0.68998   0.12707   0.57192   0.00000  Uiso   1.00
H506   H     0.82957   0.19906   0.86465   0.00000  Uiso   1.00
H507   H     0.73146   0.00292   0.74354   0.00000  Uiso   1.00
H508   H     0.93515   0.33041   0.75631   0.00000  Uiso   1.00
H509   H     0.82397   0.12015   0.71656   0.00000  Uiso   1.00
H510   H     0.84289   0.21361   0.78295   0.00000  Uiso   1.00
H511   H     0.91669   0.15605   0.89704   0.00000  Uiso   1.00
H512   H     0.98604   0.12178   0.97275   0.00000  Uiso   1.00
H513   H     0.98844   0.22687   0.92746   0.00000  Uiso   1.00
H514   H     0.79070   0.20694   0.56837   0.00000  Uiso   1.00
H515   H     0.69612   0.23986   0.52671   0.00000  Uiso   1.00
I516   I     0.81898   0.10283   0.60083   0.00000  Uiso   1.00
N517   N     0.81160   0.15223   0.73542   0.00000  Uiso   1.00
N518   N     0.85507   0.18110   0.76457   0.00000  Uiso   1.00
O519   O     0.96435   0.24629   0.75357   0.00000  Uiso   1.00
O520   O     0.72408   0.23704   0.74423   0.00000  Uiso   1.00
O521   O     0.98157   0.17358   0.83380   0.00000  Uiso   1.00
O522   O     0.74130   0.16433   0.82446   0.00000  Uiso   1.00
O523   O     0.94258   0.09629   0.75576   0.00000  Uiso   1.00
O524   O     0.70231   0.08704   0.74642   0.00000  Uiso   1.00
O525   O     0.92537   0.16901   0.67554   0.00000  Uiso   1.00
O526   O     0.68510   0.15976   0.66620   0.00000  Uiso   1.00
Zn527  Zn    0.93786   0.17284   0.75623   0.00000  Uiso   1.00
Zn528  Zn    0.72881   0.16049   0.74376   0.00000  Uiso   1.00
C529   C     0.01472   0.59817   0.74856   0.00000  Uiso   1.00
C530   C     0.06522   0.52626   0.91141   0.00000  Uiso   1.00
C531   C     0.02242   0.65267   0.74773   0.00000  Uiso   1.00
C532   C     0.03860   0.50997   0.85379   0.00000  Uiso   1.00
C533   C     0.31087   0.34732   0.75213   0.00000  Uiso   1.00
C534   C     0.31859   0.40183   0.75140   0.00000  Uiso   1.00
C535   C     0.29563   0.49109   0.64638   0.00000  Uiso   1.00
C536   C     0.29032   0.46480   0.99885   0.00000  Uiso   1.00
C537   C     0.27330   0.47848   0.58866   0.00000  Uiso   1.00
C538   C     0.03192   0.54844   0.94474   0.00000  Uiso   1.00
C539   C     0.05485   0.55547   0.50098   0.00000  Uiso   1.00
C540   C     0.14264   0.51417   0.99103   0.00000  Uiso   1.00
C541   C     0.10853   0.53607   0.52444   0.00000  Uiso   1.00
C542   C     0.12482   0.51838   0.93450   0.00000  Uiso   1.00
C543   C     0.19645   0.49244   0.51189   0.00000  Uiso   1.00
C544   C     0.23514   0.48254   0.97744   0.00000  Uiso   1.00
C545   C     0.22015   0.49433   0.92333   0.00000  Uiso   1.00
C546   C     0.16763   0.51549   0.90341   0.00000  Uiso   1.00
C547   C     0.21349   0.48026   0.56605   0.00000  Uiso   1.00
C548   C     0.31115   0.46674   0.55501   0.00000  Uiso   1.00
H549   H     0.02332   0.46040   0.57192   0.00000  Uiso   1.00
H550   H     0.16290   0.53239   0.86465   0.00000  Uiso   1.00
H551   H     0.06479   0.33626   0.74354   0.00000  Uiso   1.00
H552   H     0.26849   0.66374   0.75631   0.00000  Uiso   1.00
H553   H     0.15730   0.45348   0.71656   0.00000  Uiso   1.00
H554   H     0.17623   0.54694   0.78295   0.00000  Uiso   1.00
H555   H     0.25002   0.48938   0.89704   0.00000  Uiso   1.00
H556   H     0.31937   0.45512   0.97275   0.00000  Uiso   1.00
H557   H     0.32177   0.56021   0.92746   0.00000  Uiso   1.00
H558   H     0.12404   0.54028   0.56837   0.00000  Uiso   1.00
H559   H     0.02945   0.57319   0.52671   0.00000  Uiso   1.00
I560   I     0.15231   0.43616   0.60083   0.00000  Uiso   1.00
N561   N     0.14493   0.48556   0.73542   0.00000  Uiso   1.00
N562   N     0.18840   0.51444   0.76457   0.00000  Uiso   1.00
O563   O     0.29769   0.57963   0.75357   0.00000  Uiso   1.00
O564   O     0.05742   0.57038   0.74423   0.00000  Uiso   1.00
O565   O     0.31490   0.50691   0.83380   0.00000  Uiso   1.00
O566   O     0.07463   0.49766   0.82446   0.00000  Uiso   1.00
O567   O     0.27592   0.42962   0.75576   0.00000  Uiso   1.00
O568   O     0.03565   0.42037   0.74642   0.00000  Uiso   1.00
O569   O     0.25870   0.50234   0.67554   0.00000  Uiso   1.00
O570   O     0.01843   0.49309   0.66620   0.00000  Uiso   1.00
Zn571  Zn    0.27119   0.50618   0.75623   0.00000  Uiso   1.00
Zn572  Zn    0.06214   0.49382   0.74376   0.00000  Uiso   1.00
C573   C     0.34806   0.59817   0.74856   0.00000  Uiso   1.00
C574   C     0.39855   0.52626   0.91141   0.00000  Uiso   1.00
C575   C     0.35575   0.65267   0.74773   0.00000  Uiso   1.00
C576   C     0.37193   0.50997   0.85379   0.00000  Uiso   1.00
C577   C     0.64420   0.34732   0.75213   0.00000  Uiso   1.00
C578   C     0.65193   0.40183   0.75140   0.00000  Uiso   1.00
C579   C     0.62897   0.49109   0.64638   0.00000  Uiso   1.00
C580   C     0.62365   0.46480   0.99885   0.00000  Uiso   1.00
C581   C     0.60663   0.47848   0.58866   0.00000  Uiso   1.00
C582   C     0.36525   0.54844   0.94474   0.00000  Uiso   1.00
C583   C     0.38818   0.55547   0.50098   0.00000  Uiso   1.00
C584   C     0.47598   0.51417   0.99103   0.00000  Uiso   1.00
C585   C     0.44186   0.53607   0.52444   0.00000  Uiso   1.00
C586   C     0.45816   0.51838   0.93450   0.00000  Uiso   1.00
C587   C     0.52978   0.49244   0.51189   0.00000  Uiso   1.00
C588   C     0.56848   0.48254   0.97744   0.00000  Uiso   1.00
C589   C     0.55349   0.49433   0.92333   0.00000  Uiso   1.00
C590   C     0.50096   0.51549   0.90341   0.00000  Uiso   1.00
C591   C     0.54683   0.48026   0.56605   0.00000  Uiso   1.00
C592   C     0.64448   0.46674   0.55501   0.00000  Uiso   1.00
H593   H     0.35665   0.46040   0.57192   0.00000  Uiso   1.00
H594   H     0.49623   0.53239   0.86465   0.00000  Uiso   1.00
H595   H     0.39812   0.33626   0.74354   0.00000  Uiso   1.00
H596   H     0.60182   0.66374   0.75631   0.00000  Uiso   1.00
H597   H     0.49064   0.45348   0.71656   0.00000  Uiso   1.00
H598   H     0.50956   0.54694   0.78295   0.00000  Uiso   1.00
H599   H     0.58335   0.48938   0.89704   0.00000  Uiso   1.00
H600   H     0.65271   0.45512   0.97275   0.00000  Uiso   1.00
H601   H     0.65510   0.56021   0.92746   0.00000  Uiso   1.00
H602   H     0.45737   0.54028   0.56837   0.00000  Uiso   1.00
H603   H     0.36279   0.57319   0.52671   0.00000  Uiso   1.00
I604   I     0.48564   0.43616   0.60083   0.00000  Uiso   1.00
N605   N     0.47827   0.48556   0.73542   0.00000  Uiso   1.00
N606   N     0.52173   0.51444   0.76457   0.00000  Uiso   1.00
O607   O     0.63102   0.57963   0.75357   0.00000  Uiso   1.00
O608   O     0.39075   0.57038   0.74423   0.00000  Uiso   1.00
O609   O     0.64823   0.50691   0.83380   0.00000  Uiso   1.00
O610   O     0.40796   0.49766   0.82446   0.00000  Uiso   1.00
O611   O     0.60925   0.42962   0.75576   0.00000  Uiso   1.00
O612   O     0.36898   0.42037   0.74642   0.00000  Uiso   1.00
O613   O     0.59204   0.50234   0.67554   0.00000  Uiso   1.00
O614   O     0.35177   0.49309   0.66620   0.00000  Uiso   1.00
Zn615  Zn    0.60453   0.50618   0.75623   0.00000  Uiso   1.00
Zn616  Zn    0.39547   0.49382   0.74376   0.00000  Uiso   1.00
C617   C     0.68139   0.59817   0.74856   0.00000  Uiso   1.00
C618   C     0.73188   0.52626   0.91141   0.00000  Uiso   1.00
C619   C     0.68908   0.65267   0.74773   0.00000  Uiso   1.00
C620   C     0.70527   0.50997   0.85379   0.00000  Uiso   1.00
C621   C     0.97753   0.34732   0.75213   0.00000  Uiso   1.00
C622   C     0.98526   0.40183   0.75140   0.00000  Uiso   1.00
C623   C     0.96230   0.49109   0.64638   0.00000  Uiso   1.00
C624   C     0.95699   0.46480   0.99885   0.00000  Uiso   1.00
C625   C     0.93996   0.47848   0.58866   0.00000  Uiso   1.00
C626   C     0.69859   0.54844   0.94474   0.00000  Uiso   1.00
C627   C     0.72152   0.55547   0.50098   0.00000  Uiso   1.00
C628   C     0.80931   0.51417   0.99103   0.00000  Uiso   1.00
C629   C     0.77520   0.53607   0.52444   0.00000  Uiso   1.00
C630   C     0.79149   0.51838   0.93450   0.00000  Uiso   1.00
C631   C     0.86311   0.49244   0.51189   0.00000  Uiso   1.00
C632   C     0.90181   0.48254   0.97744   0.00000  Uiso   1.00
C633   C     0.88682   0.49433   0.92333   0.00000  Uiso   1.00
C634   C     0.83430   0.51549   0.90341   0.00000  Uiso   1.00
C635   C     0.88016   0.48026   0.56605   0.00000  Uiso   1.00
C636   C     0.97782   0.46674   0.55501   0.00000  Uiso   1.00
H637   H     0.68998   0.46040   0.57192   0.00000  Uiso   1.00
H638   H     0.82957   0.53239   0.86465   0.00000  Uiso   1.00
H639   H     0.73146   0.33626   0.74354   0.00000  Uiso   1.00
H640   H     0.93515   0.66374   0.75631   0.00000  Uiso   1.00
H641   H     0.82397   0.45348   0.71656   0.00000  Uiso   1.00
H642   H     0.84289   0.54694   0.78295   0.00000  Uiso   1.00
H643   H     0.91669   0.48938   0.89704   0.00000  Uiso   1.00
H644   H     0.98604   0.45512   0.97275   0.00000  Uiso   1.00
H645   H     0.98844   0.56021   0.92746   0.00000  Uiso   1.00
H646   H     0.79070   0.54028   0.56837   0.00000  Uiso   1.00
H647   H     0.69612   0.57319   0.52671   0.00000  Uiso   1.00
I648   I     0.81898   0.43616   0.60083   0.00000  Uiso   1.00
N649   N     0.81160   0.48556   0.73542   0.00000  Uiso   1.00
N650   N     0.85507   0.51444   0.76457   0.00000  Uiso   1.00
O651   O     0.96435   0.57963   0.75357   0.00000  Uiso   1.00
O652   O     0.72408   0.57038   0.74423   0.00000  Uiso   1.00
O653   O     0.98157   0.50691   0.83380   0.00000  Uiso   1.00
O654   O     0.74130   0.49766   0.82446   0.00000  Uiso   1.00
O655   O     0.94258   0.42962   0.75576   0.00000  Uiso   1.00
O656   O     0.70231   0.42037   0.74642   0.00000  Uiso   1.00
O657   O     0.92537   0.50234   0.67554   0.00000  Uiso   1.00
O658   O     0.68510   0.49309   0.66620   0.00000  Uiso   1.00
Zn659  Zn    0.93786   0.50618   0.75623   0.00000  Uiso   1.00
Zn660  Zn    0.72881   0.49382   0.74376   0.00000  Uiso   1.00
C661   C     0.01472   0.93150   0.74856   0.00000  Uiso   1.00
C662   C     0.06522   0.85960   0.91141   0.00000  Uiso   1.00
C663   C     0.02242   0.98600   0.74773   0.00000  Uiso   1.00
C664   C     0.03860   0.84330   0.85379   0.00000  Uiso   1.00
C665   C     0.31087   0.68066   0.75213   0.00000  Uiso   1.00
C666   C     0.31859   0.73517   0.75140   0.00000  Uiso   1.00
C667   C     0.29563   0.82443   0.64638   0.00000  Uiso   1.00
C668   C     0.29032   0.79813   0.99885   0.00000  Uiso   1.00
C669   C     0.27330   0.81182   0.58866   0.00000  Uiso   1.00
C670   C     0.03192   0.88178   0.94474   0.00000  Uiso   1.00
C671   C     0.05485   0.88881   0.50098   0.00000  Uiso   1.00
C672   C     0.14264   0.84750   0.99103   0.00000  Uiso   1.00
C673   C     0.10853   0.86940   0.52444   0.00000  Uiso   1.00
C674   C     0.12482   0.85171   0.93450   0.00000  Uiso   1.00
C675   C     0.19645   0.82577   0.51189   0.00000  Uiso   1.00
C676   C     0.23514   0.81587   0.97744   0.00000  Uiso   1.00
C677   C     0.22015   0.82766   0.92333   0.00000  Uiso   1.00
C678   C     0.16763   0.84883   0.90341   0.00000  Uiso   1.00
C679   C     0.21349   0.81360   0.56605   0.00000  Uiso   1.00
C680   C     0.31115   0.80008   0.55501   0.00000  Uiso   1.00
H681   H     0.02332   0.79374   0.57192   0.00000  Uiso   1.00
H682   H     0.16290   0.86572   0.86465   0.00000  Uiso   1.00
H683   H     0.06479   0.66959   0.74354   0.00000  Uiso   1.00
H684   H     0.26849   0.99707   0.75631   0.00000  Uiso   1.00
H685   H     0.15730   0.78682   0.71656   0.00000  Uiso   1.00
H686   H     0.17623   0.88028   0.78295   0.00000  Uiso   1.00
H687   H     0.25002   0.82271   0.89704   0.00000  Uiso   1.00
H688   H     0.31937   0.78845   0.97275   0.00000  Uiso   1.00
H689   H     0.32177   0.89354   0.92746   0.00000  Uiso   1.00
H690   H     0.12404   0.87361   0.56837   0.00000  Uiso   1.00
H691   H     0.02945   0.90652   0.52671   0.00000  Uiso   1.00
I692   I     0.15231   0.76950   0.60083   0.00000  Uiso   1.00
N693   N     0.14493   0.81890   0.73542   0.00000  Uiso   1.00
N694   N     0.18840   0.84777   0.76457   0.00000  Uiso   1.00
O695   O     0.29769   0.91296   0.75357   0.00000  Uiso   1.00
O696   O     0.05742   0.90371   0.74423   0.00000  Uiso   1.00
O697   O     0.31490   0.84024   0.83380   0.00000  Uiso   1.00
O698   O     0.07463   0.83099   0.82446   0.00000  Uiso   1.00
O699   O     0.27592   0.76296   0.75576   0.00000  Uiso   1.00
O700   O     0.03565   0.75371   0.74642   0.00000  Uiso   1.00
O701   O     0.25870   0.83567   0.67554   0.00000  Uiso   1.00
O702   O     0.01843   0.82642   0.66620   0.00000  Uiso   1.00
Zn703  Zn    0.27119   0.83951   0.75623   0.00000  Uiso   1.00
Zn704  Zn    0.06214   0.82716   0.74376   0.00000  Uiso   1.00
C705   C     0.34806   0.93150   0.74856   0.00000  Uiso   1.00
C706   C     0.39855   0.85960   0.91141   0.00000  Uiso   1.00
C707   C     0.35575   0.98600   0.74773   0.00000  Uiso   1.00
C708   C     0.37193   0.84330   0.85379   0.00000  Uiso   1.00
C709   C     0.64420   0.68066   0.75213   0.00000  Uiso   1.00
C710   C     0.65193   0.73517   0.75140   0.00000  Uiso   1.00
C711   C     0.62897   0.82443   0.64638   0.00000  Uiso   1.00
C712   C     0.62365   0.79813   0.99885   0.00000  Uiso   1.00
C713   C     0.60663   0.81182   0.58866   0.00000  Uiso   1.00
C714   C     0.36525   0.88178   0.94474   0.00000  Uiso   1.00
C715   C     0.38818   0.88881   0.50098   0.00000  Uiso   1.00
C716   C     0.47598   0.84750   0.99103   0.00000  Uiso   1.00
C717   C     0.44186   0.86940   0.52444   0.00000  Uiso   1.00
C718   C     0.45816   0.85171   0.93450   0.00000  Uiso   1.00
C719   C     0.52978   0.82577   0.51189   0.00000  Uiso   1.00
C720   C     0.56848   0.81587   0.97744   0.00000  Uiso   1.00
C721   C     0.55349   0.82766   0.92333   0.00000  Uiso   1.00
C722   C     0.50096   0.84883   0.90341   0.00000  Uiso   1.00
C723   C     0.54683   0.81360   0.56605   0.00000  Uiso   1.00
C724   C     0.64448   0.80008   0.55501   0.00000  Uiso   1.00
H725   H     0.35665   0.79374   0.57192   0.00000  Uiso   1.00
H726   H     0.49623   0.86572   0.86465   0.00000  Uiso   1.00
H727   H     0.39812   0.66959   0.74354   0.00000  Uiso   1.00
H728   H     0.60182   0.99707   0.75631   0.00000  Uiso   1.00
H729   H     0.49064   0.78682   0.71656   0.00000  Uiso   1.00
H730   H     0.50956   0.88028   0.78295   0.00000  Uiso   1.00
H731   H     0.58335   0.82271   0.89704   0.00000  Uiso   1.00
H732   H     0.65271   0.78845   0.97275   0.00000  Uiso   1.00
H733   H     0.65510   0.89354   0.92746   0.00000  Uiso   1.00
H734   H     0.45737   0.87361   0.56837   0.00000  Uiso   1.00
H735   H     0.36279   0.90652   0.52671   0.00000  Uiso   1.00
I736   I     0.48564   0.76950   0.60083   0.00000  Uiso   1.00
N737   N     0.47827   0.81890   0.73542   0.00000  Uiso   1.00
N738   N     0.52173   0.84777   0.76457   0.00000  Uiso   1.00
O739   O     0.63102   0.91296   0.75357   0.00000  Uiso   1.00
O740   O     0.39075   0.90371   0.74423   0.00000  Uiso   1.00
O741   O     0.64823   0.84024   0.83380   0.00000  Uiso   1.00
O742   O     0.40796   0.83099   0.82446   0.00000  Uiso   1.00
O743   O     0.60925   0.76296   0.75576   0.00000  Uiso   1.00
O744   O     0.36898   0.75371   0.74642   0.00000  Uiso   1.00
O745   O     0.59204   0.83567   0.67554   0.00000  Uiso   1.00
O746   O     0.35177   0.82642   0.66620   0.00000  Uiso   1.00
Zn747  Zn    0.60453   0.83951   0.75623   0.00000  Uiso   1.00
Zn748  Zn    0.39547   0.82716   0.74376   0.00000  Uiso   1.00
C749   C     0.68139   0.93150   0.74856   0.00000  Uiso   1.00
C750   C     0.73188   0.85960   0.91141   0.00000  Uiso   1.00
C751   C     0.68908   0.98600   0.74773   0.00000  Uiso   1.00
C752   C     0.70527   0.84330   0.85379   0.00000  Uiso   1.00
C753   C     0.97753   0.68066   0.75213   0.00000  Uiso   1.00
C754   C     0.98526   0.73517   0.75140   0.00000  Uiso   1.00
C755   C     0.96230   0.82443   0.64638   0.00000  Uiso   1.00
C756   C     0.95699   0.79813   0.99885   0.00000  Uiso   1.00
C757   C     0.93996   0.81182   0.58866   0.00000  Uiso   1.00
C758   C     0.69859   0.88178   0.94474   0.00000  Uiso   1.00
C759   C     0.72152   0.88881   0.50098   0.00000  Uiso   1.00
C760   C     0.80931   0.84750   0.99103   0.00000  Uiso   1.00
C761   C     0.77520   0.86940   0.52444   0.00000  Uiso   1.00
C762   C     0.79149   0.85171   0.93450   0.00000  Uiso   1.00
C763   C     0.86311   0.82577   0.51189   0.00000  Uiso   1.00
C764   C     0.90181   0.81587   0.97744   0.00000  Uiso   1.00
C765   C     0.88682   0.82766   0.92333   0.00000  Uiso   1.00
C766   C     0.83430   0.84883   0.90341   0.00000  Uiso   1.00
C767   C     0.88016   0.81360   0.56605   0.00000  Uiso   1.00
C768   C     0.97782   0.80008   0.55501   0.00000  Uiso   1.00
H769   H     0.68998   0.79374   0.57192   0.00000  Uiso   1.00
H770   H     0.82957   0.86572   0.86465   0.00000  Uiso   1.00
H771   H     0.73146   0.66959   0.74354   0.00000  Uiso   1.00
H772   H     0.93515   0.99707   0.75631   0.00000  Uiso   1.00
H773   H     0.82397   0.78682   0.71656   0.00000  Uiso   1.00
H774   H     0.84289   0.88028   0.78295   0.00000  Uiso   1.00
H775   H     0.91669   0.82271   0.89704   0.00000  Uiso   1.00
H776   H     0.98604   0.78845   0.97275   0.00000  Uiso   1.00
H777   H     0.98844   0.89354   0.92746   0.00000  Uiso   1.00
H778   H     0.79070   0.87361   0.56837   0.00000  Uiso   1.00
H779   H     0.69612   0.90652   0.52671   0.00000  Uiso   1.00
I780   I     0.81898   0.76950   0.60083   0.00000  Uiso   1.00
N781   N     0.81160   0.81890   0.73542   0.00000  Uiso   1.00
N782   N     0.85507   0.84777   0.76457   0.00000  Uiso   1.00
O783   O     0.96435   0.91296   0.75357   0.00000  Uiso   1.00
O784   O     0.72408   0.90371   0.74423   0.00000  Uiso   1.00
O785   O     0.98157   0.84024   0.83380   0.00000  Uiso   1.00
O786   O     0.74130   0.83099   0.82446   0.00000  Uiso   1.00
O787   O     0.94258   0.76296   0.75576   0.00000  Uiso   1.00
O788   O     0.70231   0.75371   0.74642   0.00000  Uiso   1.00
O789   O     0.92537   0.83567   0.67554   0.00000  Uiso   1.00
O790   O     0.68510   0.82642   0.66620   0.00000  Uiso   1.00
Zn791  Zn    0.93786   0.83951   0.75623   0.00000  Uiso   1.00
Zn792  Zn    0.72881   0.82716   0.74376   0.00000  Uiso   1.00
loop_
_geom_bond_atom_site_label_1
_geom_bond_atom_site_label_2
_geom_bond_distance
_geom_bond_site_symmetry_2
_ccdc_geom_bond_type
C1     O36     1.290   .     A
C1     C3      1.404   .     S
C1     O123    1.280   1_455 S
C2     C4      1.474   .     S
C2     C14     1.417   .     A
C2     C10     1.401   .     A
C3     C225    1.336   1_455 S
C3     H155    1.088   .     S
C4     O38     1.290   .     A
C4     O125    1.312   1_455 S
C5     C6      1.404   .     S
C5     C311    1.336   1_545 S
C5     H288    1.088   1_545 S
C6     O39     1.290   .     A
C6     O84     1.280   .     S
C7     O41     1.297   .     A
C7     C9      1.444   .     S
C7     O86     1.293   .     S
C8     C16     1.397   .     A
C8     H28     1.083   .     S
C8     C416    1.385   .     S
C9     C20     1.399   .     A
C9     C19     1.392   .     A
C10    C407    1.395   .     S
C10    H117    1.081   1_455 S
C11    H31     1.083   .     S
C11    C13     1.396   .     A
C11    C406    1.395   1_554 S
C12    C14     1.400   .     A
C12    C409    1.413   .     S
C12    C411    1.412   .     S
C13    H30     1.081   .     S
C13    C408    1.413   1_554 S
C14    C18     1.412   .     A
C15    C19     1.386   .     A
C15    C408    1.412   1_554 S
C15    C412    1.420   1_554 S
C16    C17     1.379   .     A
C16    C411    1.420   .     S
C17    C18     1.376   .     A
C17    H27     1.079   .     S
C18    H22     1.071   .     S
C19    I32     2.135   .     S
C20    C404    1.385   1_554 S
C20    H65     1.080   .     S
H21    C108    1.080   1_455 S
H23    C267    1.088   1_545 S
H24    C137    1.088   .     S
H25    N33     1.027   .     S
H26    N34     1.028   .     S
H29    C54     1.081   .     S
N33    N34     1.281   .     D
N33    Zn44    2.024   .     S
N34    Zn43    2.024   .     S
O35    Zn43    1.959   .     S
O35    C45     1.280   .     S
O36    Zn44    1.980   .     S
O37    Zn43    1.986   .     S
O37    C48     1.312   .     S
O38    Zn44    1.984   .     S
O39    Zn43    1.980   .     S
O40    Zn44    1.959   .     S
O40    C94     1.280   1_455 S
O41    Zn43    1.984   .     S
O42    Zn44    1.986   .     S
O42    C95     1.293   1_455 S
C45    O80     1.290   .     A
C45    C47     1.404   .     S
C46    C48     1.474   .     S
C46    C58     1.417   .     A
C46    C54     1.401   .     A
C47    C137    1.336   .     S
C47    H199    1.088   .     S
C48    O82     1.290   .     A
C49    C50     1.404   .     S
C49    C355    1.336   1_545 S
C49    H332    1.088   1_545 S
C50    O83     1.290   .     A
C50    O128    1.280   .     S
C51    O85     1.297   .     A
C51    C53     1.444   .     S
C51    O130    1.293   .     S
C52    C60     1.397   .     A
C52    H72     1.083   .     S
C52    C460    1.385   .     S
C53    C64     1.399   .     A
C53    C63     1.392   .     A
C54    C451    1.395   .     S
C55    H75     1.083   .     S
C55    C57     1.396   .     A
C55    C450    1.395   1_554 S
C56    C58     1.400   .     A
C56    C453    1.413   .     S
C56    C455    1.412   .     S
C57    H74     1.081   .     S
C57    C452    1.413   1_554 S
C58    C62     1.412   .     A
C59    C63     1.386   .     A
C59    C452    1.412   1_554 S
C59    C456    1.420   1_554 S
C60    C61     1.379   .     A
C60    C455    1.420   .     S
C61    C62     1.376   .     A
C61    H71     1.079   .     S
C62    H66     1.071   .     S
C63    I76     2.135   .     S
C64    C448    1.385   1_554 S
C64    H109    1.080   .     S
H67    C311    1.088   1_545 S
H68    C181    1.088   .     S
H69    N77     1.027   .     S
H70    N78     1.028   .     S
H73    C98     1.081   .     S
N77    N78     1.281   .     D
N77    Zn88    2.024   .     S
N78    Zn87    2.024   .     S
O79    Zn87    1.959   .     S
O79    C89     1.280   .     S
O80    Zn88    1.980   .     S
O81    Zn87    1.986   .     S
O81    C92     1.312   .     S
O82    Zn88    1.984   .     S
O83    Zn87    1.980   .     S
O84    Zn88    1.959   .     S
O85    Zn87    1.984   .     S
O86    Zn88    1.986   .     S
C89    O124    1.290   .     A
C89    C91     1.404   .     S
C90    C92     1.474   .     S
C90    C102    1.417   .     A
C90    C98     1.401   .     A
C91    C181    1.336   .     S
C91    H243    1.088   .     S
C92    O126    1.290   .     A
C93    C94     1.404   .     S
C93    C267    1.336   1_645 S
C93    H376    1.088   1_545 S
C94    O127    1.290   .     A
C94    O40     1.280   1_655 S
C95    O129    1.297   .     A
C95    C97     1.444   .     S
C95    O42     1.293   1_655 S
C96    C104    1.397   .     A
C96    H116    1.083   .     S
C96    C504    1.385   .     S
C97    C108    1.399   .     A
C97    C107    1.392   .     A
C98    C495    1.395   .     S
C99    H119    1.083   .     S
C99    C101    1.396   .     A
C99    C494    1.395   1_554 S
C100   C102    1.400   .     A
C100   C497    1.413   .     S
C100   C499    1.412   .     S
C101   H118    1.081   .     S
C101   C496    1.413   1_554 S
C102   C106    1.412   .     A
C103   C107    1.386   .     A
C103   C496    1.412   1_554 S
C103   C500    1.420   1_554 S
C104   C105    1.379   .     A
C104   C499    1.420   .     S
C105   C106    1.376   .     A
C105   H115    1.079   .     S
C106   H110    1.071   .     S
C107   I120    2.135   .     S
C108   C492    1.385   1_554 S
C108   H21     1.080   1_655 S
H111   C355    1.088   1_545 S
H112   C225    1.088   .     S
H113   N121    1.027   .     S
H114   N122    1.028   .     S
H117   C10     1.081   1_655 S
N121   N122    1.281   .     D
N121   Zn132   2.024   .     S
N122   Zn131   2.024   .     S
O123   Zn131   1.959   .     S
O123   C1      1.280   1_655 S
O124   Zn132   1.980   .     S
O125   Zn131   1.986   .     S
O125   C4      1.312   1_655 S
O126   Zn132   1.984   .     S
O127   Zn131   1.980   .     S
O128   Zn132   1.959   .     S
O129   Zn131   1.984   .     S
O130   Zn132   1.986   .     S
C133   O168    1.290   .     A
C133   C135    1.404   .     S
C133   O255    1.280   1_455 S
C134   C136    1.474   .     S
C134   C146    1.417   .     A
C134   C142    1.401   .     A
C135   C357    1.336   1_455 S
C135   H287    1.088   .     S
C136   O170    1.290   .     A
C136   O257    1.312   1_455 S
C137   C138    1.404   .     S
C138   O171    1.290   .     A
C138   O216    1.280   .     S
C139   O173    1.297   .     A
C139   C141    1.444   .     S
C139   O218    1.293   .     S
C140   C148    1.397   .     A
C140   H160    1.083   .     S
C140   C548    1.385   .     S
C141   C152    1.399   .     A
C141   C151    1.392   .     A
C142   C539    1.395   .     S
C142   H249    1.081   1_455 S
C143   H163    1.083   .     S
C143   C145    1.396   .     A
C143   C538    1.395   1_554 S
C144   C146    1.400   .     A
C144   C541    1.413   .     S
C144   C543    1.412   .     S
C145   H162    1.081   .     S
C145   C540    1.413   1_554 S
C146   C150    1.412   .     A
C147   C151    1.386   .     A
C147   C540    1.412   1_554 S
C147   C544    1.420   1_554 S
C148   C149    1.379   .     A
C148   C543    1.420   .     S
C149   C150    1.376   .     A
C149   H159    1.079   .     S
C150   H154    1.071   .     S
C151   I164    2.135   .     S
C152   C536    1.385   1_554 S
C152   H197    1.080   .     S
H153   C240    1.080   1_455 S
H156   C269    1.088   .     S
H157   N165    1.027   .     S
H158   N166    1.028   .     S
H161   C186    1.081   .     S
N165   N166    1.281   .     D
N165   Zn176   2.024   .     S
N166   Zn175   2.024   .     S
O167   Zn175   1.959   .     S
O167   C177    1.280   .     S
O168   Zn176   1.980   .     S
O169   Zn175   1.986   .     S
O169   C180    1.312   .     S
O170   Zn176   1.984   .     S
O171   Zn175   1.980   .     S
O172   Zn176   1.959   .     S
O172   C226    1.280   1_455 S
O173   Zn175   1.984   .     S
O174   Zn176   1.986   .     S
O174   C227    1.293   1_455 S
C177   O212    1.290   .     A
C177   C179    1.404   .     S
C178   C180    1.474   .     S
C178   C190    1.417   .     A
C178   C186    1.401   .     A
C179   C269    1.336   .     S
C179   H331    1.088   .     S
C180   O214    1.290   .     A
C181   C182    1.404   .     S
C182   O215    1.290   .     A
C182   O260    1.280   .     S
C183   O217    1.297   .     A
C183   C185    1.444   .     S
C183   O262    1.293   .     S
C184   C192    1.397   .     A
C184   H204    1.083   .     S
C184   C592    1.385   .     S
C185   C196    1.399   .     A
C185   C195    1.392   .     A
C186   C583    1.395   .     S
C187   H207    1.083   .     S
C187   C189    1.396   .     A
C187   C582    1.395   1_554 S
C188   C190    1.400   .     A
C188   C585    1.413   .     S
C188   C587    1.412   .     S
C189   H206    1.081   .     S
C189   C584    1.413   1_554 S
C190   C194    1.412   .     A
C191   C195    1.386   .     A
C191   C584    1.412   1_554 S
C191   C588    1.420   1_554 S
C192   C193    1.379   .     A
C192   C587    1.420   .     S
C193   C194    1.376   .     A
C193   H203    1.079   .     S
C194   H198    1.071   .     S
C195   I208    2.135   .     S
C196   C580    1.385   1_554 S
C196   H241    1.080   .     S
H200   C313    1.088   .     S
H201   N209    1.027   .     S
H202   N210    1.028   .     S
H205   C230    1.081   .     S
N209   N210    1.281   .     D
N209   Zn220   2.024   .     S
N210   Zn219   2.024   .     S
O211   Zn219   1.959   .     S
O211   C221    1.280   .     S
O212   Zn220   1.980   .     S
O213   Zn219   1.986   .     S
O213   C224    1.312   .     S
O214   Zn220   1.984   .     S
O215   Zn219   1.980   .     S
O216   Zn220   1.959   .     S
O217   Zn219   1.984   .     S
O218   Zn220   1.986   .     S
C221   O256    1.290   .     A
C221   C223    1.404   .     S
C222   C224    1.474   .     S
C222   C234    1.417   .     A
C222   C230    1.401   .     A
C223   C313    1.336   .     S
C223   H375    1.088   .     S
C224   O258    1.290   .     A
C225   C226    1.404   .     S
C225   C3      1.336   1_655 S
C226   O259    1.290   .     A
C226   O172    1.280   1_655 S
C227   O261    1.297   .     A
C227   C229    1.444   .     S
C227   O174    1.293   1_655 S
C228   C236    1.397   .     A
C228   H248    1.083   .     S
C228   C636    1.385   .     S
C229   C240    1.399   .     A
C229   C239    1.392   .     A
C230   C627    1.395   .     S
C231   H251    1.083   .     S
C231   C233    1.396   .     A
C231   C626    1.395   1_554 S
C232   C234    1.400   .     A
C232   C629    1.413   .     S
C232   C631    1.412   .     S
C233   H250    1.081   .     S
C233   C628    1.413   1_554 S
C234   C238    1.412   .     A
C235   C239    1.386   .     A
C235   C628    1.412   1_554 S
C235   C632    1.420   1_554 S
C236   C237    1.379   .     A
C236   C631    1.420   .     S
C237   C238    1.376   .     A
C237   H247    1.079   .     S
C238   H242    1.071   .     S
C239   I252    2.135   .     S
C240   C624    1.385   1_554 S
C240   H153    1.080   1_655 S
H244   C357    1.088   .     S
H245   N253    1.027   .     S
H246   N254    1.028   .     S
H249   C142    1.081   1_655 S
N253   N254    1.281   .     D
N253   Zn264   2.024   .     S
N254   Zn263   2.024   .     S
O255   Zn263   1.959   .     S
O255   C133    1.280   1_655 S
O256   Zn264   1.980   .     S
O257   Zn263   1.986   .     S
O257   C136    1.312   1_655 S
O258   Zn264   1.984   .     S
O259   Zn263   1.980   .     S
O260   Zn264   1.959   .     S
O261   Zn263   1.984   .     S
O262   Zn264   1.986   .     S
C265   O300    1.290   .     A
C265   C267    1.404   .     S
C265   O387    1.280   1_455 S
C266   C268    1.474   .     S
C266   C278    1.417   .     A
C266   C274    1.401   .     A
C267   C93     1.336   1_465 S
C267   H23     1.088   1_565 S
C268   O302    1.290   .     A
C268   O389    1.312   1_455 S
C269   C270    1.404   .     S
C270   O303    1.290   .     A
C270   O348    1.280   .     S
C271   O305    1.297   .     A
C271   C273    1.444   .     S
C271   O350    1.293   .     S
C272   C280    1.397   .     A
C272   H292    1.083   .     S
C272   C680    1.385   .     S
C273   C284    1.399   .     A
C273   C283    1.392   .     A
C274   C671    1.395   .     S
C274   H381    1.081   1_455 S
C275   H295    1.083   .     S
C275   C277    1.396   .     A
C275   C670    1.395   1_554 S
C276   C278    1.400   .     A
C276   C673    1.413   .     S
C276   C675    1.412   .     S
C277   H294    1.081   .     S
C277   C672    1.413   1_554 S
C278   C282    1.412   .     A
C279   C283    1.386   .     A
C279   C672    1.412   1_554 S
C279   C676    1.420   1_554 S
C280   C281    1.379   .     A
C280   C675    1.420   .     S
C281   C282    1.376   .     A
C281   H291    1.079   .     S
C282   H286    1.071   .     S
C283   I296    2.135   .     S
C284   C668    1.385   1_554 S
C284   H329    1.080   .     S
H285   C372    1.080   1_455 S
H288   C5      1.088   1_565 S
H289   N297    1.027   .     S
H290   N298    1.028   .     S
H293   C318    1.081   .     S
N297   N298    1.281   .     D
N297   Zn308   2.024   .     S
N298   Zn307   2.024   .     S
O299   Zn307   1.959   .     S
O299   C309    1.280   .     S
O300   Zn308   1.980   .     S
O301   Zn307   1.986   .     S
O301   C312    1.312   .     S
O302   Zn308   1.984   .     S
O303   Zn307   1.980   .     S
O304   Zn308   1.959   .     S
O304   C358    1.280   1_455 S
O305   Zn307   1.984   .     S
O306   Zn308   1.986   .     S
O306   C359    1.293   1_455 S
C309   O344    1.290   .     A
C309   C311    1.404   .     S
C310   C312    1.474   .     S
C310   C322    1.417   .     A
C310   C318    1.401   .     A
C311   C5      1.336   1_565 S
C311   H67     1.088   1_565 S
C312   O346    1.290   .     A
C313   C314    1.404   .     S
C314   O347    1.290   .     A
C314   O392    1.280   .     S
C315   O349    1.297   .     A
C315   C317    1.444   .     S
C315   O394    1.293   .     S
C316   C324    1.397   .     A
C316   H336    1.083   .     S
C316   C724    1.385   .     S
C317   C328    1.399   .     A
C317   C327    1.392   .     A
C318   C715    1.395   .     S
C319   H339    1.083   .     S
C319   C321    1.396   .     A
C319   C714    1.395   1_554 S
C320   C322    1.400   .     A
C320   C717    1.413   .     S
C320   C719    1.412   .     S
C321   H338    1.081   .     S
C321   C716    1.413   1_554 S
C322   C326    1.412   .     A
C323   C327    1.386   .     A
C323   C716    1.412   1_554 S
C323   C720    1.420   1_554 S
C324   C325    1.379   .     A
C324   C719    1.420   .     S
C325   C326    1.376   .     A
C325   H335    1.079   .     S
C326   H330    1.071   .     S
C327   I340    2.135   .     S
C328   C712    1.385   1_554 S
C328   H373    1.080   .     S
H332   C49     1.088   1_565 S
H333   N341    1.027   .     S
H334   N342    1.028   .     S
H337   C362    1.081   .     S
N341   N342    1.281   .     D
N341   Zn352   2.024   .     S
N342   Zn351   2.024   .     S
O343   Zn351   1.959   .     S
O343   C353    1.280   .     S
O344   Zn352   1.980   .     S
O345   Zn351   1.986   .     S
O345   C356    1.312   .     S
O346   Zn352   1.984   .     S
O347   Zn351   1.980   .     S
O348   Zn352   1.959   .     S
O349   Zn351   1.984   .     S
O350   Zn352   1.986   .     S
C353   O388    1.290   .     A
C353   C355    1.404   .     S
C354   C356    1.474   .     S
C354   C366    1.417   .     A
C354   C362    1.401   .     A
C355   C49     1.336   1_565 S
C355   H111    1.088   1_565 S
C356   O390    1.290   .     A
C357   C358    1.404   .     S
C357   C135    1.336   1_655 S
C358   O391    1.290   .     A
C358   O304    1.280   1_655 S
C359   O393    1.297   .     A
C359   C361    1.444   .     S
C359   O306    1.293   1_655 S
C360   C368    1.397   .     A
C360   H380    1.083   .     S
C360   C768    1.385   .     S
C361   C372    1.399   .     A
C361   C371    1.392   .     A
C362   C759    1.395   .     S
C363   H383    1.083   .     S
C363   C365    1.396   .     A
C363   C758    1.395   1_554 S
C364   C366    1.400   .     A
C364   C761    1.413   .     S
C364   C763    1.412   .     S
C365   H382    1.081   .     S
C365   C760    1.413   1_554 S
C366   C370    1.412   .     A
C367   C371    1.386   .     A
C367   C760    1.412   1_554 S
C367   C764    1.420   1_554 S
C368   C369    1.379   .     A
C368   C763    1.420   .     S
C369   C370    1.376   .     A
C369   H379    1.079   .     S
C370   H374    1.071   .     S
C371   I384    2.135   .     S
C372   C756    1.385   1_554 S
C372   H285    1.080   1_655 S
H376   C93     1.088   1_565 S
H377   N385    1.027   .     S
H378   N386    1.028   .     S
H381   C274    1.081   1_655 S
N385   N386    1.281   .     D
N385   Zn396   2.024   .     S
N386   Zn395   2.024   .     S
O387   Zn395   1.959   .     S
O387   C265    1.280   1_655 S
O388   Zn396   1.980   .     S
O389   Zn395   1.986   .     S
O389   C268    1.312   1_655 S
O390   Zn396   1.984   .     S
O391   Zn395   1.980   .     S
O392   Zn396   1.959   .     S
O393   Zn395   1.984   .     S
O394   Zn396   1.986   .     S
C397   O432    1.290   .     A
C397   C399    1.404   .     S
C397   O519    1.280   1_455 S
C398   C400    1.474   .     S
C398   C410    1.417   .     A
C398   C406    1.401   .     A
C399   C621    1.336   1_455 S
C399   H551    1.088   .     S
C400   O434    1.290   .     A
C400   O521    1.312   1_455 S
C401   C402    1.404   .     S
C401   C707    1.336   1_545 S
C401   H684    1.088   1_545 S
C402   O435    1.290   .     A
C402   O480    1.280   .     S
C403   O437    1.297   .     A
C403   C405    1.444   .     S
C403   O482    1.293   .     S
C404   C412    1.397   .     A
C404   H424    1.083   .     S
C404   C20     1.385   1_556 S
C405   C416    1.399   .     A
C405   C415    1.392   .     A
C406   C11     1.395   1_556 S
C406   H513    1.081   1_455 S
C407   H427    1.083   .     S
C407   C409    1.396   .     A
C408   C410    1.400   .     A
C408   C13     1.413   1_556 S
C408   C15     1.412   1_556 S
C409   H426    1.081   .     S
C410   C414    1.412   .     A
C411   C415    1.386   .     A
C412   C413    1.379   .     A
C412   C15     1.420   1_556 S
C413   C414    1.376   .     A
C413   H423    1.079   .     S
C414   H418    1.071   .     S
C415   I428    2.135   .     S
C416   H461    1.080   .     S
H417   C504    1.080   1_455 S
H419   C663    1.088   1_545 S
H420   C533    1.088   .     S
H421   N429    1.027   .     S
H422   N430    1.028   .     S
H425   C450    1.081   .     S
N429   N430    1.281   .     D
N429   Zn440   2.024   .     S
N430   Zn439   2.024   .     S
O431   Zn439   1.959   .     S
O431   C441    1.280   .     S
O432   Zn440   1.980   .     S
O433   Zn439   1.986   .     S
O433   C444    1.312   .     S
O434   Zn440   1.984   .     S
O435   Zn439   1.980   .     S
O436   Zn440   1.959   .     S
O436   C490    1.280   1_455 S
O437   Zn439   1.984   .     S
O438   Zn440   1.986   .     S
O438   C491    1.293   1_455 S
C441   O476    1.290   .     A
C441   C443    1.404   .     S
C442   C444    1.474   .     S
C442   C454    1.417   .     A
C442   C450    1.401   .     A
C443   C533    1.336   .     S
C443   H595    1.088   .     S
C444   O478    1.290   .     A
C445   C446    1.404   .     S
C445   C751    1.336   1_545 S
C445   H728    1.088   1_545 S
C446   O479    1.290   .     A
C446   O524    1.280   .     S
C447   O481    1.297   .     A
C447   C449    1.444   .     S
C447   O526    1.293   .     S
C448   C456    1.397   .     A
C448   H468    1.083   .     S
C448   C64     1.385   1_556 S
C449   C460    1.399   .     A
C449   C459    1.392   .     A
C450   C55     1.395   1_556 S
C451   H471    1.083   .     S
C451   C453    1.396   .     A
C452   C454    1.400   .     A
C452   C57     1.413   1_556 S
C452   C59     1.412   1_556 S
C453   H470    1.081   .     S
C454   C458    1.412   .     A
C455   C459    1.386   .     A
C456   C457    1.379   .     A
C456   C59     1.420   1_556 S
C457   C458    1.376   .     A
C457   H467    1.079   .     S
C458   H462    1.071   .     S
C459   I472    2.135   .     S
C460   H505    1.080   .     S
H463   C707    1.088   1_545 S
H464   C577    1.088   .     S
H465   N473    1.027   .     S
H466   N474    1.028   .     S
H469   C494    1.081   .     S
N473   N474    1.281   .     D
N473   Zn484   2.024   .     S
N474   Zn483   2.024   .     S
O475   Zn483   1.959   .     S
O475   C485    1.280   .     S
O476   Zn484   1.980   .     S
O477   Zn483   1.986   .     S
O477   C488    1.312   .     S
O478   Zn484   1.984   .     S
O479   Zn483   1.980   .     S
O480   Zn484   1.959   .     S
O481   Zn483   1.984   .     S
O482   Zn484   1.986   .     S
C485   O520    1.290   .     A
C485   C487    1.404   .     S
C486   C488    1.474   .     S
C486   C498    1.417   .     A
C486   C494    1.401   .     A
C487   C577    1.336   .     S
C487   H639    1.088   .     S
C488   O522    1.290   .     A
C489   C490    1.404   .     S
C489   C663    1.336   1_645 S
C489   H772    1.088   1_545 S
C490   O523    1.290   .     A
C490   O436    1.280   1_655 S
C491   O525    1.297   .     A
C491   C493    1.444   .     S
C491   O438    1.293   1_655 S
C492   C500    1.397   .     A
C492   H512    1.083   .     S
C492   C108    1.385   1_556 S
C493   C504    1.399   .     A
C493   C503    1.392   .     A
C494   C99     1.395   1_556 S
C495   H515    1.083   .     S
C495   C497    1.396   .     A
C496   C498    1.400   .     A
C496   C101    1.413   1_556 S
C496   C103    1.412   1_556 S
C497   H514    1.081   .     S
C498   C502    1.412   .     A
C499   C503    1.386   .     A
C500   C501    1.379   .     A
C500   C103    1.420   1_556 S
C501   C502    1.376   .     A
C501   H511    1.079   .     S
C502   H506    1.071   .     S
C503   I516    2.135   .     S
C504   H417    1.080   1_655 S
H507   C751    1.088   1_545 S
H508   C621    1.088   .     S
H509   N517    1.027   .     S
H510   N518    1.028   .     S
H513   C406    1.081   1_655 S
N517   N518    1.281   .     D
N517   Zn528   2.024   .     S
N518   Zn527   2.024   .     S
O519   Zn527   1.959   .     S
O519   C397    1.280   1_655 S
O520   Zn528   1.980   .     S
O521   Zn527   1.986   .     S
O521   C400    1.312   1_655 S
O522   Zn528   1.984   .     S
O523   Zn527   1.980   .     S
O524   Zn528   1.959   .     S
O525   Zn527   1.984   .     S
O526   Zn528   1.986   .     S
C529   O564    1.290   .     A
C529   C531    1.404   .     S
C529   O651    1.280   1_455 S
C530   C532    1.474   .     S
C530   C542    1.417   .     A
C530   C538    1.401   .     A
C531   C753    1.336   1_455 S
C531   H683    1.088   .     S
C532   O566    1.290   .     A
C532   O653    1.312   1_455 S
C533   C534    1.404   .     S
C534   O567    1.290   .     A
C534   O612    1.280   .     S
C535   O569    1.297   .     A
C535   C537    1.444   .     S
C535   O614    1.293   .     S
C536   C544    1.397   .     A
C536   H556    1.083   .     S
C536   C152    1.385   1_556 S
C537   C548    1.399   .     A
C537   C547    1.392   .     A
C538   C143    1.395   1_556 S
C538   H645    1.081   1_455 S
C539   H559    1.083   .     S
C539   C541    1.396   .     A
C540   C542    1.400   .     A
C540   C145    1.413   1_556 S
C540   C147    1.412   1_556 S
C541   H558    1.081   .     S
C542   C546    1.412   .     A
C543   C547    1.386   .     A
C544   C545    1.379   .     A
C544   C147    1.420   1_556 S
C545   C546    1.376   .     A
C545   H555    1.079   .     S
C546   H550    1.071   .     S
C547   I560    2.135   .     S
C548   H593    1.080   .     S
H549   C636    1.080   1_455 S
H552   C665    1.088   .     S
H553   N561    1.027   .     S
H554   N562    1.028   .     S
H557   C582    1.081   .     S
N561   N562    1.281   .     D
N561   Zn572   2.024   .     S
N562   Zn571   2.024   .     S
O563   Zn571   1.959   .     S
O563   C573    1.280   .     S
O564   Zn572   1.980   .     S
O565   Zn571   1.986   .     S
O565   C576    1.312   .     S
O566   Zn572   1.984   .     S
O567   Zn571   1.980   .     S
O568   Zn572   1.959   .     S
O568   C622    1.280   1_455 S
O569   Zn571   1.984   .     S
O570   Zn572   1.986   .     S
O570   C623    1.293   1_455 S
C573   O608    1.290   .     A
C573   C575    1.404   .     S
C574   C576    1.474   .     S
C574   C586    1.417   .     A
C574   C582    1.401   .     A
C575   C665    1.336   .     S
C575   H727    1.088   .     S
C576   O610    1.290   .     A
C577   C578    1.404   .     S
C578   O611    1.290   .     A
C578   O656    1.280   .     S
C579   O613    1.297   .     A
C579   C581    1.444   .     S
C579   O658    1.293   .     S
C580   C588    1.397   .     A
C580   H600    1.083   .     S
C580   C196    1.385   1_556 S
C581   C592    1.399   .     A
C581   C591    1.392   .     A
C582   C187    1.395   1_556 S
C583   H603    1.083   .     S
C583   C585    1.396   .     A
C584   C586    1.400   .     A
C584   C189    1.413   1_556 S
C584   C191    1.412   1_556 S
C585   H602    1.081   .     S
C586   C590    1.412   .     A
C587   C591    1.386   .     A
C588   C589    1.379   .     A
C588   C191    1.420   1_556 S
C589   C590    1.376   .     A
C589   H599    1.079   .     S
C590   H594    1.071   .     S
C591   I604    2.135   .     S
C592   H637    1.080   .     S
H596   C709    1.088   .     S
H597   N605    1.027   .     S
H598   N606    1.028   .     S
H601   C626    1.081   .     S
N605   N606    1.281   .     D
N605   Zn616   2.024   .     S
N606   Zn615   2.024   .     S
O607   Zn615   1.959   .     S
O607   C617    1.280   .     S
O608   Zn616   1.980   .     S
O609   Zn615   1.986   .     S
O609   C620    1.312   .     S
O610   Zn616   1.984   .     S
O611   Zn615   1.980   .     S
O612   Zn616   1.959   .     S
O613   Zn615   1.984   .     S
O614   Zn616   1.986   .     S
C617   O652    1.290   .     A
C617   C619    1.404   .     S
C618   C620    1.474   .     S
C618   C630    1.417   .     A
C618   C626    1.401   .     A
C619   C709    1.336   .     S
C619   H771    1.088   .     S
C620   O654    1.290   .     A
C621   C622    1.404   .     S
C621   C399    1.336   1_655 S
C622   O655    1.290   .     A
C622   O568    1.280   1_655 S
C623   O657    1.297   .     A
C623   C625    1.444   .     S
C623   O570    1.293   1_655 S
C624   C632    1.397   .     A
C624   H644    1.083   .     S
C624   C240    1.385   1_556 S
C625   C636    1.399   .     A
C625   C635    1.392   .     A
C626   C231    1.395   1_556 S
C627   H647    1.083   .     S
C627   C629    1.396   .     A
C628   C630    1.400   .     A
C628   C233    1.413   1_556 S
C628   C235    1.412   1_556 S
C629   H646    1.081   .     S
C630   C634    1.412   .     A
C631   C635    1.386   .     A
C632   C633    1.379   .     A
C632   C235    1.420   1_556 S
C633   C634    1.376   .     A
C633   H643    1.079   .     S
C634   H638    1.071   .     S
C635   I648    2.135   .     S
C636   H549    1.080   1_655 S
H640   C753    1.088   .     S
H641   N649    1.027   .     S
H642   N650    1.028   .     S
H645   C538    1.081   1_655 S
N649   N650    1.281   .     D
N649   Zn660   2.024   .     S
N650   Zn659   2.024   .     S
O651   Zn659   1.959   .     S
O651   C529    1.280   1_655 S
O652   Zn660   1.980   .     S
O653   Zn659   1.986   .     S
O653   C532    1.312   1_655 S
O654   Zn660   1.984   .     S
O655   Zn659   1.980   .     S
O656   Zn660   1.959   .     S
O657   Zn659   1.984   .     S
O658   Zn660   1.986   .     S
C661   O696    1.290   .     A
C661   C663    1.404   .     S
C661   O783    1.280   1_455 S
C662   C664    1.474   .     S
C662   C674    1.417   .     A
C662   C670    1.401   .     A
C663   C489    1.336   1_465 S
C663   H419    1.088   1_565 S
C664   O698    1.290   .     A
C664   O785    1.312   1_455 S
C665   C666    1.404   .     S
C666   O699    1.290   .     A
C666   O744    1.280   .     S
C667   O701    1.297   .     A
C667   C669    1.444   .     S
C667   O746    1.293   .     S
C668   C676    1.397   .     A
C668   H688    1.083   .     S
C668   C284    1.385   1_556 S
C669   C680    1.399   .     A
C669   C679    1.392   .     A
C670   C275    1.395   1_556 S
C670   H777    1.081   1_455 S
C671   H691    1.083   .     S
C671   C673    1.396   .     A
C672   C674    1.400   .     A
C672   C277    1.413   1_556 S
C672   C279    1.412   1_556 S
C673   H690    1.081   .     S
C674   C678    1.412   .     A
C675   C679    1.386   .     A
C676   C677    1.379   .     A
C676   C279    1.420   1_556 S
C677   C678    1.376   .     A
C677   H687    1.079   .     S
C678   H682    1.071   .     S
C679   I692    2.135   .     S
C680   H725    1.080   .     S
H681   C768    1.080   1_455 S
H684   C401    1.088   1_565 S
H685   N693    1.027   .     S
H686   N694    1.028   .     S
H689   C714    1.081   .     S
N693   N694    1.281   .     D
N693   Zn704   2.024   .     S
N694   Zn703   2.024   .     S
O695   Zn703   1.959   .     S
O695   C705    1.280   .     S
O696   Zn704   1.980   .     S
O697   Zn703   1.986   .     S
O697   C708    1.312   .     S
O698   Zn704   1.984   .     S
O699   Zn703   1.980   .     S
O700   Zn704   1.959   .     S
O700   C754    1.280   1_455 S
O701   Zn703   1.984   .     S
O702   Zn704   1.986   .     S
O702   C755    1.293   1_455 S
C705   O740    1.290   .     A
C705   C707    1.404   .     S
C706   C708    1.474   .     S
C706   C718    1.417   .     A
C706   C714    1.401   .     A
C707   C401    1.336   1_565 S
C707   H463    1.088   1_565 S
C708   O742    1.290   .     A
C709   C710    1.404   .     S
C710   O743    1.290   .     A
C710   O788    1.280   .     S
C711   O745    1.297   .     A
C711   C713    1.444   .     S
C711   O790    1.293   .     S
C712   C720    1.397   .     A
C712   H732    1.083   .     S
C712   C328    1.385   1_556 S
C713   C724    1.399   .     A
C713   C723    1.392   .     A
C714   C319    1.395   1_556 S
C715   H735    1.083   .     S
C715   C717    1.396   .     A
C716   C718    1.400   .     A
C716   C321    1.413   1_556 S
C716   C323    1.412   1_556 S
C717   H734    1.081   .     S
C718   C722    1.412   .     A
C719   C723    1.386   .     A
C720   C721    1.379   .     A
C720   C323    1.420   1_556 S
C721   C722    1.376   .     A
C721   H731    1.079   .     S
C722   H726    1.071   .     S
C723   I736    2.135   .     S
C724   H769    1.080   .     S
H728   C445    1.088   1_565 S
H729   N737    1.027   .     S
H730   N738    1.028   .     S
H733   C758    1.081   .     S
N737   N738    1.281   .     D
N737   Zn748   2.024   .     S
N738   Zn747   2.024   .     S
O739   Zn747   1.959   .     S
O739   C749    1.280   .     S
O740   Zn748   1.980   .     S
O741   Zn747   1.986   .     S
O741   C752    1.312   .     S
O742   Zn748   1.984   .     S
O743   Zn747   1.980   .     S
O744   Zn748   1.959   .     S
O745   Zn747   1.984   .     S
O746   Zn748   1.986   .     S
C749   O784    1.290   .     A
C749   C751    1.404   .     S
C750   C752    1.474   .     S
C750   C762    1.417   .     A
C750   C758    1.401   .     A
C751   C445    1.336   1_565 S
C751   H507    1.088   1_565 S
C752   O786    1.290   .     A
C753   C754    1.404   .     S
C753   C531    1.336   1_655 S
C754   O787    1.290   .     A
C754   O700    1.280   1_655 S
C755   O789    1.297   .     A
C755   C757    1.444   .     S
C755   O702    1.293   1_655 S
C756   C764    1.397   .     A
C756   H776    1.083   .     S
C756   C372    1.385   1_556 S
C757   C768    1.399   .     A
C757   C767    1.392   .     A
C758   C363    1.395   1_556 S
C759   H779    1.083   .     S
C759   C761    1.396   .     A
C760   C762    1.400   .     A
C760   C365    1.413   1_556 S
C760   C367    1.412   1_556 S
C761   H778    1.081   .     S
C762   C766    1.412   .     A
C763   C767    1.386   .     A
C764   C765    1.379   .     A
C764   C367    1.420   1_556 S
C765   C766    1.376   .     A
C765   H775    1.079   .     S
C766   H770    1.071   .     S
C767   I780    2.135   .     S
C768   H681    1.080   1_655 S
H772   C489    1.088   1_565 S
H773   N781    1.027   .     S
H774   N782    1.028   .     S
H777   C670    1.081   1_655 S
N781   N782    1.281   .     D
N781   Zn792   2.024   .     S
N782   Zn791   2.024   .     S
O783   Zn791   1.959   .     S
O783   C661    1.280   1_655 S
O784   Zn792   1.980   .     S
O785   Zn791   1.986   .     S
O785   C664    1.312   1_655 S
O786   Zn792   1.984   .     S
O787   Zn791   1.980   .     S
O788   Zn792   1.959   .     S
O789   Zn791   1.984   .     S
O790   Zn792   1.986   .     S
