data_str_m3_o1_o18_pcu_sym.167
_audit_creation_date              2020-01-03
_audit_creation_method            'Materials Studio'
_symmetry_space_group_name_H-M    'P1'
_symmetry_Int_Tables_number       1
_symmetry_cell_setting            triclinic
loop_
_symmetry_equiv_pos_as_xyz
  x,y,z
_cell_length_a                    29.9837
_cell_length_b                    32.1724
_cell_length_c                    30.7519
_cell_angle_alpha                 89.0798
_cell_angle_beta                  69.6268
_cell_angle_gamma                 88.2396
loop_
_atom_site_label
_atom_site_type_symbol
_atom_site_fract_x
_atom_site_fract_y
_atom_site_fract_z
_atom_site_U_iso_or_equiv
_atom_site_adp_type
_atom_site_occupancy
C1     C     0.16628   0.24656   0.24917   0.00000  Uiso   1.00
C2     C     0.16717   0.08680   0.25056   0.00000  Uiso   1.00
C3     C     0.10862   0.12243   0.05231   0.00000  Uiso   1.00
C4     C     0.21648   0.11024   0.45563   0.00000  Uiso   1.00
C5     C     0.07701   0.11702   0.02844   0.00000  Uiso   1.00
C6     C     0.24815   0.10414   0.47972   0.00000  Uiso   1.00
C7     C     0.19602   0.30984   0.26774   0.00000  Uiso   1.00
C8     C     0.13797   0.02360   0.23123   0.00000  Uiso   1.00
C9     C     0.19833   0.01896   0.26791   0.00000  Uiso   1.00
C10    C     0.13587   0.31448   0.23079   0.00000  Uiso   1.00
C11    C     0.16847   0.04259   0.24993   0.00000  Uiso   1.00
C12    C     0.16532   0.29082   0.24927   0.00000  Uiso   1.00
C13    C     0.32064   0.13928   0.22325   0.00000  Uiso   1.00
C14    C     0.01275   0.19380   0.27705   0.00000  Uiso   1.00
C15    C     0.03473   0.13966   0.22319   0.00000  Uiso   1.00
C16    C     0.29903   0.19432   0.27596   0.00000  Uiso   1.00
C17    C     0.13712   0.16605   0.33804   0.00000  Uiso   1.00
C18    C     0.19609   0.16673   0.16206   0.00000  Uiso   1.00
C19    C     0.12003   0.15791   0.38843   0.00000  Uiso   1.00
C20    C     0.21267   0.15837   0.11211   0.00000  Uiso   1.00
C21    C     0.05799   0.13290   0.45764   0.00000  Uiso   1.00
C22    C     0.26811   0.12005   0.04794   0.00000  Uiso   1.00
C23    C     0.07297   0.14565   0.41129   0.00000  Uiso   1.00
C24    C     0.25699   0.13850   0.09106   0.00000  Uiso   1.00
C25    C     0.15191   0.15695   0.41297   0.00000  Uiso   1.00
C26    C     0.18052   0.16136   0.08796   0.00000  Uiso   1.00
C27    C     0.13842   0.13790   0.45682   0.00000  Uiso   1.00
C28    C     0.19037   0.13873   0.04686   0.00000  Uiso   1.00
C29    C     0.09040   0.12912   0.48116   0.00000  Uiso   1.00
C30    C     0.23611   0.12116   0.02455   0.00000  Uiso   1.00
C31    C     0.17146   0.12935   0.47862   0.00000  Uiso   1.00
C32    C     0.15601   0.13297   0.02669   0.00000  Uiso   1.00
H33    H     0.28254   0.13603   0.10842   0.00000  Uiso   1.00
H34    H     0.04747   0.14624   0.39352   0.00000  Uiso   1.00
H35    H     0.02125   0.12624   0.47453   0.00000  Uiso   1.00
H36    H     0.30031   0.10259   0.03367   0.00000  Uiso   1.00
H37    H     0.21835   0.29162   0.28247   0.00000  Uiso   1.00
H38    H     0.11575   0.04188   0.21641   0.00000  Uiso   1.00
H39    H     0.06124   0.11796   0.20174   0.00000  Uiso   1.00
H40    H     0.27307   0.21693   0.29623   0.00000  Uiso   1.00
N41    N     0.04759   0.16668   0.25001   0.00000  Uiso   1.00
N42    N     0.28574   0.16666   0.24999   0.00000  Uiso   1.00
O43    O     0.12846   0.22775   0.25001   0.00000  Uiso   1.00
O44    O     0.20488   0.10558   0.24999   0.00000  Uiso   1.00
O45    O     0.20490   0.22774   0.25000   0.00000  Uiso   1.00
O46    O     0.12843   0.10559   0.25000   0.00000  Uiso   1.00
O47    O     0.10661   0.16667   0.31612   0.00000  Uiso   1.00
O48    O     0.22672   0.16666   0.18387   0.00000  Uiso   1.00
O49    O     0.18305   0.16666   0.31612   0.00000  Uiso   1.00
O50    O     0.15028   0.16667   0.18388   0.00000  Uiso   1.00
Zn51   Zn    0.11562   0.16667   0.25000   0.00000  Uiso   1.00
Zn52   Zn    0.21771   0.16666   0.25000   0.00000  Uiso   1.00
O53    O     0.03385   0.09980   0.05206   0.00000  Uiso   1.00
C54    C     0.03777   0.05671   0.04282   0.00000  Uiso   1.00
H55    H     0.06599   0.04117   0.05349   0.00000  Uiso   1.00
H56    H     0.04443   0.05066   0.00552   0.00000  Uiso   1.00
H57    H     0.00360   0.04233   0.06327   0.00000  Uiso   1.00
O58    O     0.29193   0.08481   0.45773   0.00000  Uiso   1.00
C59    C     0.28903   0.04240   0.47054   0.00000  Uiso   1.00
H60    H     0.26414   0.02613   0.45745   0.00000  Uiso   1.00
H61    H     0.27826   0.03806   0.00875   0.00000  Uiso   1.00
H62    H     0.32475   0.02744   0.45455   0.00000  Uiso   1.00
I63    I     0.12402   0.20758   0.10603   0.00000  Uiso   1.00
I64    I     0.21281   0.19586   0.39342   0.00000  Uiso   1.00
O65    O     0.09337   0.11355   0.09947   0.00000  Uiso   1.00
C66    C     0.11579   0.07651   0.10808   0.00000  Uiso   1.00
H67    H     0.14295   0.08424   0.12342   0.00000  Uiso   1.00
H68    H     0.13281   0.05658   0.07699   0.00000  Uiso   1.00
H69    H     0.08868   0.05763   0.13405   0.00000  Uiso   1.00
O70    O     0.22708   0.09186   0.41271   0.00000  Uiso   1.00
C71    C     0.19853   0.05655   0.41728   0.00000  Uiso   1.00
H72    H     0.17169   0.06314   0.40052   0.00000  Uiso   1.00
H73    H     0.17968   0.04589   0.45368   0.00000  Uiso   1.00
H74    H     0.22160   0.03000   0.39926   0.00000  Uiso   1.00
I75    I     0.24732   0.04218   0.29714   0.00000  Uiso   1.00
I76    I     0.08834   0.29150   0.19974   0.00000  Uiso   1.00
I77    I     0.30821   0.09458   0.17964   0.00000  Uiso   1.00
I78    I     0.02511   0.23534   0.32399   0.00000  Uiso   1.00
C79    C     0.49961   0.24656   0.24917   0.00000  Uiso   1.00
C80    C     0.50050   0.08680   0.25056   0.00000  Uiso   1.00
C81    C     0.44195   0.12243   0.05231   0.00000  Uiso   1.00
C82    C     0.54982   0.11024   0.45563   0.00000  Uiso   1.00
C83    C     0.41034   0.11702   0.02844   0.00000  Uiso   1.00
C84    C     0.58149   0.10414   0.47972   0.00000  Uiso   1.00
C85    C     0.52936   0.30984   0.26774   0.00000  Uiso   1.00
C86    C     0.47130   0.02360   0.23123   0.00000  Uiso   1.00
C87    C     0.53167   0.01896   0.26791   0.00000  Uiso   1.00
C88    C     0.46920   0.31448   0.23079   0.00000  Uiso   1.00
C89    C     0.50181   0.04259   0.24993   0.00000  Uiso   1.00
C90    C     0.49865   0.29082   0.24927   0.00000  Uiso   1.00
C91    C     0.65398   0.13928   0.22325   0.00000  Uiso   1.00
C92    C     0.34609   0.19380   0.27705   0.00000  Uiso   1.00
C93    C     0.36806   0.13966   0.22319   0.00000  Uiso   1.00
C94    C     0.63237   0.19432   0.27596   0.00000  Uiso   1.00
C95    C     0.47046   0.16605   0.33804   0.00000  Uiso   1.00
C96    C     0.52943   0.16673   0.16206   0.00000  Uiso   1.00
C97    C     0.45336   0.15791   0.38843   0.00000  Uiso   1.00
C98    C     0.54600   0.15837   0.11211   0.00000  Uiso   1.00
C99    C     0.39132   0.13290   0.45764   0.00000  Uiso   1.00
C100   C     0.60144   0.12005   0.04794   0.00000  Uiso   1.00
C101   C     0.40631   0.14565   0.41129   0.00000  Uiso   1.00
C102   C     0.59032   0.13850   0.09106   0.00000  Uiso   1.00
C103   C     0.48524   0.15695   0.41297   0.00000  Uiso   1.00
C104   C     0.51385   0.16136   0.08796   0.00000  Uiso   1.00
C105   C     0.47175   0.13790   0.45682   0.00000  Uiso   1.00
C106   C     0.52370   0.13873   0.04686   0.00000  Uiso   1.00
C107   C     0.42374   0.12912   0.48116   0.00000  Uiso   1.00
C108   C     0.56944   0.12116   0.02455   0.00000  Uiso   1.00
C109   C     0.50479   0.12935   0.47862   0.00000  Uiso   1.00
C110   C     0.48935   0.13297   0.02669   0.00000  Uiso   1.00
H111   H     0.61587   0.13603   0.10842   0.00000  Uiso   1.00
H112   H     0.38080   0.14624   0.39352   0.00000  Uiso   1.00
H113   H     0.35458   0.12624   0.47453   0.00000  Uiso   1.00
H114   H     0.63365   0.10259   0.03367   0.00000  Uiso   1.00
H115   H     0.55169   0.29162   0.28247   0.00000  Uiso   1.00
H116   H     0.44908   0.04188   0.21641   0.00000  Uiso   1.00
H117   H     0.39458   0.11796   0.20174   0.00000  Uiso   1.00
H118   H     0.60641   0.21693   0.29623   0.00000  Uiso   1.00
N119   N     0.38093   0.16668   0.25001   0.00000  Uiso   1.00
N120   N     0.61907   0.16666   0.24999   0.00000  Uiso   1.00
O121   O     0.46179   0.22775   0.25001   0.00000  Uiso   1.00
O122   O     0.53821   0.10558   0.24999   0.00000  Uiso   1.00
O123   O     0.53823   0.22774   0.25000   0.00000  Uiso   1.00
O124   O     0.46177   0.10559   0.25000   0.00000  Uiso   1.00
O125   O     0.43994   0.16667   0.31612   0.00000  Uiso   1.00
O126   O     0.56006   0.16666   0.18387   0.00000  Uiso   1.00
O127   O     0.51639   0.16666   0.31612   0.00000  Uiso   1.00
O128   O     0.48361   0.16667   0.18388   0.00000  Uiso   1.00
Zn129  Zn    0.44896   0.16667   0.25000   0.00000  Uiso   1.00
Zn130  Zn    0.55104   0.16666   0.25000   0.00000  Uiso   1.00
O131   O     0.36718   0.09980   0.05206   0.00000  Uiso   1.00
C132   C     0.37111   0.05671   0.04282   0.00000  Uiso   1.00
H133   H     0.39932   0.04117   0.05349   0.00000  Uiso   1.00
H134   H     0.37776   0.05066   0.00552   0.00000  Uiso   1.00
H135   H     0.33693   0.04233   0.06327   0.00000  Uiso   1.00
O136   O     0.62527   0.08481   0.45773   0.00000  Uiso   1.00
C137   C     0.62236   0.04240   0.47054   0.00000  Uiso   1.00
H138   H     0.59747   0.02613   0.45745   0.00000  Uiso   1.00
H139   H     0.61160   0.03806   0.00875   0.00000  Uiso   1.00
H140   H     0.65809   0.02744   0.45455   0.00000  Uiso   1.00
I141   I     0.45735   0.20758   0.10603   0.00000  Uiso   1.00
I142   I     0.54614   0.19586   0.39342   0.00000  Uiso   1.00
O143   O     0.42670   0.11355   0.09947   0.00000  Uiso   1.00
C144   C     0.44913   0.07651   0.10808   0.00000  Uiso   1.00
H145   H     0.47628   0.08424   0.12342   0.00000  Uiso   1.00
H146   H     0.46614   0.05658   0.07699   0.00000  Uiso   1.00
H147   H     0.42201   0.05763   0.13405   0.00000  Uiso   1.00
O148   O     0.56042   0.09186   0.41271   0.00000  Uiso   1.00
C149   C     0.53186   0.05655   0.41728   0.00000  Uiso   1.00
H150   H     0.50503   0.06314   0.40052   0.00000  Uiso   1.00
H151   H     0.51301   0.04589   0.45368   0.00000  Uiso   1.00
H152   H     0.55494   0.03000   0.39926   0.00000  Uiso   1.00
I153   I     0.58065   0.04218   0.29714   0.00000  Uiso   1.00
I154   I     0.42167   0.29150   0.19974   0.00000  Uiso   1.00
I155   I     0.64155   0.09458   0.17964   0.00000  Uiso   1.00
I156   I     0.35844   0.23534   0.32399   0.00000  Uiso   1.00
C157   C     0.83295   0.24656   0.24917   0.00000  Uiso   1.00
C158   C     0.83383   0.08680   0.25056   0.00000  Uiso   1.00
C159   C     0.77528   0.12243   0.05231   0.00000  Uiso   1.00
C160   C     0.88315   0.11024   0.45563   0.00000  Uiso   1.00
C161   C     0.74367   0.11702   0.02844   0.00000  Uiso   1.00
C162   C     0.91482   0.10414   0.47972   0.00000  Uiso   1.00
C163   C     0.86269   0.30984   0.26774   0.00000  Uiso   1.00
C164   C     0.80463   0.02360   0.23123   0.00000  Uiso   1.00
C165   C     0.86500   0.01896   0.26791   0.00000  Uiso   1.00
C166   C     0.80253   0.31448   0.23079   0.00000  Uiso   1.00
C167   C     0.83514   0.04259   0.24993   0.00000  Uiso   1.00
C168   C     0.83199   0.29082   0.24927   0.00000  Uiso   1.00
C169   C     0.98731   0.13928   0.22325   0.00000  Uiso   1.00
C170   C     0.67942   0.19380   0.27705   0.00000  Uiso   1.00
C171   C     0.70140   0.13966   0.22319   0.00000  Uiso   1.00
C172   C     0.96570   0.19432   0.27596   0.00000  Uiso   1.00
C173   C     0.80379   0.16605   0.33804   0.00000  Uiso   1.00
C174   C     0.86276   0.16673   0.16206   0.00000  Uiso   1.00
C175   C     0.78670   0.15791   0.38843   0.00000  Uiso   1.00
C176   C     0.87934   0.15837   0.11211   0.00000  Uiso   1.00
C177   C     0.72465   0.13290   0.45764   0.00000  Uiso   1.00
C178   C     0.93478   0.12005   0.04794   0.00000  Uiso   1.00
C179   C     0.73964   0.14565   0.41129   0.00000  Uiso   1.00
C180   C     0.92366   0.13850   0.09106   0.00000  Uiso   1.00
C181   C     0.81858   0.15695   0.41297   0.00000  Uiso   1.00
C182   C     0.84718   0.16136   0.08796   0.00000  Uiso   1.00
C183   C     0.80509   0.13790   0.45682   0.00000  Uiso   1.00
C184   C     0.85703   0.13873   0.04686   0.00000  Uiso   1.00
C185   C     0.75707   0.12912   0.48116   0.00000  Uiso   1.00
C186   C     0.90277   0.12116   0.02455   0.00000  Uiso   1.00
C187   C     0.83812   0.12935   0.47862   0.00000  Uiso   1.00
C188   C     0.82268   0.13297   0.02669   0.00000  Uiso   1.00
H189   H     0.94921   0.13603   0.10842   0.00000  Uiso   1.00
H190   H     0.71414   0.14624   0.39352   0.00000  Uiso   1.00
H191   H     0.68791   0.12624   0.47453   0.00000  Uiso   1.00
H192   H     0.96698   0.10259   0.03367   0.00000  Uiso   1.00
H193   H     0.88502   0.29162   0.28247   0.00000  Uiso   1.00
H194   H     0.78242   0.04188   0.21641   0.00000  Uiso   1.00
H195   H     0.72791   0.11796   0.20174   0.00000  Uiso   1.00
H196   H     0.93974   0.21693   0.29623   0.00000  Uiso   1.00
N197   N     0.71426   0.16668   0.25001   0.00000  Uiso   1.00
N198   N     0.95241   0.16666   0.24999   0.00000  Uiso   1.00
O199   O     0.79512   0.22775   0.25001   0.00000  Uiso   1.00
O200   O     0.87154   0.10558   0.24999   0.00000  Uiso   1.00
O201   O     0.87157   0.22774   0.25000   0.00000  Uiso   1.00
O202   O     0.79510   0.10559   0.25000   0.00000  Uiso   1.00
O203   O     0.77328   0.16667   0.31612   0.00000  Uiso   1.00
O204   O     0.89339   0.16666   0.18387   0.00000  Uiso   1.00
O205   O     0.84972   0.16666   0.31612   0.00000  Uiso   1.00
O206   O     0.81695   0.16667   0.18388   0.00000  Uiso   1.00
Zn207  Zn    0.78229   0.16667   0.25000   0.00000  Uiso   1.00
Zn208  Zn    0.88438   0.16666   0.25000   0.00000  Uiso   1.00
O209   O     0.70052   0.09980   0.05206   0.00000  Uiso   1.00
C210   C     0.70444   0.05671   0.04282   0.00000  Uiso   1.00
H211   H     0.73266   0.04117   0.05349   0.00000  Uiso   1.00
H212   H     0.71110   0.05066   0.00552   0.00000  Uiso   1.00
H213   H     0.67026   0.04233   0.06327   0.00000  Uiso   1.00
O214   O     0.95860   0.08481   0.45773   0.00000  Uiso   1.00
C215   C     0.95569   0.04240   0.47054   0.00000  Uiso   1.00
H216   H     0.93081   0.02613   0.45745   0.00000  Uiso   1.00
H217   H     0.94493   0.03806   0.00875   0.00000  Uiso   1.00
H218   H     0.99142   0.02744   0.45455   0.00000  Uiso   1.00
I219   I     0.79069   0.20758   0.10603   0.00000  Uiso   1.00
I220   I     0.87948   0.19586   0.39342   0.00000  Uiso   1.00
O221   O     0.76003   0.11355   0.09947   0.00000  Uiso   1.00
C222   C     0.78246   0.07651   0.10808   0.00000  Uiso   1.00
H223   H     0.80961   0.08424   0.12342   0.00000  Uiso   1.00
H224   H     0.79947   0.05658   0.07699   0.00000  Uiso   1.00
H225   H     0.75535   0.05763   0.13405   0.00000  Uiso   1.00
O226   O     0.89375   0.09186   0.41271   0.00000  Uiso   1.00
C227   C     0.86520   0.05655   0.41728   0.00000  Uiso   1.00
H228   H     0.83836   0.06314   0.40052   0.00000  Uiso   1.00
H229   H     0.84635   0.04589   0.45368   0.00000  Uiso   1.00
H230   H     0.88827   0.03000   0.39926   0.00000  Uiso   1.00
I231   I     0.91399   0.04218   0.29714   0.00000  Uiso   1.00
I232   I     0.75500   0.29150   0.19974   0.00000  Uiso   1.00
I233   I     0.97488   0.09458   0.17964   0.00000  Uiso   1.00
I234   I     0.69177   0.23534   0.32399   0.00000  Uiso   1.00
C235   C     0.16628   0.57989   0.24917   0.00000  Uiso   1.00
C236   C     0.16717   0.42013   0.25056   0.00000  Uiso   1.00
C237   C     0.10862   0.45576   0.05231   0.00000  Uiso   1.00
C238   C     0.21648   0.44357   0.45563   0.00000  Uiso   1.00
C239   C     0.07701   0.45035   0.02844   0.00000  Uiso   1.00
C240   C     0.24815   0.43747   0.47972   0.00000  Uiso   1.00
C241   C     0.19602   0.64317   0.26774   0.00000  Uiso   1.00
C242   C     0.13797   0.35694   0.23123   0.00000  Uiso   1.00
C243   C     0.19833   0.35229   0.26791   0.00000  Uiso   1.00
C244   C     0.13587   0.64781   0.23079   0.00000  Uiso   1.00
C245   C     0.16847   0.37592   0.24993   0.00000  Uiso   1.00
C246   C     0.16532   0.62415   0.24927   0.00000  Uiso   1.00
C247   C     0.32064   0.47262   0.22325   0.00000  Uiso   1.00
C248   C     0.01275   0.52713   0.27705   0.00000  Uiso   1.00
C249   C     0.03473   0.47299   0.22319   0.00000  Uiso   1.00
C250   C     0.29903   0.52766   0.27596   0.00000  Uiso   1.00
C251   C     0.13712   0.49939   0.33804   0.00000  Uiso   1.00
C252   C     0.19609   0.50006   0.16206   0.00000  Uiso   1.00
C253   C     0.12003   0.49125   0.38843   0.00000  Uiso   1.00
C254   C     0.21267   0.49170   0.11211   0.00000  Uiso   1.00
C255   C     0.05799   0.46623   0.45764   0.00000  Uiso   1.00
C256   C     0.26811   0.45338   0.04794   0.00000  Uiso   1.00
C257   C     0.07297   0.47899   0.41129   0.00000  Uiso   1.00
C258   C     0.25699   0.47184   0.09106   0.00000  Uiso   1.00
C259   C     0.15191   0.49028   0.41297   0.00000  Uiso   1.00
C260   C     0.18052   0.49470   0.08796   0.00000  Uiso   1.00
C261   C     0.13842   0.47124   0.45682   0.00000  Uiso   1.00
C262   C     0.19037   0.47207   0.04686   0.00000  Uiso   1.00
C263   C     0.09040   0.46245   0.48116   0.00000  Uiso   1.00
C264   C     0.23611   0.45449   0.02455   0.00000  Uiso   1.00
C265   C     0.17146   0.46269   0.47862   0.00000  Uiso   1.00
C266   C     0.15601   0.46630   0.02669   0.00000  Uiso   1.00
H267   H     0.28254   0.46937   0.10842   0.00000  Uiso   1.00
H268   H     0.04747   0.47957   0.39352   0.00000  Uiso   1.00
H269   H     0.02125   0.45958   0.47453   0.00000  Uiso   1.00
H270   H     0.30031   0.43592   0.03367   0.00000  Uiso   1.00
H271   H     0.21835   0.62495   0.28247   0.00000  Uiso   1.00
H272   H     0.11575   0.37521   0.21641   0.00000  Uiso   1.00
H273   H     0.06124   0.45130   0.20174   0.00000  Uiso   1.00
H274   H     0.27307   0.55027   0.29623   0.00000  Uiso   1.00
N275   N     0.04759   0.50001   0.25001   0.00000  Uiso   1.00
N276   N     0.28574   0.49999   0.24999   0.00000  Uiso   1.00
O277   O     0.12846   0.56108   0.25001   0.00000  Uiso   1.00
O278   O     0.20488   0.43892   0.24999   0.00000  Uiso   1.00
O279   O     0.20490   0.56107   0.25000   0.00000  Uiso   1.00
O280   O     0.12843   0.43893   0.25000   0.00000  Uiso   1.00
O281   O     0.10661   0.50001   0.31612   0.00000  Uiso   1.00
O282   O     0.22672   0.49999   0.18387   0.00000  Uiso   1.00
O283   O     0.18305   0.50000   0.31612   0.00000  Uiso   1.00
O284   O     0.15028   0.50000   0.18388   0.00000  Uiso   1.00
Zn285  Zn    0.11562   0.50001   0.25000   0.00000  Uiso   1.00
Zn286  Zn    0.21771   0.49999   0.25000   0.00000  Uiso   1.00
O287   O     0.03385   0.43313   0.05206   0.00000  Uiso   1.00
C288   C     0.03777   0.39004   0.04282   0.00000  Uiso   1.00
H289   H     0.06599   0.37450   0.05349   0.00000  Uiso   1.00
H290   H     0.04443   0.38399   0.00552   0.00000  Uiso   1.00
H291   H     0.00360   0.37566   0.06327   0.00000  Uiso   1.00
O292   O     0.29193   0.41814   0.45773   0.00000  Uiso   1.00
C293   C     0.28903   0.37574   0.47054   0.00000  Uiso   1.00
H294   H     0.26414   0.35946   0.45745   0.00000  Uiso   1.00
H295   H     0.27826   0.37139   0.00875   0.00000  Uiso   1.00
H296   H     0.32475   0.36077   0.45455   0.00000  Uiso   1.00
I297   I     0.12402   0.54091   0.10603   0.00000  Uiso   1.00
I298   I     0.21281   0.52919   0.39342   0.00000  Uiso   1.00
O299   O     0.09337   0.44688   0.09947   0.00000  Uiso   1.00
C300   C     0.11579   0.40984   0.10808   0.00000  Uiso   1.00
H301   H     0.14295   0.41757   0.12342   0.00000  Uiso   1.00
H302   H     0.13281   0.38992   0.07699   0.00000  Uiso   1.00
H303   H     0.08868   0.39097   0.13405   0.00000  Uiso   1.00
O304   O     0.22708   0.42519   0.41271   0.00000  Uiso   1.00
C305   C     0.19853   0.38989   0.41728   0.00000  Uiso   1.00
H306   H     0.17169   0.39647   0.40052   0.00000  Uiso   1.00
H307   H     0.17968   0.37923   0.45368   0.00000  Uiso   1.00
H308   H     0.22160   0.36333   0.39926   0.00000  Uiso   1.00
I309   I     0.24732   0.37552   0.29714   0.00000  Uiso   1.00
I310   I     0.08834   0.62483   0.19974   0.00000  Uiso   1.00
I311   I     0.30821   0.42791   0.17964   0.00000  Uiso   1.00
I312   I     0.02511   0.56867   0.32399   0.00000  Uiso   1.00
C313   C     0.49961   0.57989   0.24917   0.00000  Uiso   1.00
C314   C     0.50050   0.42013   0.25056   0.00000  Uiso   1.00
C315   C     0.44195   0.45576   0.05231   0.00000  Uiso   1.00
C316   C     0.54982   0.44357   0.45563   0.00000  Uiso   1.00
C317   C     0.41034   0.45035   0.02844   0.00000  Uiso   1.00
C318   C     0.58149   0.43747   0.47972   0.00000  Uiso   1.00
C319   C     0.52936   0.64317   0.26774   0.00000  Uiso   1.00
C320   C     0.47130   0.35694   0.23123   0.00000  Uiso   1.00
C321   C     0.53167   0.35229   0.26791   0.00000  Uiso   1.00
C322   C     0.46920   0.64781   0.23079   0.00000  Uiso   1.00
C323   C     0.50181   0.37592   0.24993   0.00000  Uiso   1.00
C324   C     0.49865   0.62415   0.24927   0.00000  Uiso   1.00
C325   C     0.65398   0.47262   0.22325   0.00000  Uiso   1.00
C326   C     0.34609   0.52713   0.27705   0.00000  Uiso   1.00
C327   C     0.36806   0.47299   0.22319   0.00000  Uiso   1.00
C328   C     0.63237   0.52766   0.27596   0.00000  Uiso   1.00
C329   C     0.47046   0.49939   0.33804   0.00000  Uiso   1.00
C330   C     0.52943   0.50006   0.16206   0.00000  Uiso   1.00
C331   C     0.45336   0.49125   0.38843   0.00000  Uiso   1.00
C332   C     0.54600   0.49170   0.11211   0.00000  Uiso   1.00
C333   C     0.39132   0.46623   0.45764   0.00000  Uiso   1.00
C334   C     0.60144   0.45338   0.04794   0.00000  Uiso   1.00
C335   C     0.40631   0.47899   0.41129   0.00000  Uiso   1.00
C336   C     0.59032   0.47184   0.09106   0.00000  Uiso   1.00
C337   C     0.48524   0.49028   0.41297   0.00000  Uiso   1.00
C338   C     0.51385   0.49470   0.08796   0.00000  Uiso   1.00
C339   C     0.47175   0.47124   0.45682   0.00000  Uiso   1.00
C340   C     0.52370   0.47207   0.04686   0.00000  Uiso   1.00
C341   C     0.42374   0.46245   0.48116   0.00000  Uiso   1.00
C342   C     0.56944   0.45449   0.02455   0.00000  Uiso   1.00
C343   C     0.50479   0.46269   0.47862   0.00000  Uiso   1.00
C344   C     0.48935   0.46630   0.02669   0.00000  Uiso   1.00
H345   H     0.61587   0.46937   0.10842   0.00000  Uiso   1.00
H346   H     0.38080   0.47957   0.39352   0.00000  Uiso   1.00
H347   H     0.35458   0.45958   0.47453   0.00000  Uiso   1.00
H348   H     0.63365   0.43592   0.03367   0.00000  Uiso   1.00
H349   H     0.55169   0.62495   0.28247   0.00000  Uiso   1.00
H350   H     0.44908   0.37521   0.21641   0.00000  Uiso   1.00
H351   H     0.39458   0.45130   0.20174   0.00000  Uiso   1.00
H352   H     0.60641   0.55027   0.29623   0.00000  Uiso   1.00
N353   N     0.38093   0.50001   0.25001   0.00000  Uiso   1.00
N354   N     0.61907   0.49999   0.24999   0.00000  Uiso   1.00
O355   O     0.46179   0.56108   0.25001   0.00000  Uiso   1.00
O356   O     0.53821   0.43892   0.24999   0.00000  Uiso   1.00
O357   O     0.53823   0.56107   0.25000   0.00000  Uiso   1.00
O358   O     0.46177   0.43893   0.25000   0.00000  Uiso   1.00
O359   O     0.43994   0.50001   0.31612   0.00000  Uiso   1.00
O360   O     0.56006   0.49999   0.18387   0.00000  Uiso   1.00
O361   O     0.51639   0.50000   0.31612   0.00000  Uiso   1.00
O362   O     0.48361   0.50000   0.18388   0.00000  Uiso   1.00
Zn363  Zn    0.44896   0.50001   0.25000   0.00000  Uiso   1.00
Zn364  Zn    0.55104   0.49999   0.25000   0.00000  Uiso   1.00
O365   O     0.36718   0.43313   0.05206   0.00000  Uiso   1.00
C366   C     0.37111   0.39004   0.04282   0.00000  Uiso   1.00
H367   H     0.39932   0.37450   0.05349   0.00000  Uiso   1.00
H368   H     0.37776   0.38399   0.00552   0.00000  Uiso   1.00
H369   H     0.33693   0.37566   0.06327   0.00000  Uiso   1.00
O370   O     0.62527   0.41814   0.45773   0.00000  Uiso   1.00
C371   C     0.62236   0.37574   0.47054   0.00000  Uiso   1.00
H372   H     0.59747   0.35946   0.45745   0.00000  Uiso   1.00
H373   H     0.61160   0.37139   0.00875   0.00000  Uiso   1.00
H374   H     0.65809   0.36077   0.45455   0.00000  Uiso   1.00
I375   I     0.45735   0.54091   0.10603   0.00000  Uiso   1.00
I376   I     0.54614   0.52919   0.39342   0.00000  Uiso   1.00
O377   O     0.42670   0.44688   0.09947   0.00000  Uiso   1.00
C378   C     0.44913   0.40984   0.10808   0.00000  Uiso   1.00
H379   H     0.47628   0.41757   0.12342   0.00000  Uiso   1.00
H380   H     0.46614   0.38992   0.07699   0.00000  Uiso   1.00
H381   H     0.42201   0.39097   0.13405   0.00000  Uiso   1.00
O382   O     0.56042   0.42519   0.41271   0.00000  Uiso   1.00
C383   C     0.53186   0.38989   0.41728   0.00000  Uiso   1.00
H384   H     0.50503   0.39647   0.40052   0.00000  Uiso   1.00
H385   H     0.51301   0.37923   0.45368   0.00000  Uiso   1.00
H386   H     0.55494   0.36333   0.39926   0.00000  Uiso   1.00
I387   I     0.58065   0.37552   0.29714   0.00000  Uiso   1.00
I388   I     0.42167   0.62483   0.19974   0.00000  Uiso   1.00
I389   I     0.64155   0.42791   0.17964   0.00000  Uiso   1.00
I390   I     0.35844   0.56867   0.32399   0.00000  Uiso   1.00
C391   C     0.83295   0.57989   0.24917   0.00000  Uiso   1.00
C392   C     0.83383   0.42013   0.25056   0.00000  Uiso   1.00
C393   C     0.77528   0.45576   0.05231   0.00000  Uiso   1.00
C394   C     0.88315   0.44357   0.45563   0.00000  Uiso   1.00
C395   C     0.74367   0.45035   0.02844   0.00000  Uiso   1.00
C396   C     0.91482   0.43747   0.47972   0.00000  Uiso   1.00
C397   C     0.86269   0.64317   0.26774   0.00000  Uiso   1.00
C398   C     0.80463   0.35694   0.23123   0.00000  Uiso   1.00
C399   C     0.86500   0.35229   0.26791   0.00000  Uiso   1.00
C400   C     0.80253   0.64781   0.23079   0.00000  Uiso   1.00
C401   C     0.83514   0.37592   0.24993   0.00000  Uiso   1.00
C402   C     0.83199   0.62415   0.24927   0.00000  Uiso   1.00
C403   C     0.98731   0.47262   0.22325   0.00000  Uiso   1.00
C404   C     0.67942   0.52713   0.27705   0.00000  Uiso   1.00
C405   C     0.70140   0.47299   0.22319   0.00000  Uiso   1.00
C406   C     0.96570   0.52766   0.27596   0.00000  Uiso   1.00
C407   C     0.80379   0.49939   0.33804   0.00000  Uiso   1.00
C408   C     0.86276   0.50006   0.16206   0.00000  Uiso   1.00
C409   C     0.78670   0.49125   0.38843   0.00000  Uiso   1.00
C410   C     0.87934   0.49170   0.11211   0.00000  Uiso   1.00
C411   C     0.72465   0.46623   0.45764   0.00000  Uiso   1.00
C412   C     0.93478   0.45338   0.04794   0.00000  Uiso   1.00
C413   C     0.73964   0.47899   0.41129   0.00000  Uiso   1.00
C414   C     0.92366   0.47184   0.09106   0.00000  Uiso   1.00
C415   C     0.81858   0.49028   0.41297   0.00000  Uiso   1.00
C416   C     0.84718   0.49470   0.08796   0.00000  Uiso   1.00
C417   C     0.80509   0.47124   0.45682   0.00000  Uiso   1.00
C418   C     0.85703   0.47207   0.04686   0.00000  Uiso   1.00
C419   C     0.75707   0.46245   0.48116   0.00000  Uiso   1.00
C420   C     0.90277   0.45449   0.02455   0.00000  Uiso   1.00
C421   C     0.83812   0.46269   0.47862   0.00000  Uiso   1.00
C422   C     0.82268   0.46630   0.02669   0.00000  Uiso   1.00
H423   H     0.94921   0.46937   0.10842   0.00000  Uiso   1.00
H424   H     0.71414   0.47957   0.39352   0.00000  Uiso   1.00
H425   H     0.68791   0.45958   0.47453   0.00000  Uiso   1.00
H426   H     0.96698   0.43592   0.03367   0.00000  Uiso   1.00
H427   H     0.88502   0.62495   0.28247   0.00000  Uiso   1.00
H428   H     0.78242   0.37521   0.21641   0.00000  Uiso   1.00
H429   H     0.72791   0.45130   0.20174   0.00000  Uiso   1.00
H430   H     0.93974   0.55027   0.29623   0.00000  Uiso   1.00
N431   N     0.71426   0.50001   0.25001   0.00000  Uiso   1.00
N432   N     0.95241   0.49999   0.24999   0.00000  Uiso   1.00
O433   O     0.79512   0.56108   0.25001   0.00000  Uiso   1.00
O434   O     0.87154   0.43892   0.24999   0.00000  Uiso   1.00
O435   O     0.87157   0.56107   0.25000   0.00000  Uiso   1.00
O436   O     0.79510   0.43893   0.25000   0.00000  Uiso   1.00
O437   O     0.77328   0.50001   0.31612   0.00000  Uiso   1.00
O438   O     0.89339   0.49999   0.18387   0.00000  Uiso   1.00
O439   O     0.84972   0.50000   0.31612   0.00000  Uiso   1.00
O440   O     0.81695   0.50000   0.18388   0.00000  Uiso   1.00
Zn441  Zn    0.78229   0.50001   0.25000   0.00000  Uiso   1.00
Zn442  Zn    0.88438   0.49999   0.25000   0.00000  Uiso   1.00
O443   O     0.70052   0.43313   0.05206   0.00000  Uiso   1.00
C444   C     0.70444   0.39004   0.04282   0.00000  Uiso   1.00
H445   H     0.73266   0.37450   0.05349   0.00000  Uiso   1.00
H446   H     0.71110   0.38399   0.00552   0.00000  Uiso   1.00
H447   H     0.67026   0.37566   0.06327   0.00000  Uiso   1.00
O448   O     0.95860   0.41814   0.45773   0.00000  Uiso   1.00
C449   C     0.95569   0.37574   0.47054   0.00000  Uiso   1.00
H450   H     0.93081   0.35946   0.45745   0.00000  Uiso   1.00
H451   H     0.94493   0.37139   0.00875   0.00000  Uiso   1.00
H452   H     0.99142   0.36077   0.45455   0.00000  Uiso   1.00
I453   I     0.79069   0.54091   0.10603   0.00000  Uiso   1.00
I454   I     0.87948   0.52919   0.39342   0.00000  Uiso   1.00
O455   O     0.76003   0.44688   0.09947   0.00000  Uiso   1.00
C456   C     0.78246   0.40984   0.10808   0.00000  Uiso   1.00
H457   H     0.80961   0.41757   0.12342   0.00000  Uiso   1.00
H458   H     0.79947   0.38992   0.07699   0.00000  Uiso   1.00
H459   H     0.75535   0.39097   0.13405   0.00000  Uiso   1.00
O460   O     0.89375   0.42519   0.41271   0.00000  Uiso   1.00
C461   C     0.86520   0.38989   0.41728   0.00000  Uiso   1.00
H462   H     0.83836   0.39647   0.40052   0.00000  Uiso   1.00
H463   H     0.84635   0.37923   0.45368   0.00000  Uiso   1.00
H464   H     0.88827   0.36333   0.39926   0.00000  Uiso   1.00
I465   I     0.91399   0.37552   0.29714   0.00000  Uiso   1.00
I466   I     0.75500   0.62483   0.19974   0.00000  Uiso   1.00
I467   I     0.97488   0.42791   0.17964   0.00000  Uiso   1.00
I468   I     0.69177   0.56867   0.32399   0.00000  Uiso   1.00
C469   C     0.16628   0.91322   0.24917   0.00000  Uiso   1.00
C470   C     0.16717   0.75346   0.25056   0.00000  Uiso   1.00
C471   C     0.10862   0.78910   0.05231   0.00000  Uiso   1.00
C472   C     0.21648   0.77691   0.45563   0.00000  Uiso   1.00
C473   C     0.07701   0.78368   0.02844   0.00000  Uiso   1.00
C474   C     0.24815   0.77081   0.47972   0.00000  Uiso   1.00
C475   C     0.19602   0.97651   0.26774   0.00000  Uiso   1.00
C476   C     0.13797   0.69027   0.23123   0.00000  Uiso   1.00
C477   C     0.19833   0.68562   0.26791   0.00000  Uiso   1.00
C478   C     0.13587   0.98115   0.23079   0.00000  Uiso   1.00
C479   C     0.16847   0.70925   0.24993   0.00000  Uiso   1.00
C480   C     0.16532   0.95749   0.24927   0.00000  Uiso   1.00
C481   C     0.32064   0.80595   0.22325   0.00000  Uiso   1.00
C482   C     0.01275   0.86046   0.27705   0.00000  Uiso   1.00
C483   C     0.03473   0.80632   0.22319   0.00000  Uiso   1.00
C484   C     0.29903   0.86099   0.27596   0.00000  Uiso   1.00
C485   C     0.13712   0.83272   0.33804   0.00000  Uiso   1.00
C486   C     0.19609   0.83340   0.16206   0.00000  Uiso   1.00
C487   C     0.12003   0.82458   0.38843   0.00000  Uiso   1.00
C488   C     0.21267   0.82504   0.11211   0.00000  Uiso   1.00
C489   C     0.05799   0.79956   0.45764   0.00000  Uiso   1.00
C490   C     0.26811   0.78672   0.04794   0.00000  Uiso   1.00
C491   C     0.07297   0.81232   0.41129   0.00000  Uiso   1.00
C492   C     0.25699   0.80517   0.09106   0.00000  Uiso   1.00
C493   C     0.15191   0.82361   0.41297   0.00000  Uiso   1.00
C494   C     0.18052   0.82803   0.08796   0.00000  Uiso   1.00
C495   C     0.13842   0.80457   0.45682   0.00000  Uiso   1.00
C496   C     0.19037   0.80540   0.04686   0.00000  Uiso   1.00
C497   C     0.09040   0.79579   0.48116   0.00000  Uiso   1.00
C498   C     0.23611   0.78782   0.02455   0.00000  Uiso   1.00
C499   C     0.17146   0.79602   0.47862   0.00000  Uiso   1.00
C500   C     0.15601   0.79964   0.02669   0.00000  Uiso   1.00
H501   H     0.28254   0.80270   0.10842   0.00000  Uiso   1.00
H502   H     0.04747   0.81291   0.39352   0.00000  Uiso   1.00
H503   H     0.02125   0.79291   0.47453   0.00000  Uiso   1.00
H504   H     0.30031   0.76925   0.03367   0.00000  Uiso   1.00
H505   H     0.21835   0.95829   0.28247   0.00000  Uiso   1.00
H506   H     0.11575   0.70854   0.21641   0.00000  Uiso   1.00
H507   H     0.06124   0.78463   0.20174   0.00000  Uiso   1.00
H508   H     0.27307   0.88360   0.29623   0.00000  Uiso   1.00
N509   N     0.04759   0.83334   0.25001   0.00000  Uiso   1.00
N510   N     0.28574   0.83332   0.24999   0.00000  Uiso   1.00
O511   O     0.12846   0.89442   0.25001   0.00000  Uiso   1.00
O512   O     0.20488   0.77225   0.24999   0.00000  Uiso   1.00
O513   O     0.20490   0.89441   0.25000   0.00000  Uiso   1.00
O514   O     0.12843   0.77226   0.25000   0.00000  Uiso   1.00
O515   O     0.10661   0.83334   0.31612   0.00000  Uiso   1.00
O516   O     0.22672   0.83333   0.18387   0.00000  Uiso   1.00
O517   O     0.18305   0.83333   0.31612   0.00000  Uiso   1.00
O518   O     0.15028   0.83334   0.18388   0.00000  Uiso   1.00
Zn519  Zn    0.11562   0.83334   0.25000   0.00000  Uiso   1.00
Zn520  Zn    0.21771   0.83333   0.25000   0.00000  Uiso   1.00
O521   O     0.03385   0.76647   0.05206   0.00000  Uiso   1.00
C522   C     0.03777   0.72337   0.04282   0.00000  Uiso   1.00
H523   H     0.06599   0.70783   0.05349   0.00000  Uiso   1.00
H524   H     0.04443   0.71732   0.00552   0.00000  Uiso   1.00
H525   H     0.00360   0.70899   0.06327   0.00000  Uiso   1.00
O526   O     0.29193   0.75147   0.45773   0.00000  Uiso   1.00
C527   C     0.28903   0.70907   0.47054   0.00000  Uiso   1.00
H528   H     0.26414   0.69279   0.45745   0.00000  Uiso   1.00
H529   H     0.27826   0.70473   0.00875   0.00000  Uiso   1.00
H530   H     0.32475   0.69411   0.45455   0.00000  Uiso   1.00
I531   I     0.12402   0.87424   0.10603   0.00000  Uiso   1.00
I532   I     0.21281   0.86252   0.39342   0.00000  Uiso   1.00
O533   O     0.09337   0.78021   0.09947   0.00000  Uiso   1.00
C534   C     0.11579   0.74318   0.10808   0.00000  Uiso   1.00
H535   H     0.14295   0.75091   0.12342   0.00000  Uiso   1.00
H536   H     0.13281   0.72325   0.07699   0.00000  Uiso   1.00
H537   H     0.08868   0.72430   0.13405   0.00000  Uiso   1.00
O538   O     0.22708   0.75852   0.41271   0.00000  Uiso   1.00
C539   C     0.19853   0.72322   0.41728   0.00000  Uiso   1.00
H540   H     0.17169   0.72981   0.40052   0.00000  Uiso   1.00
H541   H     0.17968   0.71256   0.45368   0.00000  Uiso   1.00
H542   H     0.22160   0.69667   0.39926   0.00000  Uiso   1.00
I543   I     0.24732   0.70885   0.29714   0.00000  Uiso   1.00
I544   I     0.08834   0.95816   0.19974   0.00000  Uiso   1.00
I545   I     0.30821   0.76124   0.17964   0.00000  Uiso   1.00
I546   I     0.02511   0.90200   0.32399   0.00000  Uiso   1.00
C547   C     0.49961   0.91322   0.24917   0.00000  Uiso   1.00
C548   C     0.50050   0.75346   0.25056   0.00000  Uiso   1.00
C549   C     0.44195   0.78910   0.05231   0.00000  Uiso   1.00
C550   C     0.54982   0.77691   0.45563   0.00000  Uiso   1.00
C551   C     0.41034   0.78368   0.02844   0.00000  Uiso   1.00
C552   C     0.58149   0.77081   0.47972   0.00000  Uiso   1.00
C553   C     0.52936   0.97651   0.26774   0.00000  Uiso   1.00
C554   C     0.47130   0.69027   0.23123   0.00000  Uiso   1.00
C555   C     0.53167   0.68562   0.26791   0.00000  Uiso   1.00
C556   C     0.46920   0.98115   0.23079   0.00000  Uiso   1.00
C557   C     0.50181   0.70925   0.24993   0.00000  Uiso   1.00
C558   C     0.49865   0.95749   0.24927   0.00000  Uiso   1.00
C559   C     0.65398   0.80595   0.22325   0.00000  Uiso   1.00
C560   C     0.34609   0.86046   0.27705   0.00000  Uiso   1.00
C561   C     0.36806   0.80632   0.22319   0.00000  Uiso   1.00
C562   C     0.63237   0.86099   0.27596   0.00000  Uiso   1.00
C563   C     0.47046   0.83272   0.33804   0.00000  Uiso   1.00
C564   C     0.52943   0.83340   0.16206   0.00000  Uiso   1.00
C565   C     0.45336   0.82458   0.38843   0.00000  Uiso   1.00
C566   C     0.54600   0.82504   0.11211   0.00000  Uiso   1.00
C567   C     0.39132   0.79956   0.45764   0.00000  Uiso   1.00
C568   C     0.60144   0.78672   0.04794   0.00000  Uiso   1.00
C569   C     0.40631   0.81232   0.41129   0.00000  Uiso   1.00
C570   C     0.59032   0.80517   0.09106   0.00000  Uiso   1.00
C571   C     0.48524   0.82361   0.41297   0.00000  Uiso   1.00
C572   C     0.51385   0.82803   0.08796   0.00000  Uiso   1.00
C573   C     0.47175   0.80457   0.45682   0.00000  Uiso   1.00
C574   C     0.52370   0.80540   0.04686   0.00000  Uiso   1.00
C575   C     0.42374   0.79579   0.48116   0.00000  Uiso   1.00
C576   C     0.56944   0.78782   0.02455   0.00000  Uiso   1.00
C577   C     0.50479   0.79602   0.47862   0.00000  Uiso   1.00
C578   C     0.48935   0.79964   0.02669   0.00000  Uiso   1.00
H579   H     0.61587   0.80270   0.10842   0.00000  Uiso   1.00
H580   H     0.38080   0.81291   0.39352   0.00000  Uiso   1.00
H581   H     0.35458   0.79291   0.47453   0.00000  Uiso   1.00
H582   H     0.63365   0.76925   0.03367   0.00000  Uiso   1.00
H583   H     0.55169   0.95829   0.28247   0.00000  Uiso   1.00
H584   H     0.44908   0.70854   0.21641   0.00000  Uiso   1.00
H585   H     0.39458   0.78463   0.20174   0.00000  Uiso   1.00
H586   H     0.60641   0.88360   0.29623   0.00000  Uiso   1.00
N587   N     0.38093   0.83334   0.25001   0.00000  Uiso   1.00
N588   N     0.61907   0.83332   0.24999   0.00000  Uiso   1.00
O589   O     0.46179   0.89442   0.25001   0.00000  Uiso   1.00
O590   O     0.53821   0.77225   0.24999   0.00000  Uiso   1.00
O591   O     0.53823   0.89441   0.25000   0.00000  Uiso   1.00
O592   O     0.46177   0.77226   0.25000   0.00000  Uiso   1.00
O593   O     0.43994   0.83334   0.31612   0.00000  Uiso   1.00
O594   O     0.56006   0.83333   0.18387   0.00000  Uiso   1.00
O595   O     0.51639   0.83333   0.31612   0.00000  Uiso   1.00
O596   O     0.48361   0.83334   0.18388   0.00000  Uiso   1.00
Zn597  Zn    0.44896   0.83334   0.25000   0.00000  Uiso   1.00
Zn598  Zn    0.55104   0.83333   0.25000   0.00000  Uiso   1.00
O599   O     0.36718   0.76647   0.05206   0.00000  Uiso   1.00
C600   C     0.37111   0.72337   0.04282   0.00000  Uiso   1.00
H601   H     0.39932   0.70783   0.05349   0.00000  Uiso   1.00
H602   H     0.37776   0.71732   0.00552   0.00000  Uiso   1.00
H603   H     0.33693   0.70899   0.06327   0.00000  Uiso   1.00
O604   O     0.62527   0.75147   0.45773   0.00000  Uiso   1.00
C605   C     0.62236   0.70907   0.47054   0.00000  Uiso   1.00
H606   H     0.59747   0.69279   0.45745   0.00000  Uiso   1.00
H607   H     0.61160   0.70473   0.00875   0.00000  Uiso   1.00
H608   H     0.65809   0.69411   0.45455   0.00000  Uiso   1.00
I609   I     0.45735   0.87424   0.10603   0.00000  Uiso   1.00
I610   I     0.54614   0.86252   0.39342   0.00000  Uiso   1.00
O611   O     0.42670   0.78021   0.09947   0.00000  Uiso   1.00
C612   C     0.44913   0.74318   0.10808   0.00000  Uiso   1.00
H613   H     0.47628   0.75091   0.12342   0.00000  Uiso   1.00
H614   H     0.46614   0.72325   0.07699   0.00000  Uiso   1.00
H615   H     0.42201   0.72430   0.13405   0.00000  Uiso   1.00
O616   O     0.56042   0.75852   0.41271   0.00000  Uiso   1.00
C617   C     0.53186   0.72322   0.41728   0.00000  Uiso   1.00
H618   H     0.50503   0.72981   0.40052   0.00000  Uiso   1.00
H619   H     0.51301   0.71256   0.45368   0.00000  Uiso   1.00
H620   H     0.55494   0.69667   0.39926   0.00000  Uiso   1.00
I621   I     0.58065   0.70885   0.29714   0.00000  Uiso   1.00
I622   I     0.42167   0.95816   0.19974   0.00000  Uiso   1.00
I623   I     0.64155   0.76124   0.17964   0.00000  Uiso   1.00
I624   I     0.35844   0.90200   0.32399   0.00000  Uiso   1.00
C625   C     0.83295   0.91322   0.24917   0.00000  Uiso   1.00
C626   C     0.83383   0.75346   0.25056   0.00000  Uiso   1.00
C627   C     0.77528   0.78910   0.05231   0.00000  Uiso   1.00
C628   C     0.88315   0.77691   0.45563   0.00000  Uiso   1.00
C629   C     0.74367   0.78368   0.02844   0.00000  Uiso   1.00
C630   C     0.91482   0.77081   0.47972   0.00000  Uiso   1.00
C631   C     0.86269   0.97651   0.26774   0.00000  Uiso   1.00
C632   C     0.80463   0.69027   0.23123   0.00000  Uiso   1.00
C633   C     0.86500   0.68562   0.26791   0.00000  Uiso   1.00
C634   C     0.80253   0.98115   0.23079   0.00000  Uiso   1.00
C635   C     0.83514   0.70925   0.24993   0.00000  Uiso   1.00
C636   C     0.83199   0.95749   0.24927   0.00000  Uiso   1.00
C637   C     0.98731   0.80595   0.22325   0.00000  Uiso   1.00
C638   C     0.67942   0.86046   0.27705   0.00000  Uiso   1.00
C639   C     0.70140   0.80632   0.22319   0.00000  Uiso   1.00
C640   C     0.96570   0.86099   0.27596   0.00000  Uiso   1.00
C641   C     0.80379   0.83272   0.33804   0.00000  Uiso   1.00
C642   C     0.86276   0.83340   0.16206   0.00000  Uiso   1.00
C643   C     0.78670   0.82458   0.38843   0.00000  Uiso   1.00
C644   C     0.87934   0.82504   0.11211   0.00000  Uiso   1.00
C645   C     0.72465   0.79956   0.45764   0.00000  Uiso   1.00
C646   C     0.93478   0.78672   0.04794   0.00000  Uiso   1.00
C647   C     0.73964   0.81232   0.41129   0.00000  Uiso   1.00
C648   C     0.92366   0.80517   0.09106   0.00000  Uiso   1.00
C649   C     0.81858   0.82361   0.41297   0.00000  Uiso   1.00
C650   C     0.84718   0.82803   0.08796   0.00000  Uiso   1.00
C651   C     0.80509   0.80457   0.45682   0.00000  Uiso   1.00
C652   C     0.85703   0.80540   0.04686   0.00000  Uiso   1.00
C653   C     0.75707   0.79579   0.48116   0.00000  Uiso   1.00
C654   C     0.90277   0.78782   0.02455   0.00000  Uiso   1.00
C655   C     0.83812   0.79602   0.47862   0.00000  Uiso   1.00
C656   C     0.82268   0.79964   0.02669   0.00000  Uiso   1.00
H657   H     0.94921   0.80270   0.10842   0.00000  Uiso   1.00
H658   H     0.71414   0.81291   0.39352   0.00000  Uiso   1.00
H659   H     0.68791   0.79291   0.47453   0.00000  Uiso   1.00
H660   H     0.96698   0.76925   0.03367   0.00000  Uiso   1.00
H661   H     0.88502   0.95829   0.28247   0.00000  Uiso   1.00
H662   H     0.78242   0.70854   0.21641   0.00000  Uiso   1.00
H663   H     0.72791   0.78463   0.20174   0.00000  Uiso   1.00
H664   H     0.93974   0.88360   0.29623   0.00000  Uiso   1.00
N665   N     0.71426   0.83334   0.25001   0.00000  Uiso   1.00
N666   N     0.95241   0.83332   0.24999   0.00000  Uiso   1.00
O667   O     0.79512   0.89442   0.25001   0.00000  Uiso   1.00
O668   O     0.87154   0.77225   0.24999   0.00000  Uiso   1.00
O669   O     0.87157   0.89441   0.25000   0.00000  Uiso   1.00
O670   O     0.79510   0.77226   0.25000   0.00000  Uiso   1.00
O671   O     0.77328   0.83334   0.31612   0.00000  Uiso   1.00
O672   O     0.89339   0.83333   0.18387   0.00000  Uiso   1.00
O673   O     0.84972   0.83333   0.31612   0.00000  Uiso   1.00
O674   O     0.81695   0.83334   0.18388   0.00000  Uiso   1.00
Zn675  Zn    0.78229   0.83334   0.25000   0.00000  Uiso   1.00
Zn676  Zn    0.88438   0.83333   0.25000   0.00000  Uiso   1.00
O677   O     0.70052   0.76647   0.05206   0.00000  Uiso   1.00
C678   C     0.70444   0.72337   0.04282   0.00000  Uiso   1.00
H679   H     0.73266   0.70783   0.05349   0.00000  Uiso   1.00
H680   H     0.71110   0.71732   0.00552   0.00000  Uiso   1.00
H681   H     0.67026   0.70899   0.06327   0.00000  Uiso   1.00
O682   O     0.95860   0.75147   0.45773   0.00000  Uiso   1.00
C683   C     0.95569   0.70907   0.47054   0.00000  Uiso   1.00
H684   H     0.93081   0.69279   0.45745   0.00000  Uiso   1.00
H685   H     0.94493   0.70473   0.00875   0.00000  Uiso   1.00
H686   H     0.99142   0.69411   0.45455   0.00000  Uiso   1.00
I687   I     0.79069   0.87424   0.10603   0.00000  Uiso   1.00
I688   I     0.87948   0.86252   0.39342   0.00000  Uiso   1.00
O689   O     0.76003   0.78021   0.09947   0.00000  Uiso   1.00
C690   C     0.78246   0.74318   0.10808   0.00000  Uiso   1.00
H691   H     0.80961   0.75091   0.12342   0.00000  Uiso   1.00
H692   H     0.79947   0.72325   0.07699   0.00000  Uiso   1.00
H693   H     0.75535   0.72430   0.13405   0.00000  Uiso   1.00
O694   O     0.89375   0.75852   0.41271   0.00000  Uiso   1.00
C695   C     0.86520   0.72322   0.41728   0.00000  Uiso   1.00
H696   H     0.83836   0.72981   0.40052   0.00000  Uiso   1.00
H697   H     0.84635   0.71256   0.45368   0.00000  Uiso   1.00
H698   H     0.88827   0.69667   0.39926   0.00000  Uiso   1.00
I699   I     0.91399   0.70885   0.29714   0.00000  Uiso   1.00
I700   I     0.75500   0.95816   0.19974   0.00000  Uiso   1.00
I701   I     0.97488   0.76124   0.17964   0.00000  Uiso   1.00
I702   I     0.69177   0.90200   0.32399   0.00000  Uiso   1.00
C703   C     0.16628   0.24656   0.74917   0.00000  Uiso   1.00
C704   C     0.16717   0.08680   0.75056   0.00000  Uiso   1.00
C705   C     0.10862   0.12243   0.55231   0.00000  Uiso   1.00
C706   C     0.21648   0.11024   0.95563   0.00000  Uiso   1.00
C707   C     0.07701   0.11702   0.52844   0.00000  Uiso   1.00
C708   C     0.24815   0.10414   0.97972   0.00000  Uiso   1.00
C709   C     0.19602   0.30984   0.76774   0.00000  Uiso   1.00
C710   C     0.13797   0.02360   0.73123   0.00000  Uiso   1.00
C711   C     0.19833   0.01896   0.76791   0.00000  Uiso   1.00
C712   C     0.13587   0.31448   0.73079   0.00000  Uiso   1.00
C713   C     0.16847   0.04259   0.74993   0.00000  Uiso   1.00
C714   C     0.16532   0.29082   0.74927   0.00000  Uiso   1.00
C715   C     0.32064   0.13928   0.72325   0.00000  Uiso   1.00
C716   C     0.01275   0.19380   0.77705   0.00000  Uiso   1.00
C717   C     0.03473   0.13966   0.72319   0.00000  Uiso   1.00
C718   C     0.29903   0.19432   0.77596   0.00000  Uiso   1.00
C719   C     0.13712   0.16605   0.83804   0.00000  Uiso   1.00
C720   C     0.19609   0.16673   0.66206   0.00000  Uiso   1.00
C721   C     0.12003   0.15791   0.88843   0.00000  Uiso   1.00
C722   C     0.21267   0.15837   0.61211   0.00000  Uiso   1.00
C723   C     0.05799   0.13290   0.95764   0.00000  Uiso   1.00
C724   C     0.26811   0.12005   0.54794   0.00000  Uiso   1.00
C725   C     0.07297   0.14565   0.91129   0.00000  Uiso   1.00
C726   C     0.25699   0.13850   0.59106   0.00000  Uiso   1.00
C727   C     0.15191   0.15695   0.91297   0.00000  Uiso   1.00
C728   C     0.18052   0.16136   0.58796   0.00000  Uiso   1.00
C729   C     0.13842   0.13790   0.95682   0.00000  Uiso   1.00
C730   C     0.19037   0.13873   0.54686   0.00000  Uiso   1.00
C731   C     0.09040   0.12912   0.98116   0.00000  Uiso   1.00
C732   C     0.23611   0.12116   0.52455   0.00000  Uiso   1.00
C733   C     0.17146   0.12935   0.97862   0.00000  Uiso   1.00
C734   C     0.15601   0.13297   0.52669   0.00000  Uiso   1.00
H735   H     0.28254   0.13603   0.60842   0.00000  Uiso   1.00
H736   H     0.04747   0.14624   0.89352   0.00000  Uiso   1.00
H737   H     0.02125   0.12624   0.97453   0.00000  Uiso   1.00
H738   H     0.30031   0.10259   0.53367   0.00000  Uiso   1.00
H739   H     0.21835   0.29162   0.78247   0.00000  Uiso   1.00
H740   H     0.11575   0.04188   0.71641   0.00000  Uiso   1.00
H741   H     0.06124   0.11796   0.70174   0.00000  Uiso   1.00
H742   H     0.27307   0.21693   0.79623   0.00000  Uiso   1.00
N743   N     0.04759   0.16668   0.75001   0.00000  Uiso   1.00
N744   N     0.28574   0.16666   0.74999   0.00000  Uiso   1.00
O745   O     0.12846   0.22775   0.75001   0.00000  Uiso   1.00
O746   O     0.20488   0.10558   0.74999   0.00000  Uiso   1.00
O747   O     0.20490   0.22774   0.75000   0.00000  Uiso   1.00
O748   O     0.12843   0.10559   0.75000   0.00000  Uiso   1.00
O749   O     0.10661   0.16667   0.81612   0.00000  Uiso   1.00
O750   O     0.22672   0.16666   0.68387   0.00000  Uiso   1.00
O751   O     0.18305   0.16666   0.81612   0.00000  Uiso   1.00
O752   O     0.15028   0.16667   0.68388   0.00000  Uiso   1.00
Zn753  Zn    0.11562   0.16667   0.75000   0.00000  Uiso   1.00
Zn754  Zn    0.21771   0.16666   0.75000   0.00000  Uiso   1.00
O755   O     0.03385   0.09980   0.55206   0.00000  Uiso   1.00
C756   C     0.03777   0.05671   0.54282   0.00000  Uiso   1.00
H757   H     0.06599   0.04117   0.55349   0.00000  Uiso   1.00
H758   H     0.04443   0.05066   0.50552   0.00000  Uiso   1.00
H759   H     0.00360   0.04233   0.56327   0.00000  Uiso   1.00
O760   O     0.29193   0.08481   0.95773   0.00000  Uiso   1.00
C761   C     0.28903   0.04240   0.97054   0.00000  Uiso   1.00
H762   H     0.26414   0.02613   0.95745   0.00000  Uiso   1.00
H763   H     0.27826   0.03806   0.50875   0.00000  Uiso   1.00
H764   H     0.32475   0.02744   0.95455   0.00000  Uiso   1.00
I765   I     0.12402   0.20758   0.60603   0.00000  Uiso   1.00
I766   I     0.21281   0.19586   0.89342   0.00000  Uiso   1.00
O767   O     0.09337   0.11355   0.59947   0.00000  Uiso   1.00
C768   C     0.11579   0.07651   0.60808   0.00000  Uiso   1.00
H769   H     0.14295   0.08424   0.62342   0.00000  Uiso   1.00
H770   H     0.13281   0.05658   0.57699   0.00000  Uiso   1.00
H771   H     0.08868   0.05763   0.63405   0.00000  Uiso   1.00
O772   O     0.22708   0.09186   0.91271   0.00000  Uiso   1.00
C773   C     0.19853   0.05655   0.91728   0.00000  Uiso   1.00
H774   H     0.17169   0.06314   0.90052   0.00000  Uiso   1.00
H775   H     0.17968   0.04589   0.95368   0.00000  Uiso   1.00
H776   H     0.22160   0.03000   0.89926   0.00000  Uiso   1.00
I777   I     0.24732   0.04218   0.79714   0.00000  Uiso   1.00
I778   I     0.08834   0.29150   0.69974   0.00000  Uiso   1.00
I779   I     0.30821   0.09458   0.67964   0.00000  Uiso   1.00
I780   I     0.02511   0.23534   0.82399   0.00000  Uiso   1.00
C781   C     0.49961   0.24656   0.74917   0.00000  Uiso   1.00
C782   C     0.50050   0.08680   0.75056   0.00000  Uiso   1.00
C783   C     0.44195   0.12243   0.55231   0.00000  Uiso   1.00
C784   C     0.54982   0.11024   0.95563   0.00000  Uiso   1.00
C785   C     0.41034   0.11702   0.52844   0.00000  Uiso   1.00
C786   C     0.58149   0.10414   0.97972   0.00000  Uiso   1.00
C787   C     0.52936   0.30984   0.76774   0.00000  Uiso   1.00
C788   C     0.47130   0.02360   0.73123   0.00000  Uiso   1.00
C789   C     0.53167   0.01896   0.76791   0.00000  Uiso   1.00
C790   C     0.46920   0.31448   0.73079   0.00000  Uiso   1.00
C791   C     0.50181   0.04259   0.74993   0.00000  Uiso   1.00
C792   C     0.49865   0.29082   0.74927   0.00000  Uiso   1.00
C793   C     0.65398   0.13928   0.72325   0.00000  Uiso   1.00
C794   C     0.34609   0.19380   0.77705   0.00000  Uiso   1.00
C795   C     0.36806   0.13966   0.72319   0.00000  Uiso   1.00
C796   C     0.63237   0.19432   0.77596   0.00000  Uiso   1.00
C797   C     0.47046   0.16605   0.83804   0.00000  Uiso   1.00
C798   C     0.52943   0.16673   0.66206   0.00000  Uiso   1.00
C799   C     0.45336   0.15791   0.88843   0.00000  Uiso   1.00
C800   C     0.54600   0.15837   0.61211   0.00000  Uiso   1.00
C801   C     0.39132   0.13290   0.95764   0.00000  Uiso   1.00
C802   C     0.60144   0.12005   0.54794   0.00000  Uiso   1.00
C803   C     0.40631   0.14565   0.91129   0.00000  Uiso   1.00
C804   C     0.59032   0.13850   0.59106   0.00000  Uiso   1.00
C805   C     0.48524   0.15695   0.91297   0.00000  Uiso   1.00
C806   C     0.51385   0.16136   0.58796   0.00000  Uiso   1.00
C807   C     0.47175   0.13790   0.95682   0.00000  Uiso   1.00
C808   C     0.52370   0.13873   0.54686   0.00000  Uiso   1.00
C809   C     0.42374   0.12912   0.98116   0.00000  Uiso   1.00
C810   C     0.56944   0.12116   0.52455   0.00000  Uiso   1.00
C811   C     0.50479   0.12935   0.97862   0.00000  Uiso   1.00
C812   C     0.48935   0.13297   0.52669   0.00000  Uiso   1.00
H813   H     0.61587   0.13603   0.60842   0.00000  Uiso   1.00
H814   H     0.38080   0.14624   0.89352   0.00000  Uiso   1.00
H815   H     0.35458   0.12624   0.97453   0.00000  Uiso   1.00
H816   H     0.63365   0.10259   0.53367   0.00000  Uiso   1.00
H817   H     0.55169   0.29162   0.78247   0.00000  Uiso   1.00
H818   H     0.44908   0.04188   0.71641   0.00000  Uiso   1.00
H819   H     0.39458   0.11796   0.70174   0.00000  Uiso   1.00
H820   H     0.60641   0.21693   0.79623   0.00000  Uiso   1.00
N821   N     0.38093   0.16668   0.75001   0.00000  Uiso   1.00
N822   N     0.61907   0.16666   0.74999   0.00000  Uiso   1.00
O823   O     0.46179   0.22775   0.75001   0.00000  Uiso   1.00
O824   O     0.53821   0.10558   0.74999   0.00000  Uiso   1.00
O825   O     0.53823   0.22774   0.75000   0.00000  Uiso   1.00
O826   O     0.46177   0.10559   0.75000   0.00000  Uiso   1.00
O827   O     0.43994   0.16667   0.81612   0.00000  Uiso   1.00
O828   O     0.56006   0.16666   0.68387   0.00000  Uiso   1.00
O829   O     0.51639   0.16666   0.81612   0.00000  Uiso   1.00
O830   O     0.48361   0.16667   0.68388   0.00000  Uiso   1.00
Zn831  Zn    0.44896   0.16667   0.75000   0.00000  Uiso   1.00
Zn832  Zn    0.55104   0.16666   0.75000   0.00000  Uiso   1.00
O833   O     0.36718   0.09980   0.55206   0.00000  Uiso   1.00
C834   C     0.37111   0.05671   0.54282   0.00000  Uiso   1.00
H835   H     0.39932   0.04117   0.55349   0.00000  Uiso   1.00
H836   H     0.37776   0.05066   0.50552   0.00000  Uiso   1.00
H837   H     0.33693   0.04233   0.56327   0.00000  Uiso   1.00
O838   O     0.62527   0.08481   0.95773   0.00000  Uiso   1.00
C839   C     0.62236   0.04240   0.97054   0.00000  Uiso   1.00
H840   H     0.59747   0.02613   0.95745   0.00000  Uiso   1.00
H841   H     0.61160   0.03806   0.50875   0.00000  Uiso   1.00
H842   H     0.65809   0.02744   0.95455   0.00000  Uiso   1.00
I843   I     0.45735   0.20758   0.60603   0.00000  Uiso   1.00
I844   I     0.54614   0.19586   0.89342   0.00000  Uiso   1.00
O845   O     0.42670   0.11355   0.59947   0.00000  Uiso   1.00
C846   C     0.44913   0.07651   0.60808   0.00000  Uiso   1.00
H847   H     0.47628   0.08424   0.62342   0.00000  Uiso   1.00
H848   H     0.46614   0.05658   0.57699   0.00000  Uiso   1.00
H849   H     0.42201   0.05763   0.63405   0.00000  Uiso   1.00
O850   O     0.56042   0.09186   0.91271   0.00000  Uiso   1.00
C851   C     0.53186   0.05655   0.91728   0.00000  Uiso   1.00
H852   H     0.50503   0.06314   0.90052   0.00000  Uiso   1.00
H853   H     0.51301   0.04589   0.95368   0.00000  Uiso   1.00
H854   H     0.55494   0.03000   0.89926   0.00000  Uiso   1.00
I855   I     0.58065   0.04218   0.79714   0.00000  Uiso   1.00
I856   I     0.42167   0.29150   0.69974   0.00000  Uiso   1.00
I857   I     0.64155   0.09458   0.67964   0.00000  Uiso   1.00
I858   I     0.35844   0.23534   0.82399   0.00000  Uiso   1.00
C859   C     0.83295   0.24656   0.74917   0.00000  Uiso   1.00
C860   C     0.83383   0.08680   0.75056   0.00000  Uiso   1.00
C861   C     0.77528   0.12243   0.55231   0.00000  Uiso   1.00
C862   C     0.88315   0.11024   0.95563   0.00000  Uiso   1.00
C863   C     0.74367   0.11702   0.52844   0.00000  Uiso   1.00
C864   C     0.91482   0.10414   0.97972   0.00000  Uiso   1.00
C865   C     0.86269   0.30984   0.76774   0.00000  Uiso   1.00
C866   C     0.80463   0.02360   0.73123   0.00000  Uiso   1.00
C867   C     0.86500   0.01896   0.76791   0.00000  Uiso   1.00
C868   C     0.80253   0.31448   0.73079   0.00000  Uiso   1.00
C869   C     0.83514   0.04259   0.74993   0.00000  Uiso   1.00
C870   C     0.83199   0.29082   0.74927   0.00000  Uiso   1.00
C871   C     0.98731   0.13928   0.72325   0.00000  Uiso   1.00
C872   C     0.67942   0.19380   0.77705   0.00000  Uiso   1.00
C873   C     0.70140   0.13966   0.72319   0.00000  Uiso   1.00
C874   C     0.96570   0.19432   0.77596   0.00000  Uiso   1.00
C875   C     0.80379   0.16605   0.83804   0.00000  Uiso   1.00
C876   C     0.86276   0.16673   0.66206   0.00000  Uiso   1.00
C877   C     0.78670   0.15791   0.88843   0.00000  Uiso   1.00
C878   C     0.87934   0.15837   0.61211   0.00000  Uiso   1.00
C879   C     0.72465   0.13290   0.95764   0.00000  Uiso   1.00
C880   C     0.93478   0.12005   0.54794   0.00000  Uiso   1.00
C881   C     0.73964   0.14565   0.91129   0.00000  Uiso   1.00
C882   C     0.92366   0.13850   0.59106   0.00000  Uiso   1.00
C883   C     0.81858   0.15695   0.91297   0.00000  Uiso   1.00
C884   C     0.84718   0.16136   0.58796   0.00000  Uiso   1.00
C885   C     0.80509   0.13790   0.95682   0.00000  Uiso   1.00
C886   C     0.85703   0.13873   0.54686   0.00000  Uiso   1.00
C887   C     0.75707   0.12912   0.98116   0.00000  Uiso   1.00
C888   C     0.90277   0.12116   0.52455   0.00000  Uiso   1.00
C889   C     0.83812   0.12935   0.97862   0.00000  Uiso   1.00
C890   C     0.82268   0.13297   0.52669   0.00000  Uiso   1.00
H891   H     0.94921   0.13603   0.60842   0.00000  Uiso   1.00
H892   H     0.71414   0.14624   0.89352   0.00000  Uiso   1.00
H893   H     0.68791   0.12624   0.97453   0.00000  Uiso   1.00
H894   H     0.96698   0.10259   0.53367   0.00000  Uiso   1.00
H895   H     0.88502   0.29162   0.78247   0.00000  Uiso   1.00
H896   H     0.78242   0.04188   0.71641   0.00000  Uiso   1.00
H897   H     0.72791   0.11796   0.70174   0.00000  Uiso   1.00
H898   H     0.93974   0.21693   0.79623   0.00000  Uiso   1.00
N899   N     0.71426   0.16668   0.75001   0.00000  Uiso   1.00
N900   N     0.95241   0.16666   0.74999   0.00000  Uiso   1.00
O901   O     0.79512   0.22775   0.75001   0.00000  Uiso   1.00
O902   O     0.87154   0.10558   0.74999   0.00000  Uiso   1.00
O903   O     0.87157   0.22774   0.75000   0.00000  Uiso   1.00
O904   O     0.79510   0.10559   0.75000   0.00000  Uiso   1.00
O905   O     0.77328   0.16667   0.81612   0.00000  Uiso   1.00
O906   O     0.89339   0.16666   0.68387   0.00000  Uiso   1.00
O907   O     0.84972   0.16666   0.81612   0.00000  Uiso   1.00
O908   O     0.81695   0.16667   0.68388   0.00000  Uiso   1.00
Zn909  Zn    0.78229   0.16667   0.75000   0.00000  Uiso   1.00
Zn910  Zn    0.88438   0.16666   0.75000   0.00000  Uiso   1.00
O911   O     0.70052   0.09980   0.55206   0.00000  Uiso   1.00
C912   C     0.70444   0.05671   0.54282   0.00000  Uiso   1.00
H913   H     0.73266   0.04117   0.55349   0.00000  Uiso   1.00
H914   H     0.71110   0.05066   0.50552   0.00000  Uiso   1.00
H915   H     0.67026   0.04233   0.56327   0.00000  Uiso   1.00
O916   O     0.95860   0.08481   0.95773   0.00000  Uiso   1.00
C917   C     0.95569   0.04240   0.97054   0.00000  Uiso   1.00
H918   H     0.93081   0.02613   0.95745   0.00000  Uiso   1.00
H919   H     0.94493   0.03806   0.50875   0.00000  Uiso   1.00
H920   H     0.99142   0.02744   0.95455   0.00000  Uiso   1.00
I921   I     0.79069   0.20758   0.60603   0.00000  Uiso   1.00
I922   I     0.87948   0.19586   0.89342   0.00000  Uiso   1.00
O923   O     0.76003   0.11355   0.59947   0.00000  Uiso   1.00
C924   C     0.78246   0.07651   0.60808   0.00000  Uiso   1.00
H925   H     0.80961   0.08424   0.62342   0.00000  Uiso   1.00
H926   H     0.79947   0.05658   0.57699   0.00000  Uiso   1.00
H927   H     0.75535   0.05763   0.63405   0.00000  Uiso   1.00
O928   O     0.89375   0.09186   0.91271   0.00000  Uiso   1.00
C929   C     0.86520   0.05655   0.91728   0.00000  Uiso   1.00
H930   H     0.83836   0.06314   0.90052   0.00000  Uiso   1.00
H931   H     0.84635   0.04589   0.95368   0.00000  Uiso   1.00
H932   H     0.88827   0.03000   0.89926   0.00000  Uiso   1.00
I933   I     0.91399   0.04218   0.79714   0.00000  Uiso   1.00
I934   I     0.75500   0.29150   0.69974   0.00000  Uiso   1.00
I935   I     0.97488   0.09458   0.67964   0.00000  Uiso   1.00
I936   I     0.69177   0.23534   0.82399   0.00000  Uiso   1.00
C937   C     0.16628   0.57989   0.74917   0.00000  Uiso   1.00
C938   C     0.16717   0.42013   0.75056   0.00000  Uiso   1.00
C939   C     0.10862   0.45576   0.55231   0.00000  Uiso   1.00
C940   C     0.21648   0.44357   0.95563   0.00000  Uiso   1.00
C941   C     0.07701   0.45035   0.52844   0.00000  Uiso   1.00
C942   C     0.24815   0.43747   0.97972   0.00000  Uiso   1.00
C943   C     0.19602   0.64317   0.76774   0.00000  Uiso   1.00
C944   C     0.13797   0.35694   0.73123   0.00000  Uiso   1.00
C945   C     0.19833   0.35229   0.76791   0.00000  Uiso   1.00
C946   C     0.13587   0.64781   0.73079   0.00000  Uiso   1.00
C947   C     0.16847   0.37592   0.74993   0.00000  Uiso   1.00
C948   C     0.16532   0.62415   0.74927   0.00000  Uiso   1.00
C949   C     0.32064   0.47262   0.72325   0.00000  Uiso   1.00
C950   C     0.01275   0.52713   0.77705   0.00000  Uiso   1.00
C951   C     0.03473   0.47299   0.72319   0.00000  Uiso   1.00
C952   C     0.29903   0.52766   0.77596   0.00000  Uiso   1.00
C953   C     0.13712   0.49939   0.83804   0.00000  Uiso   1.00
C954   C     0.19609   0.50006   0.66206   0.00000  Uiso   1.00
C955   C     0.12003   0.49125   0.88843   0.00000  Uiso   1.00
C956   C     0.21267   0.49170   0.61211   0.00000  Uiso   1.00
C957   C     0.05799   0.46623   0.95764   0.00000  Uiso   1.00
C958   C     0.26811   0.45338   0.54794   0.00000  Uiso   1.00
C959   C     0.07297   0.47899   0.91129   0.00000  Uiso   1.00
C960   C     0.25699   0.47184   0.59106   0.00000  Uiso   1.00
C961   C     0.15191   0.49028   0.91297   0.00000  Uiso   1.00
C962   C     0.18052   0.49470   0.58796   0.00000  Uiso   1.00
C963   C     0.13842   0.47124   0.95682   0.00000  Uiso   1.00
C964   C     0.19037   0.47207   0.54686   0.00000  Uiso   1.00
C965   C     0.09040   0.46245   0.98116   0.00000  Uiso   1.00
C966   C     0.23611   0.45449   0.52455   0.00000  Uiso   1.00
C967   C     0.17146   0.46269   0.97862   0.00000  Uiso   1.00
C968   C     0.15601   0.46630   0.52669   0.00000  Uiso   1.00
H969   H     0.28254   0.46937   0.60842   0.00000  Uiso   1.00
H970   H     0.04747   0.47957   0.89352   0.00000  Uiso   1.00
H971   H     0.02125   0.45958   0.97453   0.00000  Uiso   1.00
H972   H     0.30031   0.43592   0.53367   0.00000  Uiso   1.00
H973   H     0.21835   0.62495   0.78247   0.00000  Uiso   1.00
H974   H     0.11575   0.37521   0.71641   0.00000  Uiso   1.00
H975   H     0.06124   0.45130   0.70174   0.00000  Uiso   1.00
H976   H     0.27307   0.55027   0.79623   0.00000  Uiso   1.00
N977   N     0.04759   0.50001   0.75001   0.00000  Uiso   1.00
N978   N     0.28574   0.49999   0.74999   0.00000  Uiso   1.00
O979   O     0.12846   0.56108   0.75001   0.00000  Uiso   1.00
O980   O     0.20488   0.43892   0.74999   0.00000  Uiso   1.00
O981   O     0.20490   0.56107   0.75000   0.00000  Uiso   1.00
O982   O     0.12843   0.43893   0.75000   0.00000  Uiso   1.00
O983   O     0.10661   0.50001   0.81612   0.00000  Uiso   1.00
O984   O     0.22672   0.49999   0.68387   0.00000  Uiso   1.00
O985   O     0.18305   0.50000   0.81612   0.00000  Uiso   1.00
O986   O     0.15028   0.50000   0.68388   0.00000  Uiso   1.00
Zn987  Zn    0.11562   0.50001   0.75000   0.00000  Uiso   1.00
Zn988  Zn    0.21771   0.49999   0.75000   0.00000  Uiso   1.00
O989   O     0.03385   0.43313   0.55206   0.00000  Uiso   1.00
C990   C     0.03777   0.39004   0.54282   0.00000  Uiso   1.00
H991   H     0.06599   0.37450   0.55349   0.00000  Uiso   1.00
H992   H     0.04443   0.38399   0.50552   0.00000  Uiso   1.00
H993   H     0.00360   0.37566   0.56327   0.00000  Uiso   1.00
O994   O     0.29193   0.41814   0.95773   0.00000  Uiso   1.00
C995   C     0.28903   0.37574   0.97054   0.00000  Uiso   1.00
H996   H     0.26414   0.35946   0.95745   0.00000  Uiso   1.00
H997   H     0.27826   0.37139   0.50875   0.00000  Uiso   1.00
H998   H     0.32475   0.36077   0.95455   0.00000  Uiso   1.00
I999   I     0.12402   0.54091   0.60603   0.00000  Uiso   1.00
I1000  I     0.21281   0.52919   0.89342   0.00000  Uiso   1.00
O1001  O     0.09337   0.44688   0.59947   0.00000  Uiso   1.00
C1002  C     0.11579   0.40984   0.60808   0.00000  Uiso   1.00
H1003  H     0.14295   0.41757   0.62342   0.00000  Uiso   1.00
H1004  H     0.13281   0.38992   0.57699   0.00000  Uiso   1.00
H1005  H     0.08868   0.39097   0.63405   0.00000  Uiso   1.00
O1006  O     0.22708   0.42519   0.91271   0.00000  Uiso   1.00
C1007  C     0.19853   0.38989   0.91728   0.00000  Uiso   1.00
H1008  H     0.17169   0.39647   0.90052   0.00000  Uiso   1.00
H1009  H     0.17968   0.37923   0.95368   0.00000  Uiso   1.00
H1010  H     0.22160   0.36333   0.89926   0.00000  Uiso   1.00
I1011  I     0.24732   0.37552   0.79714   0.00000  Uiso   1.00
I1012  I     0.08834   0.62483   0.69974   0.00000  Uiso   1.00
I1013  I     0.30821   0.42791   0.67964   0.00000  Uiso   1.00
I1014  I     0.02511   0.56867   0.82399   0.00000  Uiso   1.00
C1015  C     0.49961   0.57989   0.74917   0.00000  Uiso   1.00
C1016  C     0.50050   0.42013   0.75056   0.00000  Uiso   1.00
C1017  C     0.44195   0.45576   0.55231   0.00000  Uiso   1.00
C1018  C     0.54982   0.44357   0.95563   0.00000  Uiso   1.00
C1019  C     0.41034   0.45035   0.52844   0.00000  Uiso   1.00
C1020  C     0.58149   0.43747   0.97972   0.00000  Uiso   1.00
C1021  C     0.52936   0.64317   0.76774   0.00000  Uiso   1.00
C1022  C     0.47130   0.35694   0.73123   0.00000  Uiso   1.00
C1023  C     0.53167   0.35229   0.76791   0.00000  Uiso   1.00
C1024  C     0.46920   0.64781   0.73079   0.00000  Uiso   1.00
C1025  C     0.50181   0.37592   0.74993   0.00000  Uiso   1.00
C1026  C     0.49865   0.62415   0.74927   0.00000  Uiso   1.00
C1027  C     0.65398   0.47262   0.72325   0.00000  Uiso   1.00
C1028  C     0.34609   0.52713   0.77705   0.00000  Uiso   1.00
C1029  C     0.36806   0.47299   0.72319   0.00000  Uiso   1.00
C1030  C     0.63237   0.52766   0.77596   0.00000  Uiso   1.00
C1031  C     0.47046   0.49939   0.83804   0.00000  Uiso   1.00
C1032  C     0.52943   0.50006   0.66206   0.00000  Uiso   1.00
C1033  C     0.45336   0.49125   0.88843   0.00000  Uiso   1.00
C1034  C     0.54600   0.49170   0.61211   0.00000  Uiso   1.00
C1035  C     0.39132   0.46623   0.95764   0.00000  Uiso   1.00
C1036  C     0.60144   0.45338   0.54794   0.00000  Uiso   1.00
C1037  C     0.40631   0.47899   0.91129   0.00000  Uiso   1.00
C1038  C     0.59032   0.47184   0.59106   0.00000  Uiso   1.00
C1039  C     0.48524   0.49028   0.91297   0.00000  Uiso   1.00
C1040  C     0.51385   0.49470   0.58796   0.00000  Uiso   1.00
C1041  C     0.47175   0.47124   0.95682   0.00000  Uiso   1.00
C1042  C     0.52370   0.47207   0.54686   0.00000  Uiso   1.00
C1043  C     0.42374   0.46245   0.98116   0.00000  Uiso   1.00
C1044  C     0.56944   0.45449   0.52455   0.00000  Uiso   1.00
C1045  C     0.50479   0.46269   0.97862   0.00000  Uiso   1.00
C1046  C     0.48935   0.46630   0.52669   0.00000  Uiso   1.00
H1047  H     0.61587   0.46937   0.60842   0.00000  Uiso   1.00
H1048  H     0.38080   0.47957   0.89352   0.00000  Uiso   1.00
H1049  H     0.35458   0.45958   0.97453   0.00000  Uiso   1.00
H1050  H     0.63365   0.43592   0.53367   0.00000  Uiso   1.00
H1051  H     0.55169   0.62495   0.78247   0.00000  Uiso   1.00
H1052  H     0.44908   0.37521   0.71641   0.00000  Uiso   1.00
H1053  H     0.39458   0.45130   0.70174   0.00000  Uiso   1.00
H1054  H     0.60641   0.55027   0.79623   0.00000  Uiso   1.00
N1055  N     0.38093   0.50001   0.75001   0.00000  Uiso   1.00
N1056  N     0.61907   0.49999   0.74999   0.00000  Uiso   1.00
O1057  O     0.46179   0.56108   0.75001   0.00000  Uiso   1.00
O1058  O     0.53821   0.43892   0.74999   0.00000  Uiso   1.00
O1059  O     0.53823   0.56107   0.75000   0.00000  Uiso   1.00
O1060  O     0.46177   0.43893   0.75000   0.00000  Uiso   1.00
O1061  O     0.43994   0.50001   0.81612   0.00000  Uiso   1.00
O1062  O     0.56006   0.49999   0.68387   0.00000  Uiso   1.00
O1063  O     0.51639   0.50000   0.81612   0.00000  Uiso   1.00
O1064  O     0.48361   0.50000   0.68388   0.00000  Uiso   1.00
Zn1065 Zn    0.44896   0.50001   0.75000   0.00000  Uiso   1.00
Zn1066 Zn    0.55104   0.49999   0.75000   0.00000  Uiso   1.00
O1067  O     0.36718   0.43313   0.55206   0.00000  Uiso   1.00
C1068  C     0.37111   0.39004   0.54282   0.00000  Uiso   1.00
H1069  H     0.39932   0.37450   0.55349   0.00000  Uiso   1.00
H1070  H     0.37776   0.38399   0.50552   0.00000  Uiso   1.00
H1071  H     0.33693   0.37566   0.56327   0.00000  Uiso   1.00
O1072  O     0.62527   0.41814   0.95773   0.00000  Uiso   1.00
C1073  C     0.62236   0.37574   0.97054   0.00000  Uiso   1.00
H1074  H     0.59747   0.35946   0.95745   0.00000  Uiso   1.00
H1075  H     0.61160   0.37139   0.50875   0.00000  Uiso   1.00
H1076  H     0.65809   0.36077   0.95455   0.00000  Uiso   1.00
I1077  I     0.45735   0.54091   0.60603   0.00000  Uiso   1.00
I1078  I     0.54614   0.52919   0.89342   0.00000  Uiso   1.00
O1079  O     0.42670   0.44688   0.59947   0.00000  Uiso   1.00
C1080  C     0.44913   0.40984   0.60808   0.00000  Uiso   1.00
H1081  H     0.47628   0.41757   0.62342   0.00000  Uiso   1.00
H1082  H     0.46614   0.38992   0.57699   0.00000  Uiso   1.00
H1083  H     0.42201   0.39097   0.63405   0.00000  Uiso   1.00
O1084  O     0.56042   0.42519   0.91271   0.00000  Uiso   1.00
C1085  C     0.53186   0.38989   0.91728   0.00000  Uiso   1.00
H1086  H     0.50503   0.39647   0.90052   0.00000  Uiso   1.00
H1087  H     0.51301   0.37923   0.95368   0.00000  Uiso   1.00
H1088  H     0.55494   0.36333   0.89926   0.00000  Uiso   1.00
I1089  I     0.58065   0.37552   0.79714   0.00000  Uiso   1.00
I1090  I     0.42167   0.62483   0.69974   0.00000  Uiso   1.00
I1091  I     0.64155   0.42791   0.67964   0.00000  Uiso   1.00
I1092  I     0.35844   0.56867   0.82399   0.00000  Uiso   1.00
C1093  C     0.83295   0.57989   0.74917   0.00000  Uiso   1.00
C1094  C     0.83383   0.42013   0.75056   0.00000  Uiso   1.00
C1095  C     0.77528   0.45576   0.55231   0.00000  Uiso   1.00
C1096  C     0.88315   0.44357   0.95563   0.00000  Uiso   1.00
C1097  C     0.74367   0.45035   0.52844   0.00000  Uiso   1.00
C1098  C     0.91482   0.43747   0.97972   0.00000  Uiso   1.00
C1099  C     0.86269   0.64317   0.76774   0.00000  Uiso   1.00
C1100  C     0.80463   0.35694   0.73123   0.00000  Uiso   1.00
C1101  C     0.86500   0.35229   0.76791   0.00000  Uiso   1.00
C1102  C     0.80253   0.64781   0.73079   0.00000  Uiso   1.00
C1103  C     0.83514   0.37592   0.74993   0.00000  Uiso   1.00
C1104  C     0.83199   0.62415   0.74927   0.00000  Uiso   1.00
C1105  C     0.98731   0.47262   0.72325   0.00000  Uiso   1.00
C1106  C     0.67942   0.52713   0.77705   0.00000  Uiso   1.00
C1107  C     0.70140   0.47299   0.72319   0.00000  Uiso   1.00
C1108  C     0.96570   0.52766   0.77596   0.00000  Uiso   1.00
C1109  C     0.80379   0.49939   0.83804   0.00000  Uiso   1.00
C1110  C     0.86276   0.50006   0.66206   0.00000  Uiso   1.00
C1111  C     0.78670   0.49125   0.88843   0.00000  Uiso   1.00
C1112  C     0.87934   0.49170   0.61211   0.00000  Uiso   1.00
C1113  C     0.72465   0.46623   0.95764   0.00000  Uiso   1.00
C1114  C     0.93478   0.45338   0.54794   0.00000  Uiso   1.00
C1115  C     0.73964   0.47899   0.91129   0.00000  Uiso   1.00
C1116  C     0.92366   0.47184   0.59106   0.00000  Uiso   1.00
C1117  C     0.81858   0.49028   0.91297   0.00000  Uiso   1.00
C1118  C     0.84718   0.49470   0.58796   0.00000  Uiso   1.00
C1119  C     0.80509   0.47124   0.95682   0.00000  Uiso   1.00
C1120  C     0.85703   0.47207   0.54686   0.00000  Uiso   1.00
C1121  C     0.75707   0.46245   0.98116   0.00000  Uiso   1.00
C1122  C     0.90277   0.45449   0.52455   0.00000  Uiso   1.00
C1123  C     0.83812   0.46269   0.97862   0.00000  Uiso   1.00
C1124  C     0.82268   0.46630   0.52669   0.00000  Uiso   1.00
H1125  H     0.94921   0.46937   0.60842   0.00000  Uiso   1.00
H1126  H     0.71414   0.47957   0.89352   0.00000  Uiso   1.00
H1127  H     0.68791   0.45958   0.97453   0.00000  Uiso   1.00
H1128  H     0.96698   0.43592   0.53367   0.00000  Uiso   1.00
H1129  H     0.88502   0.62495   0.78247   0.00000  Uiso   1.00
H1130  H     0.78242   0.37521   0.71641   0.00000  Uiso   1.00
H1131  H     0.72791   0.45130   0.70174   0.00000  Uiso   1.00
H1132  H     0.93974   0.55027   0.79623   0.00000  Uiso   1.00
N1133  N     0.71426   0.50001   0.75001   0.00000  Uiso   1.00
N1134  N     0.95241   0.49999   0.74999   0.00000  Uiso   1.00
O1135  O     0.79512   0.56108   0.75001   0.00000  Uiso   1.00
O1136  O     0.87154   0.43892   0.74999   0.00000  Uiso   1.00
O1137  O     0.87157   0.56107   0.75000   0.00000  Uiso   1.00
O1138  O     0.79510   0.43893   0.75000   0.00000  Uiso   1.00
O1139  O     0.77328   0.50001   0.81612   0.00000  Uiso   1.00
O1140  O     0.89339   0.49999   0.68387   0.00000  Uiso   1.00
O1141  O     0.84972   0.50000   0.81612   0.00000  Uiso   1.00
O1142  O     0.81695   0.50000   0.68388   0.00000  Uiso   1.00
Zn1143 Zn    0.78229   0.50001   0.75000   0.00000  Uiso   1.00
Zn1144 Zn    0.88438   0.49999   0.75000   0.00000  Uiso   1.00
O1145  O     0.70052   0.43313   0.55206   0.00000  Uiso   1.00
C1146  C     0.70444   0.39004   0.54282   0.00000  Uiso   1.00
H1147  H     0.73266   0.37450   0.55349   0.00000  Uiso   1.00
H1148  H     0.71110   0.38399   0.50552   0.00000  Uiso   1.00
H1149  H     0.67026   0.37566   0.56327   0.00000  Uiso   1.00
O1150  O     0.95860   0.41814   0.95773   0.00000  Uiso   1.00
C1151  C     0.95569   0.37574   0.97054   0.00000  Uiso   1.00
H1152  H     0.93081   0.35946   0.95745   0.00000  Uiso   1.00
H1153  H     0.94493   0.37139   0.50875   0.00000  Uiso   1.00
H1154  H     0.99142   0.36077   0.95455   0.00000  Uiso   1.00
I1155  I     0.79069   0.54091   0.60603   0.00000  Uiso   1.00
I1156  I     0.87948   0.52919   0.89342   0.00000  Uiso   1.00
O1157  O     0.76003   0.44688   0.59947   0.00000  Uiso   1.00
C1158  C     0.78246   0.40984   0.60808   0.00000  Uiso   1.00
H1159  H     0.80961   0.41757   0.62342   0.00000  Uiso   1.00
H1160  H     0.79947   0.38992   0.57699   0.00000  Uiso   1.00
H1161  H     0.75535   0.39097   0.63405   0.00000  Uiso   1.00
O1162  O     0.89375   0.42519   0.91271   0.00000  Uiso   1.00
C1163  C     0.86520   0.38989   0.91728   0.00000  Uiso   1.00
H1164  H     0.83836   0.39647   0.90052   0.00000  Uiso   1.00
H1165  H     0.84635   0.37923   0.95368   0.00000  Uiso   1.00
H1166  H     0.88827   0.36333   0.89926   0.00000  Uiso   1.00
I1167  I     0.91399   0.37552   0.79714   0.00000  Uiso   1.00
I1168  I     0.75500   0.62483   0.69974   0.00000  Uiso   1.00
I1169  I     0.97488   0.42791   0.67964   0.00000  Uiso   1.00
I1170  I     0.69177   0.56867   0.82399   0.00000  Uiso   1.00
C1171  C     0.16628   0.91322   0.74917   0.00000  Uiso   1.00
C1172  C     0.16717   0.75346   0.75056   0.00000  Uiso   1.00
C1173  C     0.10862   0.78910   0.55231   0.00000  Uiso   1.00
C1174  C     0.21648   0.77691   0.95563   0.00000  Uiso   1.00
C1175  C     0.07701   0.78368   0.52844   0.00000  Uiso   1.00
C1176  C     0.24815   0.77081   0.97972   0.00000  Uiso   1.00
C1177  C     0.19602   0.97651   0.76774   0.00000  Uiso   1.00
C1178  C     0.13797   0.69027   0.73123   0.00000  Uiso   1.00
C1179  C     0.19833   0.68562   0.76791   0.00000  Uiso   1.00
C1180  C     0.13587   0.98115   0.73079   0.00000  Uiso   1.00
C1181  C     0.16847   0.70925   0.74993   0.00000  Uiso   1.00
C1182  C     0.16532   0.95749   0.74927   0.00000  Uiso   1.00
C1183  C     0.32064   0.80595   0.72325   0.00000  Uiso   1.00
C1184  C     0.01275   0.86046   0.77705   0.00000  Uiso   1.00
C1185  C     0.03473   0.80632   0.72319   0.00000  Uiso   1.00
C1186  C     0.29903   0.86099   0.77596   0.00000  Uiso   1.00
C1187  C     0.13712   0.83272   0.83804   0.00000  Uiso   1.00
C1188  C     0.19609   0.83340   0.66206   0.00000  Uiso   1.00
C1189  C     0.12003   0.82458   0.88843   0.00000  Uiso   1.00
C1190  C     0.21267   0.82504   0.61211   0.00000  Uiso   1.00
C1191  C     0.05799   0.79956   0.95764   0.00000  Uiso   1.00
C1192  C     0.26811   0.78672   0.54794   0.00000  Uiso   1.00
C1193  C     0.07297   0.81232   0.91129   0.00000  Uiso   1.00
C1194  C     0.25699   0.80517   0.59106   0.00000  Uiso   1.00
C1195  C     0.15191   0.82361   0.91297   0.00000  Uiso   1.00
C1196  C     0.18052   0.82803   0.58796   0.00000  Uiso   1.00
C1197  C     0.13842   0.80457   0.95682   0.00000  Uiso   1.00
C1198  C     0.19037   0.80540   0.54686   0.00000  Uiso   1.00
C1199  C     0.09040   0.79579   0.98116   0.00000  Uiso   1.00
C1200  C     0.23611   0.78782   0.52455   0.00000  Uiso   1.00
C1201  C     0.17146   0.79602   0.97862   0.00000  Uiso   1.00
C1202  C     0.15601   0.79964   0.52669   0.00000  Uiso   1.00
H1203  H     0.28254   0.80270   0.60842   0.00000  Uiso   1.00
H1204  H     0.04747   0.81291   0.89352   0.00000  Uiso   1.00
H1205  H     0.02125   0.79291   0.97453   0.00000  Uiso   1.00
H1206  H     0.30031   0.76925   0.53367   0.00000  Uiso   1.00
H1207  H     0.21835   0.95829   0.78247   0.00000  Uiso   1.00
H1208  H     0.11575   0.70854   0.71641   0.00000  Uiso   1.00
H1209  H     0.06124   0.78463   0.70174   0.00000  Uiso   1.00
H1210  H     0.27307   0.88360   0.79623   0.00000  Uiso   1.00
N1211  N     0.04759   0.83334   0.75001   0.00000  Uiso   1.00
N1212  N     0.28574   0.83332   0.74999   0.00000  Uiso   1.00
O1213  O     0.12846   0.89442   0.75001   0.00000  Uiso   1.00
O1214  O     0.20488   0.77225   0.74999   0.00000  Uiso   1.00
O1215  O     0.20490   0.89441   0.75000   0.00000  Uiso   1.00
O1216  O     0.12843   0.77226   0.75000   0.00000  Uiso   1.00
O1217  O     0.10661   0.83334   0.81612   0.00000  Uiso   1.00
O1218  O     0.22672   0.83333   0.68387   0.00000  Uiso   1.00
O1219  O     0.18305   0.83333   0.81612   0.00000  Uiso   1.00
O1220  O     0.15028   0.83334   0.68388   0.00000  Uiso   1.00
Zn1221 Zn    0.11562   0.83334   0.75000   0.00000  Uiso   1.00
Zn1222 Zn    0.21771   0.83333   0.75000   0.00000  Uiso   1.00
O1223  O     0.03385   0.76647   0.55206   0.00000  Uiso   1.00
C1224  C     0.03777   0.72337   0.54282   0.00000  Uiso   1.00
H1225  H     0.06599   0.70783   0.55349   0.00000  Uiso   1.00
H1226  H     0.04443   0.71732   0.50552   0.00000  Uiso   1.00
H1227  H     0.00360   0.70899   0.56327   0.00000  Uiso   1.00
O1228  O     0.29193   0.75147   0.95773   0.00000  Uiso   1.00
C1229  C     0.28903   0.70907   0.97054   0.00000  Uiso   1.00
H1230  H     0.26414   0.69279   0.95745   0.00000  Uiso   1.00
H1231  H     0.27826   0.70473   0.50875   0.00000  Uiso   1.00
H1232  H     0.32475   0.69411   0.95455   0.00000  Uiso   1.00
I1233  I     0.12402   0.87424   0.60603   0.00000  Uiso   1.00
I1234  I     0.21281   0.86252   0.89342   0.00000  Uiso   1.00
O1235  O     0.09337   0.78021   0.59947   0.00000  Uiso   1.00
C1236  C     0.11579   0.74318   0.60808   0.00000  Uiso   1.00
H1237  H     0.14295   0.75091   0.62342   0.00000  Uiso   1.00
H1238  H     0.13281   0.72325   0.57699   0.00000  Uiso   1.00
H1239  H     0.08868   0.72430   0.63405   0.00000  Uiso   1.00
O1240  O     0.22708   0.75852   0.91271   0.00000  Uiso   1.00
C1241  C     0.19853   0.72322   0.91728   0.00000  Uiso   1.00
H1242  H     0.17169   0.72981   0.90052   0.00000  Uiso   1.00
H1243  H     0.17968   0.71256   0.95368   0.00000  Uiso   1.00
H1244  H     0.22160   0.69667   0.89926   0.00000  Uiso   1.00
I1245  I     0.24732   0.70885   0.79714   0.00000  Uiso   1.00
I1246  I     0.08834   0.95816   0.69974   0.00000  Uiso   1.00
I1247  I     0.30821   0.76124   0.67964   0.00000  Uiso   1.00
I1248  I     0.02511   0.90200   0.82399   0.00000  Uiso   1.00
C1249  C     0.49961   0.91322   0.74917   0.00000  Uiso   1.00
C1250  C     0.50050   0.75346   0.75056   0.00000  Uiso   1.00
C1251  C     0.44195   0.78910   0.55231   0.00000  Uiso   1.00
C1252  C     0.54982   0.77691   0.95563   0.00000  Uiso   1.00
C1253  C     0.41034   0.78368   0.52844   0.00000  Uiso   1.00
C1254  C     0.58149   0.77081   0.97972   0.00000  Uiso   1.00
C1255  C     0.52936   0.97651   0.76774   0.00000  Uiso   1.00
C1256  C     0.47130   0.69027   0.73123   0.00000  Uiso   1.00
C1257  C     0.53167   0.68562   0.76791   0.00000  Uiso   1.00
C1258  C     0.46920   0.98115   0.73079   0.00000  Uiso   1.00
C1259  C     0.50181   0.70925   0.74993   0.00000  Uiso   1.00
C1260  C     0.49865   0.95749   0.74927   0.00000  Uiso   1.00
C1261  C     0.65398   0.80595   0.72325   0.00000  Uiso   1.00
C1262  C     0.34609   0.86046   0.77705   0.00000  Uiso   1.00
C1263  C     0.36806   0.80632   0.72319   0.00000  Uiso   1.00
C1264  C     0.63237   0.86099   0.77596   0.00000  Uiso   1.00
C1265  C     0.47046   0.83272   0.83804   0.00000  Uiso   1.00
C1266  C     0.52943   0.83340   0.66206   0.00000  Uiso   1.00
C1267  C     0.45336   0.82458   0.88843   0.00000  Uiso   1.00
C1268  C     0.54600   0.82504   0.61211   0.00000  Uiso   1.00
C1269  C     0.39132   0.79956   0.95764   0.00000  Uiso   1.00
C1270  C     0.60144   0.78672   0.54794   0.00000  Uiso   1.00
C1271  C     0.40631   0.81232   0.91129   0.00000  Uiso   1.00
C1272  C     0.59032   0.80517   0.59106   0.00000  Uiso   1.00
C1273  C     0.48524   0.82361   0.91297   0.00000  Uiso   1.00
C1274  C     0.51385   0.82803   0.58796   0.00000  Uiso   1.00
C1275  C     0.47175   0.80457   0.95682   0.00000  Uiso   1.00
C1276  C     0.52370   0.80540   0.54686   0.00000  Uiso   1.00
C1277  C     0.42374   0.79579   0.98116   0.00000  Uiso   1.00
C1278  C     0.56944   0.78782   0.52455   0.00000  Uiso   1.00
C1279  C     0.50479   0.79602   0.97862   0.00000  Uiso   1.00
C1280  C     0.48935   0.79964   0.52669   0.00000  Uiso   1.00
H1281  H     0.61587   0.80270   0.60842   0.00000  Uiso   1.00
H1282  H     0.38080   0.81291   0.89352   0.00000  Uiso   1.00
H1283  H     0.35458   0.79291   0.97453   0.00000  Uiso   1.00
H1284  H     0.63365   0.76925   0.53367   0.00000  Uiso   1.00
H1285  H     0.55169   0.95829   0.78247   0.00000  Uiso   1.00
H1286  H     0.44908   0.70854   0.71641   0.00000  Uiso   1.00
H1287  H     0.39458   0.78463   0.70174   0.00000  Uiso   1.00
H1288  H     0.60641   0.88360   0.79623   0.00000  Uiso   1.00
N1289  N     0.38093   0.83334   0.75001   0.00000  Uiso   1.00
N1290  N     0.61907   0.83332   0.74999   0.00000  Uiso   1.00
O1291  O     0.46179   0.89442   0.75001   0.00000  Uiso   1.00
O1292  O     0.53821   0.77225   0.74999   0.00000  Uiso   1.00
O1293  O     0.53823   0.89441   0.75000   0.00000  Uiso   1.00
O1294  O     0.46177   0.77226   0.75000   0.00000  Uiso   1.00
O1295  O     0.43994   0.83334   0.81612   0.00000  Uiso   1.00
O1296  O     0.56006   0.83333   0.68387   0.00000  Uiso   1.00
O1297  O     0.51639   0.83333   0.81612   0.00000  Uiso   1.00
O1298  O     0.48361   0.83334   0.68388   0.00000  Uiso   1.00
Zn1299 Zn    0.44896   0.83334   0.75000   0.00000  Uiso   1.00
Zn1300 Zn    0.55104   0.83333   0.75000   0.00000  Uiso   1.00
O1301  O     0.36718   0.76647   0.55206   0.00000  Uiso   1.00
C1302  C     0.37111   0.72337   0.54282   0.00000  Uiso   1.00
H1303  H     0.39932   0.70783   0.55349   0.00000  Uiso   1.00
H1304  H     0.37776   0.71732   0.50552   0.00000  Uiso   1.00
H1305  H     0.33693   0.70899   0.56327   0.00000  Uiso   1.00
O1306  O     0.62527   0.75147   0.95773   0.00000  Uiso   1.00
C1307  C     0.62236   0.70907   0.97054   0.00000  Uiso   1.00
H1308  H     0.59747   0.69279   0.95745   0.00000  Uiso   1.00
H1309  H     0.61160   0.70473   0.50875   0.00000  Uiso   1.00
H1310  H     0.65809   0.69411   0.95455   0.00000  Uiso   1.00
I1311  I     0.45735   0.87424   0.60603   0.00000  Uiso   1.00
I1312  I     0.54614   0.86252   0.89342   0.00000  Uiso   1.00
O1313  O     0.42670   0.78021   0.59947   0.00000  Uiso   1.00
C1314  C     0.44913   0.74318   0.60808   0.00000  Uiso   1.00
H1315  H     0.47628   0.75091   0.62342   0.00000  Uiso   1.00
H1316  H     0.46614   0.72325   0.57699   0.00000  Uiso   1.00
H1317  H     0.42201   0.72430   0.63405   0.00000  Uiso   1.00
O1318  O     0.56042   0.75852   0.91271   0.00000  Uiso   1.00
C1319  C     0.53186   0.72322   0.91728   0.00000  Uiso   1.00
H1320  H     0.50503   0.72981   0.90052   0.00000  Uiso   1.00
H1321  H     0.51301   0.71256   0.95368   0.00000  Uiso   1.00
H1322  H     0.55494   0.69667   0.89926   0.00000  Uiso   1.00
I1323  I     0.58065   0.70885   0.79714   0.00000  Uiso   1.00
I1324  I     0.42167   0.95816   0.69974   0.00000  Uiso   1.00
I1325  I     0.64155   0.76124   0.67964   0.00000  Uiso   1.00
I1326  I     0.35844   0.90200   0.82399   0.00000  Uiso   1.00
C1327  C     0.83295   0.91322   0.74917   0.00000  Uiso   1.00
C1328  C     0.83383   0.75346   0.75056   0.00000  Uiso   1.00
C1329  C     0.77528   0.78910   0.55231   0.00000  Uiso   1.00
C1330  C     0.88315   0.77691   0.95563   0.00000  Uiso   1.00
C1331  C     0.74367   0.78368   0.52844   0.00000  Uiso   1.00
C1332  C     0.91482   0.77081   0.97972   0.00000  Uiso   1.00
C1333  C     0.86269   0.97651   0.76774   0.00000  Uiso   1.00
C1334  C     0.80463   0.69027   0.73123   0.00000  Uiso   1.00
C1335  C     0.86500   0.68562   0.76791   0.00000  Uiso   1.00
C1336  C     0.80253   0.98115   0.73079   0.00000  Uiso   1.00
C1337  C     0.83514   0.70925   0.74993   0.00000  Uiso   1.00
C1338  C     0.83199   0.95749   0.74927   0.00000  Uiso   1.00
C1339  C     0.98731   0.80595   0.72325   0.00000  Uiso   1.00
C1340  C     0.67942   0.86046   0.77705   0.00000  Uiso   1.00
C1341  C     0.70140   0.80632   0.72319   0.00000  Uiso   1.00
C1342  C     0.96570   0.86099   0.77596   0.00000  Uiso   1.00
C1343  C     0.80379   0.83272   0.83804   0.00000  Uiso   1.00
C1344  C     0.86276   0.83340   0.66206   0.00000  Uiso   1.00
C1345  C     0.78670   0.82458   0.88843   0.00000  Uiso   1.00
C1346  C     0.87934   0.82504   0.61211   0.00000  Uiso   1.00
C1347  C     0.72465   0.79956   0.95764   0.00000  Uiso   1.00
C1348  C     0.93478   0.78672   0.54794   0.00000  Uiso   1.00
C1349  C     0.73964   0.81232   0.91129   0.00000  Uiso   1.00
C1350  C     0.92366   0.80517   0.59106   0.00000  Uiso   1.00
C1351  C     0.81858   0.82361   0.91297   0.00000  Uiso   1.00
C1352  C     0.84718   0.82803   0.58796   0.00000  Uiso   1.00
C1353  C     0.80509   0.80457   0.95682   0.00000  Uiso   1.00
C1354  C     0.85703   0.80540   0.54686   0.00000  Uiso   1.00
C1355  C     0.75707   0.79579   0.98116   0.00000  Uiso   1.00
C1356  C     0.90277   0.78782   0.52455   0.00000  Uiso   1.00
C1357  C     0.83812   0.79602   0.97862   0.00000  Uiso   1.00
C1358  C     0.82268   0.79964   0.52669   0.00000  Uiso   1.00
H1359  H     0.94921   0.80270   0.60842   0.00000  Uiso   1.00
H1360  H     0.71414   0.81291   0.89352   0.00000  Uiso   1.00
H1361  H     0.68791   0.79291   0.97453   0.00000  Uiso   1.00
H1362  H     0.96698   0.76925   0.53367   0.00000  Uiso   1.00
H1363  H     0.88502   0.95829   0.78247   0.00000  Uiso   1.00
H1364  H     0.78242   0.70854   0.71641   0.00000  Uiso   1.00
H1365  H     0.72791   0.78463   0.70174   0.00000  Uiso   1.00
H1366  H     0.93974   0.88360   0.79623   0.00000  Uiso   1.00
N1367  N     0.71426   0.83334   0.75001   0.00000  Uiso   1.00
N1368  N     0.95241   0.83332   0.74999   0.00000  Uiso   1.00
O1369  O     0.79512   0.89442   0.75001   0.00000  Uiso   1.00
O1370  O     0.87154   0.77225   0.74999   0.00000  Uiso   1.00
O1371  O     0.87157   0.89441   0.75000   0.00000  Uiso   1.00
O1372  O     0.79510   0.77226   0.75000   0.00000  Uiso   1.00
O1373  O     0.77328   0.83334   0.81612   0.00000  Uiso   1.00
O1374  O     0.89339   0.83333   0.68387   0.00000  Uiso   1.00
O1375  O     0.84972   0.83333   0.81612   0.00000  Uiso   1.00
O1376  O     0.81695   0.83334   0.68388   0.00000  Uiso   1.00
Zn1377 Zn    0.78229   0.83334   0.75000   0.00000  Uiso   1.00
Zn1378 Zn    0.88438   0.83333   0.75000   0.00000  Uiso   1.00
O1379  O     0.70052   0.76647   0.55206   0.00000  Uiso   1.00
C1380  C     0.70444   0.72337   0.54282   0.00000  Uiso   1.00
H1381  H     0.73266   0.70783   0.55349   0.00000  Uiso   1.00
H1382  H     0.71110   0.71732   0.50552   0.00000  Uiso   1.00
H1383  H     0.67026   0.70899   0.56327   0.00000  Uiso   1.00
O1384  O     0.95860   0.75147   0.95773   0.00000  Uiso   1.00
C1385  C     0.95569   0.70907   0.97054   0.00000  Uiso   1.00
H1386  H     0.93081   0.69279   0.95745   0.00000  Uiso   1.00
H1387  H     0.94493   0.70473   0.50875   0.00000  Uiso   1.00
H1388  H     0.99142   0.69411   0.95455   0.00000  Uiso   1.00
I1389  I     0.79069   0.87424   0.60603   0.00000  Uiso   1.00
I1390  I     0.87948   0.86252   0.89342   0.00000  Uiso   1.00
O1391  O     0.76003   0.78021   0.59947   0.00000  Uiso   1.00
C1392  C     0.78246   0.74318   0.60808   0.00000  Uiso   1.00
H1393  H     0.80961   0.75091   0.62342   0.00000  Uiso   1.00
H1394  H     0.79947   0.72325   0.57699   0.00000  Uiso   1.00
H1395  H     0.75535   0.72430   0.63405   0.00000  Uiso   1.00
O1396  O     0.89375   0.75852   0.91271   0.00000  Uiso   1.00
C1397  C     0.86520   0.72322   0.91728   0.00000  Uiso   1.00
H1398  H     0.83836   0.72981   0.90052   0.00000  Uiso   1.00
H1399  H     0.84635   0.71256   0.95368   0.00000  Uiso   1.00
H1400  H     0.88827   0.69667   0.89926   0.00000  Uiso   1.00
I1401  I     0.91399   0.70885   0.79714   0.00000  Uiso   1.00
I1402  I     0.75500   0.95816   0.69974   0.00000  Uiso   1.00
I1403  I     0.97488   0.76124   0.67964   0.00000  Uiso   1.00
I1404  I     0.69177   0.90200   0.82399   0.00000  Uiso   1.00
loop_
_geom_bond_atom_site_label_1
_geom_bond_atom_site_label_2
_geom_bond_distance
_geom_bond_site_symmetry_2
_ccdc_geom_bond_type
C1     O45     1.298   .     A
C1     O43     1.294   .     A
C1     C12     1.423   .     S
C2     O46     1.298   .     A
C2     O44     1.293   .     A
C2     C11     1.422   .     S
C3     O65     1.388   .     S
C3     C5      1.402   .     A
C3     C32     1.413   .     A
C4     O70     1.384   .     S
C4     C6      1.401   .     A
C4     C31     1.414   .     A
C5     O53     1.373   .     S
C5     C731    1.419   1_554 S
C6     O58     1.383   .     S
C6     C732    1.413   .     S
C7     C12     1.398   .     A
C7     H37     1.084   .     S
C7     C243    1.370   .     S
C8     H38     1.084   .     S
C8     C11     1.397   .     A
C8     C478    1.370   1_545 S
C9     C11     1.405   .     A
C9     I75     2.129   .     S
C9     C475    1.370   1_545 S
C10    I76     2.127   .     S
C10    C12     1.406   .     A
C10    C242    1.370   .     S
C13    N42     1.384   .     A
C13    I77     2.109   .     S
C13    C93     1.421   .     S
C14    N41     1.381   .     A
C14    I78     2.115   .     S
C14    C172    1.422   1_455 S
C15    N41     1.360   .     A
C15    H39     1.082   .     S
C15    C169    1.421   1_455 S
C16    H40     1.080   .     S
C16    N42     1.362   .     A
C16    C92     1.422   .     S
C17    O49     1.306   .     A
C17    O47     1.311   .     A
C17    C19     1.475   .     S
C18    C20     1.467   .     S
C18    O50     1.302   .     A
C18    O48     1.312   .     A
C19    C23     1.405   .     A
C19    C25     1.408   .     A
C20    C24     1.398   .     A
C20    C26     1.407   .     A
C21    C29     1.401   .     A
C21    H35     1.068   .     S
C21    C23     1.396   .     A
C22    C24     1.388   .     A
C22    C30     1.385   .     A
C22    H36     1.058   .     S
C23    H34     1.083   .     S
C24    H33     1.076   .     S
C25    I64     2.148   .     S
C25    C27     1.402   .     A
C26    I63     2.146   .     S
C26    C28     1.404   .     A
C27    C29     1.407   .     A
C27    C31     1.395   .     A
C28    C32     1.393   .     A
C28    C30     1.407   .     A
C29    C707    1.419   .     S
C30    C708    1.413   1_554 S
C31    C734    1.393   .     S
C32    C733    1.393   1_554 S
N41    Zn51    2.040   .     S
N42    Zn52    2.040   .     S
O43    Zn51    2.014   .     S
O44    Zn52    2.014   .     S
O45    Zn52    1.991   .     S
O46    Zn51    1.991   .     S
O47    Zn51    1.956   .     S
O48    Zn52    1.956   .     S
O49    Zn52    1.935   .     S
O50    Zn51    1.935   .     S
O53    C54     1.413   .     S
C54    H56     1.113   .     S
C54    H55     1.112   .     S
C54    H57     1.109   .     S
O58    C59     1.411   .     S
C59    H62     1.109   .     S
C59    H60     1.110   .     S
C59    H763    1.113   .     S
H61    C761    1.113   1_554 S
O65    C66     1.417   .     S
C66    H68     1.116   .     S
C66    H69     1.109   .     S
C66    H67     1.109   .     S
O70    C71     1.419   .     S
C71    H73     1.118   .     S
C71    H74     1.108   .     S
C71    H72     1.110   .     S
C79    O123    1.298   .     A
C79    O121    1.294   .     A
C79    C90     1.423   .     S
C80    O124    1.298   .     A
C80    O122    1.293   .     A
C80    C89     1.422   .     S
C81    O143    1.388   .     S
C81    C83     1.402   .     A
C81    C110    1.413   .     A
C82    O148    1.384   .     S
C82    C84     1.401   .     A
C82    C109    1.414   .     A
C83    O131    1.373   .     S
C83    C809    1.419   1_554 S
C84    O136    1.383   .     S
C84    C810    1.413   .     S
C85    C90     1.398   .     A
C85    H115    1.084   .     S
C85    C321    1.370   .     S
C86    H116    1.084   .     S
C86    C89     1.397   .     A
C86    C556    1.370   1_545 S
C87    C89     1.405   .     A
C87    I153    2.129   .     S
C87    C553    1.370   1_545 S
C88    I154    2.127   .     S
C88    C90     1.406   .     A
C88    C320    1.370   .     S
C91    N120    1.384   .     A
C91    I155    2.109   .     S
C91    C171    1.421   .     S
C92    N119    1.381   .     A
C92    I156    2.115   .     S
C93    N119    1.360   .     A
C93    H117    1.082   .     S
C94    H118    1.080   .     S
C94    N120    1.362   .     A
C94    C170    1.422   .     S
C95    O127    1.306   .     A
C95    O125    1.311   .     A
C95    C97     1.475   .     S
C96    C98     1.467   .     S
C96    O128    1.302   .     A
C96    O126    1.312   .     A
C97    C101    1.405   .     A
C97    C103    1.408   .     A
C98    C102    1.398   .     A
C98    C104    1.407   .     A
C99    C107    1.401   .     A
C99    H113    1.068   .     S
C99    C101    1.396   .     A
C100   C102    1.388   .     A
C100   C108    1.385   .     A
C100   H114    1.058   .     S
C101   H112    1.083   .     S
C102   H111    1.076   .     S
C103   I142    2.148   .     S
C103   C105    1.402   .     A
C104   I141    2.146   .     S
C104   C106    1.404   .     A
C105   C107    1.407   .     A
C105   C109    1.395   .     A
C106   C110    1.393   .     A
C106   C108    1.407   .     A
C107   C785    1.419   .     S
C108   C786    1.413   1_554 S
C109   C812    1.393   .     S
C110   C811    1.393   1_554 S
N119   Zn129   2.040   .     S
N120   Zn130   2.040   .     S
O121   Zn129   2.014   .     S
O122   Zn130   2.014   .     S
O123   Zn130   1.991   .     S
O124   Zn129   1.991   .     S
O125   Zn129   1.956   .     S
O126   Zn130   1.956   .     S
O127   Zn130   1.935   .     S
O128   Zn129   1.935   .     S
O131   C132    1.413   .     S
C132   H134    1.113   .     S
C132   H133    1.112   .     S
C132   H135    1.109   .     S
O136   C137    1.411   .     S
C137   H140    1.109   .     S
C137   H138    1.110   .     S
C137   H841    1.113   .     S
H139   C839    1.113   1_554 S
O143   C144    1.417   .     S
C144   H146    1.116   .     S
C144   H147    1.109   .     S
C144   H145    1.109   .     S
O148   C149    1.419   .     S
C149   H151    1.118   .     S
C149   H152    1.108   .     S
C149   H150    1.110   .     S
C157   O201    1.298   .     A
C157   O199    1.294   .     A
C157   C168    1.423   .     S
C158   O202    1.298   .     A
C158   O200    1.293   .     A
C158   C167    1.422   .     S
C159   O221    1.388   .     S
C159   C161    1.402   .     A
C159   C188    1.413   .     A
C160   O226    1.384   .     S
C160   C162    1.401   .     A
C160   C187    1.414   .     A
C161   O209    1.373   .     S
C161   C887    1.419   1_554 S
C162   O214    1.383   .     S
C162   C888    1.413   .     S
C163   C168    1.398   .     A
C163   H193    1.084   .     S
C163   C399    1.370   .     S
C164   H194    1.084   .     S
C164   C167    1.397   .     A
C164   C634    1.370   1_545 S
C165   C167    1.405   .     A
C165   I231    2.129   .     S
C165   C631    1.370   1_545 S
C166   I232    2.127   .     S
C166   C168    1.406   .     A
C166   C398    1.370   .     S
C169   N198    1.384   .     A
C169   I233    2.109   .     S
C169   C15     1.421   1_655 S
C170   N197    1.381   .     A
C170   I234    2.115   .     S
C171   N197    1.360   .     A
C171   H195    1.082   .     S
C172   H196    1.080   .     S
C172   N198    1.362   .     A
C172   C14     1.422   1_655 S
C173   O205    1.306   .     A
C173   O203    1.311   .     A
C173   C175    1.475   .     S
C174   C176    1.467   .     S
C174   O206    1.302   .     A
C174   O204    1.312   .     A
C175   C179    1.405   .     A
C175   C181    1.408   .     A
C176   C180    1.398   .     A
C176   C182    1.407   .     A
C177   C185    1.401   .     A
C177   H191    1.068   .     S
C177   C179    1.396   .     A
C178   C180    1.388   .     A
C178   C186    1.385   .     A
C178   H192    1.058   .     S
C179   H190    1.083   .     S
C180   H189    1.076   .     S
C181   I220    2.148   .     S
C181   C183    1.402   .     A
C182   I219    2.146   .     S
C182   C184    1.404   .     A
C183   C185    1.407   .     A
C183   C187    1.395   .     A
C184   C188    1.393   .     A
C184   C186    1.407   .     A
C185   C863    1.419   .     S
C186   C864    1.413   1_554 S
C187   C890    1.393   .     S
C188   C889    1.393   1_554 S
N197   Zn207   2.040   .     S
N198   Zn208   2.040   .     S
O199   Zn207   2.014   .     S
O200   Zn208   2.014   .     S
O201   Zn208   1.991   .     S
O202   Zn207   1.991   .     S
O203   Zn207   1.956   .     S
O204   Zn208   1.956   .     S
O205   Zn208   1.935   .     S
O206   Zn207   1.935   .     S
O209   C210    1.413   .     S
C210   H212    1.113   .     S
C210   H211    1.112   .     S
C210   H213    1.109   .     S
O214   C215    1.411   .     S
C215   H218    1.109   .     S
C215   H216    1.110   .     S
C215   H919    1.113   .     S
H217   C917    1.113   1_554 S
O221   C222    1.417   .     S
C222   H224    1.116   .     S
C222   H225    1.109   .     S
C222   H223    1.109   .     S
O226   C227    1.419   .     S
C227   H229    1.118   .     S
C227   H230    1.108   .     S
C227   H228    1.110   .     S
C235   O279    1.298   .     A
C235   O277    1.294   .     A
C235   C246    1.423   .     S
C236   O280    1.298   .     A
C236   O278    1.293   .     A
C236   C245    1.422   .     S
C237   O299    1.388   .     S
C237   C239    1.402   .     A
C237   C266    1.413   .     A
C238   O304    1.384   .     S
C238   C240    1.401   .     A
C238   C265    1.414   .     A
C239   O287    1.373   .     S
C239   C965    1.419   1_554 S
C240   O292    1.383   .     S
C240   C966    1.413   .     S
C241   C246    1.398   .     A
C241   H271    1.084   .     S
C241   C477    1.370   .     S
C242   H272    1.084   .     S
C242   C245    1.397   .     A
C243   C245    1.405   .     A
C243   I309    2.129   .     S
C244   I310    2.127   .     S
C244   C246    1.406   .     A
C244   C476    1.370   .     S
C247   N276    1.384   .     A
C247   I311    2.109   .     S
C247   C327    1.421   .     S
C248   N275    1.381   .     A
C248   I312    2.115   .     S
C248   C406    1.422   1_455 S
C249   N275    1.360   .     A
C249   H273    1.082   .     S
C249   C403    1.421   1_455 S
C250   H274    1.080   .     S
C250   N276    1.362   .     A
C250   C326    1.422   .     S
C251   O283    1.306   .     A
C251   O281    1.311   .     A
C251   C253    1.475   .     S
C252   C254    1.467   .     S
C252   O284    1.302   .     A
C252   O282    1.312   .     A
C253   C257    1.405   .     A
C253   C259    1.408   .     A
C254   C258    1.398   .     A
C254   C260    1.407   .     A
C255   C263    1.401   .     A
C255   H269    1.068   .     S
C255   C257    1.396   .     A
C256   C258    1.388   .     A
C256   C264    1.385   .     A
C256   H270    1.058   .     S
C257   H268    1.083   .     S
C258   H267    1.076   .     S
C259   I298    2.148   .     S
C259   C261    1.402   .     A
C260   I297    2.146   .     S
C260   C262    1.404   .     A
C261   C263    1.407   .     A
C261   C265    1.395   .     A
C262   C266    1.393   .     A
C262   C264    1.407   .     A
C263   C941    1.419   .     S
C264   C942    1.413   1_554 S
C265   C968    1.393   .     S
C266   C967    1.393   1_554 S
N275   Zn285   2.040   .     S
N276   Zn286   2.040   .     S
O277   Zn285   2.014   .     S
O278   Zn286   2.014   .     S
O279   Zn286   1.991   .     S
O280   Zn285   1.991   .     S
O281   Zn285   1.956   .     S
O282   Zn286   1.956   .     S
O283   Zn286   1.935   .     S
O284   Zn285   1.935   .     S
O287   C288    1.413   .     S
C288   H290    1.113   .     S
C288   H289    1.112   .     S
C288   H291    1.109   .     S
O292   C293    1.411   .     S
C293   H296    1.109   .     S
C293   H294    1.110   .     S
C293   H997    1.113   .     S
H295   C995    1.113   1_554 S
O299   C300    1.417   .     S
C300   H302    1.116   .     S
C300   H303    1.109   .     S
C300   H301    1.109   .     S
O304   C305    1.419   .     S
C305   H307    1.118   .     S
C305   H308    1.108   .     S
C305   H306    1.110   .     S
C313   O357    1.298   .     A
C313   O355    1.294   .     A
C313   C324    1.423   .     S
C314   O358    1.298   .     A
C314   O356    1.293   .     A
C314   C323    1.422   .     S
C315   O377    1.388   .     S
C315   C317    1.402   .     A
C315   C344    1.413   .     A
C316   O382    1.384   .     S
C316   C318    1.401   .     A
C316   C343    1.414   .     A
C317   O365    1.373   .     S
C317   C1043   1.419   1_554 S
C318   O370    1.383   .     S
C318   C1044   1.413   .     S
C319   C324    1.398   .     A
C319   H349    1.084   .     S
C319   C555    1.370   .     S
C320   H350    1.084   .     S
C320   C323    1.397   .     A
C321   C323    1.405   .     A
C321   I387    2.129   .     S
C322   I388    2.127   .     S
C322   C324    1.406   .     A
C322   C554    1.370   .     S
C325   N354    1.384   .     A
C325   I389    2.109   .     S
C325   C405    1.421   .     S
C326   N353    1.381   .     A
C326   I390    2.115   .     S
C327   N353    1.360   .     A
C327   H351    1.082   .     S
C328   H352    1.080   .     S
C328   N354    1.362   .     A
C328   C404    1.422   .     S
C329   O361    1.306   .     A
C329   O359    1.311   .     A
C329   C331    1.475   .     S
C330   C332    1.467   .     S
C330   O362    1.302   .     A
C330   O360    1.312   .     A
C331   C335    1.405   .     A
C331   C337    1.408   .     A
C332   C336    1.398   .     A
C332   C338    1.407   .     A
C333   C341    1.401   .     A
C333   H347    1.068   .     S
C333   C335    1.396   .     A
C334   C336    1.388   .     A
C334   C342    1.385   .     A
C334   H348    1.058   .     S
C335   H346    1.083   .     S
C336   H345    1.076   .     S
C337   I376    2.148   .     S
C337   C339    1.402   .     A
C338   I375    2.146   .     S
C338   C340    1.404   .     A
C339   C341    1.407   .     A
C339   C343    1.395   .     A
C340   C344    1.393   .     A
C340   C342    1.407   .     A
C341   C1019   1.419   .     S
C342   C1020   1.413   1_554 S
C343   C1046   1.393   .     S
C344   C1045   1.393   1_554 S
N353   Zn363   2.040   .     S
N354   Zn364   2.040   .     S
O355   Zn363   2.014   .     S
O356   Zn364   2.014   .     S
O357   Zn364   1.991   .     S
O358   Zn363   1.991   .     S
O359   Zn363   1.956   .     S
O360   Zn364   1.956   .     S
O361   Zn364   1.935   .     S
O362   Zn363   1.935   .     S
O365   C366    1.413   .     S
C366   H368    1.113   .     S
C366   H367    1.112   .     S
C366   H369    1.109   .     S
O370   C371    1.411   .     S
C371   H374    1.109   .     S
C371   H372    1.110   .     S
C371   H1075   1.113   .     S
H373   C1073   1.113   1_554 S
O377   C378    1.417   .     S
C378   H380    1.116   .     S
C378   H381    1.109   .     S
C378   H379    1.109   .     S
O382   C383    1.419   .     S
C383   H385    1.118   .     S
C383   H386    1.108   .     S
C383   H384    1.110   .     S
C391   O435    1.298   .     A
C391   O433    1.294   .     A
C391   C402    1.423   .     S
C392   O436    1.298   .     A
C392   O434    1.293   .     A
C392   C401    1.422   .     S
C393   O455    1.388   .     S
C393   C395    1.402   .     A
C393   C422    1.413   .     A
C394   O460    1.384   .     S
C394   C396    1.401   .     A
C394   C421    1.414   .     A
C395   O443    1.373   .     S
C395   C1121   1.419   1_554 S
C396   O448    1.383   .     S
C396   C1122   1.413   .     S
C397   C402    1.398   .     A
C397   H427    1.084   .     S
C397   C633    1.370   .     S
C398   H428    1.084   .     S
C398   C401    1.397   .     A
C399   C401    1.405   .     A
C399   I465    2.129   .     S
C400   I466    2.127   .     S
C400   C402    1.406   .     A
C400   C632    1.370   .     S
C403   N432    1.384   .     A
C403   I467    2.109   .     S
C403   C249    1.421   1_655 S
C404   N431    1.381   .     A
C404   I468    2.115   .     S
C405   N431    1.360   .     A
C405   H429    1.082   .     S
C406   H430    1.080   .     S
C406   N432    1.362   .     A
C406   C248    1.422   1_655 S
C407   O439    1.306   .     A
C407   O437    1.311   .     A
C407   C409    1.475   .     S
C408   C410    1.467   .     S
C408   O440    1.302   .     A
C408   O438    1.312   .     A
C409   C413    1.405   .     A
C409   C415    1.408   .     A
C410   C414    1.398   .     A
C410   C416    1.407   .     A
C411   C419    1.401   .     A
C411   H425    1.068   .     S
C411   C413    1.396   .     A
C412   C414    1.388   .     A
C412   C420    1.385   .     A
C412   H426    1.058   .     S
C413   H424    1.083   .     S
C414   H423    1.076   .     S
C415   I454    2.148   .     S
C415   C417    1.402   .     A
C416   I453    2.146   .     S
C416   C418    1.404   .     A
C417   C419    1.407   .     A
C417   C421    1.395   .     A
C418   C422    1.393   .     A
C418   C420    1.407   .     A
C419   C1097   1.419   .     S
C420   C1098   1.413   1_554 S
C421   C1124   1.393   .     S
C422   C1123   1.393   1_554 S
N431   Zn441   2.040   .     S
N432   Zn442   2.040   .     S
O433   Zn441   2.014   .     S
O434   Zn442   2.014   .     S
O435   Zn442   1.991   .     S
O436   Zn441   1.991   .     S
O437   Zn441   1.956   .     S
O438   Zn442   1.956   .     S
O439   Zn442   1.935   .     S
O440   Zn441   1.935   .     S
O443   C444    1.413   .     S
C444   H446    1.113   .     S
C444   H445    1.112   .     S
C444   H447    1.109   .     S
O448   C449    1.411   .     S
C449   H452    1.109   .     S
C449   H450    1.110   .     S
C449   H1153   1.113   .     S
H451   C1151   1.113   1_554 S
O455   C456    1.417   .     S
C456   H458    1.116   .     S
C456   H459    1.109   .     S
C456   H457    1.109   .     S
O460   C461    1.419   .     S
C461   H463    1.118   .     S
C461   H464    1.108   .     S
C461   H462    1.110   .     S
C469   O513    1.298   .     A
C469   O511    1.294   .     A
C469   C480    1.423   .     S
C470   O514    1.298   .     A
C470   O512    1.293   .     A
C470   C479    1.422   .     S
C471   O533    1.388   .     S
C471   C473    1.402   .     A
C471   C500    1.413   .     A
C472   O538    1.384   .     S
C472   C474    1.401   .     A
C472   C499    1.414   .     A
C473   O521    1.373   .     S
C473   C1199   1.419   1_554 S
C474   O526    1.383   .     S
C474   C1200   1.413   .     S
C475   C480    1.398   .     A
C475   H505    1.084   .     S
C475   C9      1.370   1_565 S
C476   H506    1.084   .     S
C476   C479    1.397   .     A
C477   C479    1.405   .     A
C477   I543    2.129   .     S
C478   I544    2.127   .     S
C478   C480    1.406   .     A
C478   C8      1.370   1_565 S
C481   N510    1.384   .     A
C481   I545    2.109   .     S
C481   C561    1.421   .     S
C482   N509    1.381   .     A
C482   I546    2.115   .     S
C482   C640    1.422   1_455 S
C483   N509    1.360   .     A
C483   H507    1.082   .     S
C483   C637    1.421   1_455 S
C484   H508    1.080   .     S
C484   N510    1.362   .     A
C484   C560    1.422   .     S
C485   O517    1.306   .     A
C485   O515    1.311   .     A
C485   C487    1.475   .     S
C486   C488    1.467   .     S
C486   O518    1.302   .     A
C486   O516    1.312   .     A
C487   C491    1.405   .     A
C487   C493    1.408   .     A
C488   C492    1.398   .     A
C488   C494    1.407   .     A
C489   C497    1.401   .     A
C489   H503    1.068   .     S
C489   C491    1.396   .     A
C490   C492    1.388   .     A
C490   C498    1.385   .     A
C490   H504    1.058   .     S
C491   H502    1.083   .     S
C492   H501    1.076   .     S
C493   I532    2.148   .     S
C493   C495    1.402   .     A
C494   I531    2.146   .     S
C494   C496    1.404   .     A
C495   C497    1.407   .     A
C495   C499    1.395   .     A
C496   C500    1.393   .     A
C496   C498    1.407   .     A
C497   C1175   1.419   .     S
C498   C1176   1.413   1_554 S
C499   C1202   1.393   .     S
C500   C1201   1.393   1_554 S
N509   Zn519   2.040   .     S
N510   Zn520   2.040   .     S
O511   Zn519   2.014   .     S
O512   Zn520   2.014   .     S
O513   Zn520   1.991   .     S
O514   Zn519   1.991   .     S
O515   Zn519   1.956   .     S
O516   Zn520   1.956   .     S
O517   Zn520   1.935   .     S
O518   Zn519   1.935   .     S
O521   C522    1.413   .     S
C522   H524    1.113   .     S
C522   H523    1.112   .     S
C522   H525    1.109   .     S
O526   C527    1.411   .     S
C527   H530    1.109   .     S
C527   H528    1.110   .     S
C527   H1231   1.113   .     S
H529   C1229   1.113   1_554 S
O533   C534    1.417   .     S
C534   H536    1.116   .     S
C534   H537    1.109   .     S
C534   H535    1.109   .     S
O538   C539    1.419   .     S
C539   H541    1.118   .     S
C539   H542    1.108   .     S
C539   H540    1.110   .     S
C547   O591    1.298   .     A
C547   O589    1.294   .     A
C547   C558    1.423   .     S
C548   O592    1.298   .     A
C548   O590    1.293   .     A
C548   C557    1.422   .     S
C549   O611    1.388   .     S
C549   C551    1.402   .     A
C549   C578    1.413   .     A
C550   O616    1.384   .     S
C550   C552    1.401   .     A
C550   C577    1.414   .     A
C551   O599    1.373   .     S
C551   C1277   1.419   1_554 S
C552   O604    1.383   .     S
C552   C1278   1.413   .     S
C553   C558    1.398   .     A
C553   H583    1.084   .     S
C553   C87     1.370   1_565 S
C554   H584    1.084   .     S
C554   C557    1.397   .     A
C555   C557    1.405   .     A
C555   I621    2.129   .     S
C556   I622    2.127   .     S
C556   C558    1.406   .     A
C556   C86     1.370   1_565 S
C559   N588    1.384   .     A
C559   I623    2.109   .     S
C559   C639    1.421   .     S
C560   N587    1.381   .     A
C560   I624    2.115   .     S
C561   N587    1.360   .     A
C561   H585    1.082   .     S
C562   H586    1.080   .     S
C562   N588    1.362   .     A
C562   C638    1.422   .     S
C563   O595    1.306   .     A
C563   O593    1.311   .     A
C563   C565    1.475   .     S
C564   C566    1.467   .     S
C564   O596    1.302   .     A
C564   O594    1.312   .     A
C565   C569    1.405   .     A
C565   C571    1.408   .     A
C566   C570    1.398   .     A
C566   C572    1.407   .     A
C567   C575    1.401   .     A
C567   H581    1.068   .     S
C567   C569    1.396   .     A
C568   C570    1.388   .     A
C568   C576    1.385   .     A
C568   H582    1.058   .     S
C569   H580    1.083   .     S
C570   H579    1.076   .     S
C571   I610    2.148   .     S
C571   C573    1.402   .     A
C572   I609    2.146   .     S
C572   C574    1.404   .     A
C573   C575    1.407   .     A
C573   C577    1.395   .     A
C574   C578    1.393   .     A
C574   C576    1.407   .     A
C575   C1253   1.419   .     S
C576   C1254   1.413   1_554 S
C577   C1280   1.393   .     S
C578   C1279   1.393   1_554 S
N587   Zn597   2.040   .     S
N588   Zn598   2.040   .     S
O589   Zn597   2.014   .     S
O590   Zn598   2.014   .     S
O591   Zn598   1.991   .     S
O592   Zn597   1.991   .     S
O593   Zn597   1.956   .     S
O594   Zn598   1.956   .     S
O595   Zn598   1.935   .     S
O596   Zn597   1.935   .     S
O599   C600    1.413   .     S
C600   H602    1.113   .     S
C600   H601    1.112   .     S
C600   H603    1.109   .     S
O604   C605    1.411   .     S
C605   H608    1.109   .     S
C605   H606    1.110   .     S
C605   H1309   1.113   .     S
H607   C1307   1.113   1_554 S
O611   C612    1.417   .     S
C612   H614    1.116   .     S
C612   H615    1.109   .     S
C612   H613    1.109   .     S
O616   C617    1.419   .     S
C617   H619    1.118   .     S
C617   H620    1.108   .     S
C617   H618    1.110   .     S
C625   O669    1.298   .     A
C625   O667    1.294   .     A
C625   C636    1.423   .     S
C626   O670    1.298   .     A
C626   O668    1.293   .     A
C626   C635    1.422   .     S
C627   O689    1.388   .     S
C627   C629    1.402   .     A
C627   C656    1.413   .     A
C628   O694    1.384   .     S
C628   C630    1.401   .     A
C628   C655    1.414   .     A
C629   O677    1.373   .     S
C629   C1355   1.419   1_554 S
C630   O682    1.383   .     S
C630   C1356   1.413   .     S
C631   C636    1.398   .     A
C631   H661    1.084   .     S
C631   C165    1.370   1_565 S
C632   H662    1.084   .     S
C632   C635    1.397   .     A
C633   C635    1.405   .     A
C633   I699    2.129   .     S
C634   I700    2.127   .     S
C634   C636    1.406   .     A
C634   C164    1.370   1_565 S
C637   N666    1.384   .     A
C637   I701    2.109   .     S
C637   C483    1.421   1_655 S
C638   N665    1.381   .     A
C638   I702    2.115   .     S
C639   N665    1.360   .     A
C639   H663    1.082   .     S
C640   H664    1.080   .     S
C640   N666    1.362   .     A
C640   C482    1.422   1_655 S
C641   O673    1.306   .     A
C641   O671    1.311   .     A
C641   C643    1.475   .     S
C642   C644    1.467   .     S
C642   O674    1.302   .     A
C642   O672    1.312   .     A
C643   C647    1.405   .     A
C643   C649    1.408   .     A
C644   C648    1.398   .     A
C644   C650    1.407   .     A
C645   C653    1.401   .     A
C645   H659    1.068   .     S
C645   C647    1.396   .     A
C646   C648    1.388   .     A
C646   C654    1.385   .     A
C646   H660    1.058   .     S
C647   H658    1.083   .     S
C648   H657    1.076   .     S
C649   I688    2.148   .     S
C649   C651    1.402   .     A
C650   I687    2.146   .     S
C650   C652    1.404   .     A
C651   C653    1.407   .     A
C651   C655    1.395   .     A
C652   C656    1.393   .     A
C652   C654    1.407   .     A
C653   C1331   1.419   .     S
C654   C1332   1.413   1_554 S
C655   C1358   1.393   .     S
C656   C1357   1.393   1_554 S
N665   Zn675   2.040   .     S
N666   Zn676   2.040   .     S
O667   Zn675   2.014   .     S
O668   Zn676   2.014   .     S
O669   Zn676   1.991   .     S
O670   Zn675   1.991   .     S
O671   Zn675   1.956   .     S
O672   Zn676   1.956   .     S
O673   Zn676   1.935   .     S
O674   Zn675   1.935   .     S
O677   C678    1.413   .     S
C678   H680    1.113   .     S
C678   H679    1.112   .     S
C678   H681    1.109   .     S
O682   C683    1.411   .     S
C683   H686    1.109   .     S
C683   H684    1.110   .     S
C683   H1387   1.113   .     S
H685   C1385   1.113   1_554 S
O689   C690    1.417   .     S
C690   H692    1.116   .     S
C690   H693    1.109   .     S
C690   H691    1.109   .     S
O694   C695    1.419   .     S
C695   H697    1.118   .     S
C695   H698    1.108   .     S
C695   H696    1.110   .     S
C703   O747    1.298   .     A
C703   O745    1.294   .     A
C703   C714    1.423   .     S
C704   O748    1.298   .     A
C704   O746    1.293   .     A
C704   C713    1.422   .     S
C705   O767    1.388   .     S
C705   C707    1.402   .     A
C705   C734    1.413   .     A
C706   O772    1.384   .     S
C706   C708    1.401   .     A
C706   C733    1.414   .     A
C707   O755    1.373   .     S
C708   O760    1.383   .     S
C708   C30     1.413   1_556 S
C709   C714    1.398   .     A
C709   H739    1.084   .     S
C709   C945    1.370   .     S
C710   H740    1.084   .     S
C710   C713    1.397   .     A
C710   C1180   1.370   1_545 S
C711   C713    1.405   .     A
C711   I777    2.129   .     S
C711   C1177   1.370   1_545 S
C712   I778    2.127   .     S
C712   C714    1.406   .     A
C712   C944    1.370   .     S
C715   N744    1.384   .     A
C715   I779    2.109   .     S
C715   C795    1.421   .     S
C716   N743    1.381   .     A
C716   I780    2.115   .     S
C716   C874    1.422   1_455 S
C717   N743    1.360   .     A
C717   H741    1.082   .     S
C717   C871    1.421   1_455 S
C718   H742    1.080   .     S
C718   N744    1.362   .     A
C718   C794    1.422   .     S
C719   O751    1.306   .     A
C719   O749    1.311   .     A
C719   C721    1.475   .     S
C720   C722    1.467   .     S
C720   O752    1.302   .     A
C720   O750    1.312   .     A
C721   C725    1.405   .     A
C721   C727    1.408   .     A
C722   C726    1.398   .     A
C722   C728    1.407   .     A
C723   C731    1.401   .     A
C723   H737    1.068   .     S
C723   C725    1.396   .     A
C724   C726    1.388   .     A
C724   C732    1.385   .     A
C724   H738    1.058   .     S
C725   H736    1.083   .     S
C726   H735    1.076   .     S
C727   I766    2.148   .     S
C727   C729    1.402   .     A
C728   I765    2.146   .     S
C728   C730    1.404   .     A
C729   C731    1.407   .     A
C729   C733    1.395   .     A
C730   C734    1.393   .     A
C730   C732    1.407   .     A
C731   C5      1.419   1_556 S
C733   C32     1.393   1_556 S
N743   Zn753   2.040   .     S
N744   Zn754   2.040   .     S
O745   Zn753   2.014   .     S
O746   Zn754   2.014   .     S
O747   Zn754   1.991   .     S
O748   Zn753   1.991   .     S
O749   Zn753   1.956   .     S
O750   Zn754   1.956   .     S
O751   Zn754   1.935   .     S
O752   Zn753   1.935   .     S
O755   C756    1.413   .     S
C756   H758    1.113   .     S
C756   H757    1.112   .     S
C756   H759    1.109   .     S
O760   C761    1.411   .     S
C761   H764    1.109   .     S
C761   H762    1.110   .     S
C761   H61     1.113   1_556 S
O767   C768    1.417   .     S
C768   H770    1.116   .     S
C768   H771    1.109   .     S
C768   H769    1.109   .     S
O772   C773    1.419   .     S
C773   H775    1.118   .     S
C773   H776    1.108   .     S
C773   H774    1.110   .     S
C781   O825    1.298   .     A
C781   O823    1.294   .     A
C781   C792    1.423   .     S
C782   O826    1.298   .     A
C782   O824    1.293   .     A
C782   C791    1.422   .     S
C783   O845    1.388   .     S
C783   C785    1.402   .     A
C783   C812    1.413   .     A
C784   O850    1.384   .     S
C784   C786    1.401   .     A
C784   C811    1.414   .     A
C785   O833    1.373   .     S
C786   O838    1.383   .     S
C786   C108    1.413   1_556 S
C787   C792    1.398   .     A
C787   H817    1.084   .     S
C787   C1023   1.370   .     S
C788   H818    1.084   .     S
C788   C791    1.397   .     A
C788   C1258   1.370   1_545 S
C789   C791    1.405   .     A
C789   I855    2.129   .     S
C789   C1255   1.370   1_545 S
C790   I856    2.127   .     S
C790   C792    1.406   .     A
C790   C1022   1.370   .     S
C793   N822    1.384   .     A
C793   I857    2.109   .     S
C793   C873    1.421   .     S
C794   N821    1.381   .     A
C794   I858    2.115   .     S
C795   N821    1.360   .     A
C795   H819    1.082   .     S
C796   H820    1.080   .     S
C796   N822    1.362   .     A
C796   C872    1.422   .     S
C797   O829    1.306   .     A
C797   O827    1.311   .     A
C797   C799    1.475   .     S
C798   C800    1.467   .     S
C798   O830    1.302   .     A
C798   O828    1.312   .     A
C799   C803    1.405   .     A
C799   C805    1.408   .     A
C800   C804    1.398   .     A
C800   C806    1.407   .     A
C801   C809    1.401   .     A
C801   H815    1.068   .     S
C801   C803    1.396   .     A
C802   C804    1.388   .     A
C802   C810    1.385   .     A
C802   H816    1.058   .     S
C803   H814    1.083   .     S
C804   H813    1.076   .     S
C805   I844    2.148   .     S
C805   C807    1.402   .     A
C806   I843    2.146   .     S
C806   C808    1.404   .     A
C807   C809    1.407   .     A
C807   C811    1.395   .     A
C808   C812    1.393   .     A
C808   C810    1.407   .     A
C809   C83     1.419   1_556 S
C811   C110    1.393   1_556 S
N821   Zn831   2.040   .     S
N822   Zn832   2.040   .     S
O823   Zn831   2.014   .     S
O824   Zn832   2.014   .     S
O825   Zn832   1.991   .     S
O826   Zn831   1.991   .     S
O827   Zn831   1.956   .     S
O828   Zn832   1.956   .     S
O829   Zn832   1.935   .     S
O830   Zn831   1.935   .     S
O833   C834    1.413   .     S
C834   H836    1.113   .     S
C834   H835    1.112   .     S
C834   H837    1.109   .     S
O838   C839    1.411   .     S
C839   H842    1.109   .     S
C839   H840    1.110   .     S
C839   H139    1.113   1_556 S
O845   C846    1.417   .     S
C846   H848    1.116   .     S
C846   H849    1.109   .     S
C846   H847    1.109   .     S
O850   C851    1.419   .     S
C851   H853    1.118   .     S
C851   H854    1.108   .     S
C851   H852    1.110   .     S
C859   O903    1.298   .     A
C859   O901    1.294   .     A
C859   C870    1.423   .     S
C860   O904    1.298   .     A
C860   O902    1.293   .     A
C860   C869    1.422   .     S
C861   O923    1.388   .     S
C861   C863    1.402   .     A
C861   C890    1.413   .     A
C862   O928    1.384   .     S
C862   C864    1.401   .     A
C862   C889    1.414   .     A
C863   O911    1.373   .     S
C864   O916    1.383   .     S
C864   C186    1.413   1_556 S
C865   C870    1.398   .     A
C865   H895    1.084   .     S
C865   C1101   1.370   .     S
C866   H896    1.084   .     S
C866   C869    1.397   .     A
C866   C1336   1.370   1_545 S
C867   C869    1.405   .     A
C867   I933    2.129   .     S
C867   C1333   1.370   1_545 S
C868   I934    2.127   .     S
C868   C870    1.406   .     A
C868   C1100   1.370   .     S
C871   N900    1.384   .     A
C871   I935    2.109   .     S
C871   C717    1.421   1_655 S
C872   N899    1.381   .     A
C872   I936    2.115   .     S
C873   N899    1.360   .     A
C873   H897    1.082   .     S
C874   H898    1.080   .     S
C874   N900    1.362   .     A
C874   C716    1.422   1_655 S
C875   O907    1.306   .     A
C875   O905    1.311   .     A
C875   C877    1.475   .     S
C876   C878    1.467   .     S
C876   O908    1.302   .     A
C876   O906    1.312   .     A
C877   C881    1.405   .     A
C877   C883    1.408   .     A
C878   C882    1.398   .     A
C878   C884    1.407   .     A
C879   C887    1.401   .     A
C879   H893    1.068   .     S
C879   C881    1.396   .     A
C880   C882    1.388   .     A
C880   C888    1.385   .     A
C880   H894    1.058   .     S
C881   H892    1.083   .     S
C882   H891    1.076   .     S
C883   I922    2.148   .     S
C883   C885    1.402   .     A
C884   I921    2.146   .     S
C884   C886    1.404   .     A
C885   C887    1.407   .     A
C885   C889    1.395   .     A
C886   C890    1.393   .     A
C886   C888    1.407   .     A
C887   C161    1.419   1_556 S
C889   C188    1.393   1_556 S
N899   Zn909   2.040   .     S
N900   Zn910   2.040   .     S
O901   Zn909   2.014   .     S
O902   Zn910   2.014   .     S
O903   Zn910   1.991   .     S
O904   Zn909   1.991   .     S
O905   Zn909   1.956   .     S
O906   Zn910   1.956   .     S
O907   Zn910   1.935   .     S
O908   Zn909   1.935   .     S
O911   C912    1.413   .     S
C912   H914    1.113   .     S
C912   H913    1.112   .     S
C912   H915    1.109   .     S
O916   C917    1.411   .     S
C917   H920    1.109   .     S
C917   H918    1.110   .     S
C917   H217    1.113   1_556 S
O923   C924    1.417   .     S
C924   H926    1.116   .     S
C924   H927    1.109   .     S
C924   H925    1.109   .     S
O928   C929    1.419   .     S
C929   H931    1.118   .     S
C929   H932    1.108   .     S
C929   H930    1.110   .     S
C937   O981    1.298   .     A
C937   O979    1.294   .     A
C937   C948    1.423   .     S
C938   O982    1.298   .     A
C938   O980    1.293   .     A
C938   C947    1.422   .     S
C939   O1001   1.388   .     S
C939   C941    1.402   .     A
C939   C968    1.413   .     A
C940   O1006   1.384   .     S
C940   C942    1.401   .     A
C940   C967    1.414   .     A
C941   O989    1.373   .     S
C942   O994    1.383   .     S
C942   C264    1.413   1_556 S
C943   C948    1.398   .     A
C943   H973    1.084   .     S
C943   C1179   1.370   .     S
C944   H974    1.084   .     S
C944   C947    1.397   .     A
C945   C947    1.405   .     A
C945   I1011   2.129   .     S
C946   I1012   2.127   .     S
C946   C948    1.406   .     A
C946   C1178   1.370   .     S
C949   N978    1.384   .     A
C949   I1013   2.109   .     S
C949   C1029   1.421   .     S
C950   N977    1.381   .     A
C950   I1014   2.115   .     S
C950   C1108   1.422   1_455 S
C951   N977    1.360   .     A
C951   H975    1.082   .     S
C951   C1105   1.421   1_455 S
C952   H976    1.080   .     S
C952   N978    1.362   .     A
C952   C1028   1.422   .     S
C953   O985    1.306   .     A
C953   O983    1.311   .     A
C953   C955    1.475   .     S
C954   C956    1.467   .     S
C954   O986    1.302   .     A
C954   O984    1.312   .     A
C955   C959    1.405   .     A
C955   C961    1.408   .     A
C956   C960    1.398   .     A
C956   C962    1.407   .     A
C957   C965    1.401   .     A
C957   H971    1.068   .     S
C957   C959    1.396   .     A
C958   C960    1.388   .     A
C958   C966    1.385   .     A
C958   H972    1.058   .     S
C959   H970    1.083   .     S
C960   H969    1.076   .     S
C961   I1000   2.148   .     S
C961   C963    1.402   .     A
C962   I999    2.146   .     S
C962   C964    1.404   .     A
C963   C965    1.407   .     A
C963   C967    1.395   .     A
C964   C968    1.393   .     A
C964   C966    1.407   .     A
C965   C239    1.419   1_556 S
C967   C266    1.393   1_556 S
N977   Zn987   2.040   .     S
N978   Zn988   2.040   .     S
O979   Zn987   2.014   .     S
O980   Zn988   2.014   .     S
O981   Zn988   1.991   .     S
O982   Zn987   1.991   .     S
O983   Zn987   1.956   .     S
O984   Zn988   1.956   .     S
O985   Zn988   1.935   .     S
O986   Zn987   1.935   .     S
O989   C990    1.413   .     S
C990   H992    1.113   .     S
C990   H991    1.112   .     S
C990   H993    1.109   .     S
O994   C995    1.411   .     S
C995   H998    1.109   .     S
C995   H996    1.110   .     S
C995   H295    1.113   1_556 S
O1001  C1002   1.417   .     S
C1002  H1004   1.116   .     S
C1002  H1005   1.109   .     S
C1002  H1003   1.109   .     S
O1006  C1007   1.419   .     S
C1007  H1009   1.118   .     S
C1007  H1010   1.108   .     S
C1007  H1008   1.110   .     S
C1015  O1059   1.298   .     A
C1015  O1057   1.294   .     A
C1015  C1026   1.423   .     S
C1016  O1060   1.298   .     A
C1016  O1058   1.293   .     A
C1016  C1025   1.422   .     S
C1017  O1079   1.388   .     S
C1017  C1019   1.402   .     A
C1017  C1046   1.413   .     A
C1018  O1084   1.384   .     S
C1018  C1020   1.401   .     A
C1018  C1045   1.414   .     A
C1019  O1067   1.373   .     S
C1020  O1072   1.383   .     S
C1020  C342    1.413   1_556 S
C1021  C1026   1.398   .     A
C1021  H1051   1.084   .     S
C1021  C1257   1.370   .     S
C1022  H1052   1.084   .     S
C1022  C1025   1.397   .     A
C1023  C1025   1.405   .     A
C1023  I1089   2.129   .     S
C1024  I1090   2.127   .     S
C1024  C1026   1.406   .     A
C1024  C1256   1.370   .     S
C1027  N1056   1.384   .     A
C1027  I1091   2.109   .     S
C1027  C1107   1.421   .     S
C1028  N1055   1.381   .     A
C1028  I1092   2.115   .     S
C1029  N1055   1.360   .     A
C1029  H1053   1.082   .     S
C1030  H1054   1.080   .     S
C1030  N1056   1.362   .     A
C1030  C1106   1.422   .     S
C1031  O1063   1.306   .     A
C1031  O1061   1.311   .     A
C1031  C1033   1.475   .     S
C1032  C1034   1.467   .     S
C1032  O1064   1.302   .     A
C1032  O1062   1.312   .     A
C1033  C1037   1.405   .     A
C1033  C1039   1.408   .     A
C1034  C1038   1.398   .     A
C1034  C1040   1.407   .     A
C1035  C1043   1.401   .     A
C1035  H1049   1.068   .     S
C1035  C1037   1.396   .     A
C1036  C1038   1.388   .     A
C1036  C1044   1.385   .     A
C1036  H1050   1.058   .     S
C1037  H1048   1.083   .     S
C1038  H1047   1.076   .     S
C1039  I1078   2.148   .     S
C1039  C1041   1.402   .     A
C1040  I1077   2.146   .     S
C1040  C1042   1.404   .     A
C1041  C1043   1.407   .     A
C1041  C1045   1.395   .     A
C1042  C1046   1.393   .     A
C1042  C1044   1.407   .     A
C1043  C317    1.419   1_556 S
C1045  C344    1.393   1_556 S
N1055  Zn1065  2.040   .     S
N1056  Zn1066  2.040   .     S
O1057  Zn1065  2.014   .     S
O1058  Zn1066  2.014   .     S
O1059  Zn1066  1.991   .     S
O1060  Zn1065  1.991   .     S
O1061  Zn1065  1.956   .     S
O1062  Zn1066  1.956   .     S
O1063  Zn1066  1.935   .     S
O1064  Zn1065  1.935   .     S
O1067  C1068   1.413   .     S
C1068  H1070   1.113   .     S
C1068  H1069   1.112   .     S
C1068  H1071   1.109   .     S
O1072  C1073   1.411   .     S
C1073  H1076   1.109   .     S
C1073  H1074   1.110   .     S
C1073  H373    1.113   1_556 S
O1079  C1080   1.417   .     S
C1080  H1082   1.116   .     S
C1080  H1083   1.109   .     S
C1080  H1081   1.109   .     S
O1084  C1085   1.419   .     S
C1085  H1087   1.118   .     S
C1085  H1088   1.108   .     S
C1085  H1086   1.110   .     S
C1093  O1137   1.298   .     A
C1093  O1135   1.294   .     A
C1093  C1104   1.423   .     S
C1094  O1138   1.298   .     A
C1094  O1136   1.293   .     A
C1094  C1103   1.422   .     S
C1095  O1157   1.388   .     S
C1095  C1097   1.402   .     A
C1095  C1124   1.413   .     A
C1096  O1162   1.384   .     S
C1096  C1098   1.401   .     A
C1096  C1123   1.414   .     A
C1097  O1145   1.373   .     S
C1098  O1150   1.383   .     S
C1098  C420    1.413   1_556 S
C1099  C1104   1.398   .     A
C1099  H1129   1.084   .     S
C1099  C1335   1.370   .     S
C1100  H1130   1.084   .     S
C1100  C1103   1.397   .     A
C1101  C1103   1.405   .     A
C1101  I1167   2.129   .     S
C1102  I1168   2.127   .     S
C1102  C1104   1.406   .     A
C1102  C1334   1.370   .     S
C1105  N1134   1.384   .     A
C1105  I1169   2.109   .     S
C1105  C951    1.421   1_655 S
C1106  N1133   1.381   .     A
C1106  I1170   2.115   .     S
C1107  N1133   1.360   .     A
C1107  H1131   1.082   .     S
C1108  H1132   1.080   .     S
C1108  N1134   1.362   .     A
C1108  C950    1.422   1_655 S
C1109  O1141   1.306   .     A
C1109  O1139   1.311   .     A
C1109  C1111   1.475   .     S
C1110  C1112   1.467   .     S
C1110  O1142   1.302   .     A
C1110  O1140   1.312   .     A
C1111  C1115   1.405   .     A
C1111  C1117   1.408   .     A
C1112  C1116   1.398   .     A
C1112  C1118   1.407   .     A
C1113  C1121   1.401   .     A
C1113  H1127   1.068   .     S
C1113  C1115   1.396   .     A
C1114  C1116   1.388   .     A
C1114  C1122   1.385   .     A
C1114  H1128   1.058   .     S
C1115  H1126   1.083   .     S
C1116  H1125   1.076   .     S
C1117  I1156   2.148   .     S
C1117  C1119   1.402   .     A
C1118  I1155   2.146   .     S
C1118  C1120   1.404   .     A
C1119  C1121   1.407   .     A
C1119  C1123   1.395   .     A
C1120  C1124   1.393   .     A
C1120  C1122   1.407   .     A
C1121  C395    1.419   1_556 S
C1123  C422    1.393   1_556 S
N1133  Zn1143  2.040   .     S
N1134  Zn1144  2.040   .     S
O1135  Zn1143  2.014   .     S
O1136  Zn1144  2.014   .     S
O1137  Zn1144  1.991   .     S
O1138  Zn1143  1.991   .     S
O1139  Zn1143  1.956   .     S
O1140  Zn1144  1.956   .     S
O1141  Zn1144  1.935   .     S
O1142  Zn1143  1.935   .     S
O1145  C1146   1.413   .     S
C1146  H1148   1.113   .     S
C1146  H1147   1.112   .     S
C1146  H1149   1.109   .     S
O1150  C1151   1.411   .     S
C1151  H1154   1.109   .     S
C1151  H1152   1.110   .     S
C1151  H451    1.113   1_556 S
O1157  C1158   1.417   .     S
C1158  H1160   1.116   .     S
C1158  H1161   1.109   .     S
C1158  H1159   1.109   .     S
O1162  C1163   1.419   .     S
C1163  H1165   1.118   .     S
C1163  H1166   1.108   .     S
C1163  H1164   1.110   .     S
C1171  O1215   1.298   .     A
C1171  O1213   1.294   .     A
C1171  C1182   1.423   .     S
C1172  O1216   1.298   .     A
C1172  O1214   1.293   .     A
C1172  C1181   1.422   .     S
C1173  O1235   1.388   .     S
C1173  C1175   1.402   .     A
C1173  C1202   1.413   .     A
C1174  O1240   1.384   .     S
C1174  C1176   1.401   .     A
C1174  C1201   1.414   .     A
C1175  O1223   1.373   .     S
C1176  O1228   1.383   .     S
C1176  C498    1.413   1_556 S
C1177  C1182   1.398   .     A
C1177  H1207   1.084   .     S
C1177  C711    1.370   1_565 S
C1178  H1208   1.084   .     S
C1178  C1181   1.397   .     A
C1179  C1181   1.405   .     A
C1179  I1245   2.129   .     S
C1180  I1246   2.127   .     S
C1180  C1182   1.406   .     A
C1180  C710    1.370   1_565 S
C1183  N1212   1.384   .     A
C1183  I1247   2.109   .     S
C1183  C1263   1.421   .     S
C1184  N1211   1.381   .     A
C1184  I1248   2.115   .     S
C1184  C1342   1.422   1_455 S
C1185  N1211   1.360   .     A
C1185  H1209   1.082   .     S
C1185  C1339   1.421   1_455 S
C1186  H1210   1.080   .     S
C1186  N1212   1.362   .     A
C1186  C1262   1.422   .     S
C1187  O1219   1.306   .     A
C1187  O1217   1.311   .     A
C1187  C1189   1.475   .     S
C1188  C1190   1.467   .     S
C1188  O1220   1.302   .     A
C1188  O1218   1.312   .     A
C1189  C1193   1.405   .     A
C1189  C1195   1.408   .     A
C1190  C1194   1.398   .     A
C1190  C1196   1.407   .     A
C1191  C1199   1.401   .     A
C1191  H1205   1.068   .     S
C1191  C1193   1.396   .     A
C1192  C1194   1.388   .     A
C1192  C1200   1.385   .     A
C1192  H1206   1.058   .     S
C1193  H1204   1.083   .     S
C1194  H1203   1.076   .     S
C1195  I1234   2.148   .     S
C1195  C1197   1.402   .     A
C1196  I1233   2.146   .     S
C1196  C1198   1.404   .     A
C1197  C1199   1.407   .     A
C1197  C1201   1.395   .     A
C1198  C1202   1.393   .     A
C1198  C1200   1.407   .     A
C1199  C473    1.419   1_556 S
C1201  C500    1.393   1_556 S
N1211  Zn1221  2.040   .     S
N1212  Zn1222  2.040   .     S
O1213  Zn1221  2.014   .     S
O1214  Zn1222  2.014   .     S
O1215  Zn1222  1.991   .     S
O1216  Zn1221  1.991   .     S
O1217  Zn1221  1.956   .     S
O1218  Zn1222  1.956   .     S
O1219  Zn1222  1.935   .     S
O1220  Zn1221  1.935   .     S
O1223  C1224   1.413   .     S
C1224  H1226   1.113   .     S
C1224  H1225   1.112   .     S
C1224  H1227   1.109   .     S
O1228  C1229   1.411   .     S
C1229  H1232   1.109   .     S
C1229  H1230   1.110   .     S
C1229  H529    1.113   1_556 S
O1235  C1236   1.417   .     S
C1236  H1238   1.116   .     S
C1236  H1239   1.109   .     S
C1236  H1237   1.109   .     S
O1240  C1241   1.419   .     S
C1241  H1243   1.118   .     S
C1241  H1244   1.108   .     S
C1241  H1242   1.110   .     S
C1249  O1293   1.298   .     A
C1249  O1291   1.294   .     A
C1249  C1260   1.423   .     S
C1250  O1294   1.298   .     A
C1250  O1292   1.293   .     A
C1250  C1259   1.422   .     S
C1251  O1313   1.388   .     S
C1251  C1253   1.402   .     A
C1251  C1280   1.413   .     A
C1252  O1318   1.384   .     S
C1252  C1254   1.401   .     A
C1252  C1279   1.414   .     A
C1253  O1301   1.373   .     S
C1254  O1306   1.383   .     S
C1254  C576    1.413   1_556 S
C1255  C1260   1.398   .     A
C1255  H1285   1.084   .     S
C1255  C789    1.370   1_565 S
C1256  H1286   1.084   .     S
C1256  C1259   1.397   .     A
C1257  C1259   1.405   .     A
C1257  I1323   2.129   .     S
C1258  I1324   2.127   .     S
C1258  C1260   1.406   .     A
C1258  C788    1.370   1_565 S
C1261  N1290   1.384   .     A
C1261  I1325   2.109   .     S
C1261  C1341   1.421   .     S
C1262  N1289   1.381   .     A
C1262  I1326   2.115   .     S
C1263  N1289   1.360   .     A
C1263  H1287   1.082   .     S
C1264  H1288   1.080   .     S
C1264  N1290   1.362   .     A
C1264  C1340   1.422   .     S
C1265  O1297   1.306   .     A
C1265  O1295   1.311   .     A
C1265  C1267   1.475   .     S
C1266  C1268   1.467   .     S
C1266  O1298   1.302   .     A
C1266  O1296   1.312   .     A
C1267  C1271   1.405   .     A
C1267  C1273   1.408   .     A
C1268  C1272   1.398   .     A
C1268  C1274   1.407   .     A
C1269  C1277   1.401   .     A
C1269  H1283   1.068   .     S
C1269  C1271   1.396   .     A
C1270  C1272   1.388   .     A
C1270  C1278   1.385   .     A
C1270  H1284   1.058   .     S
C1271  H1282   1.083   .     S
C1272  H1281   1.076   .     S
C1273  I1312   2.148   .     S
C1273  C1275   1.402   .     A
C1274  I1311   2.146   .     S
C1274  C1276   1.404   .     A
C1275  C1277   1.407   .     A
C1275  C1279   1.395   .     A
C1276  C1280   1.393   .     A
C1276  C1278   1.407   .     A
C1277  C551    1.419   1_556 S
C1279  C578    1.393   1_556 S
N1289  Zn1299  2.040   .     S
N1290  Zn1300  2.040   .     S
O1291  Zn1299  2.014   .     S
O1292  Zn1300  2.014   .     S
O1293  Zn1300  1.991   .     S
O1294  Zn1299  1.991   .     S
O1295  Zn1299  1.956   .     S
O1296  Zn1300  1.956   .     S
O1297  Zn1300  1.935   .     S
O1298  Zn1299  1.935   .     S
O1301  C1302   1.413   .     S
C1302  H1304   1.113   .     S
C1302  H1303   1.112   .     S
C1302  H1305   1.109   .     S
O1306  C1307   1.411   .     S
C1307  H1310   1.109   .     S
C1307  H1308   1.110   .     S
C1307  H607    1.113   1_556 S
O1313  C1314   1.417   .     S
C1314  H1316   1.116   .     S
C1314  H1317   1.109   .     S
C1314  H1315   1.109   .     S
O1318  C1319   1.419   .     S
C1319  H1321   1.118   .     S
C1319  H1322   1.108   .     S
C1319  H1320   1.110   .     S
C1327  O1371   1.298   .     A
C1327  O1369   1.294   .     A
C1327  C1338   1.423   .     S
C1328  O1372   1.298   .     A
C1328  O1370   1.293   .     A
C1328  C1337   1.422   .     S
C1329  O1391   1.388   .     S
C1329  C1331   1.402   .     A
C1329  C1358   1.413   .     A
C1330  O1396   1.384   .     S
C1330  C1332   1.401   .     A
C1330  C1357   1.414   .     A
C1331  O1379   1.373   .     S
C1332  O1384   1.383   .     S
C1332  C654    1.413   1_556 S
C1333  C1338   1.398   .     A
C1333  H1363   1.084   .     S
C1333  C867    1.370   1_565 S
C1334  H1364   1.084   .     S
C1334  C1337   1.397   .     A
C1335  C1337   1.405   .     A
C1335  I1401   2.129   .     S
C1336  I1402   2.127   .     S
C1336  C1338   1.406   .     A
C1336  C866    1.370   1_565 S
C1339  N1368   1.384   .     A
C1339  I1403   2.109   .     S
C1339  C1185   1.421   1_655 S
C1340  N1367   1.381   .     A
C1340  I1404   2.115   .     S
C1341  N1367   1.360   .     A
C1341  H1365   1.082   .     S
C1342  H1366   1.080   .     S
C1342  N1368   1.362   .     A
C1342  C1184   1.422   1_655 S
C1343  O1375   1.306   .     A
C1343  O1373   1.311   .     A
C1343  C1345   1.475   .     S
C1344  C1346   1.467   .     S
C1344  O1376   1.302   .     A
C1344  O1374   1.312   .     A
C1345  C1349   1.405   .     A
C1345  C1351   1.408   .     A
C1346  C1350   1.398   .     A
C1346  C1352   1.407   .     A
C1347  C1355   1.401   .     A
C1347  H1361   1.068   .     S
C1347  C1349   1.396   .     A
C1348  C1350   1.388   .     A
C1348  C1356   1.385   .     A
C1348  H1362   1.058   .     S
C1349  H1360   1.083   .     S
C1350  H1359   1.076   .     S
C1351  I1390   2.148   .     S
C1351  C1353   1.402   .     A
C1352  I1389   2.146   .     S
C1352  C1354   1.404   .     A
C1353  C1355   1.407   .     A
C1353  C1357   1.395   .     A
C1354  C1358   1.393   .     A
C1354  C1356   1.407   .     A
C1355  C629    1.419   1_556 S
C1357  C656    1.393   1_556 S
N1367  Zn1377  2.040   .     S
N1368  Zn1378  2.040   .     S
O1369  Zn1377  2.014   .     S
O1370  Zn1378  2.014   .     S
O1371  Zn1378  1.991   .     S
O1372  Zn1377  1.991   .     S
O1373  Zn1377  1.956   .     S
O1374  Zn1378  1.956   .     S
O1375  Zn1378  1.935   .     S
O1376  Zn1377  1.935   .     S
O1379  C1380   1.413   .     S
C1380  H1382   1.113   .     S
C1380  H1381   1.112   .     S
C1380  H1383   1.109   .     S
O1384  C1385   1.411   .     S
C1385  H1388   1.109   .     S
C1385  H1386   1.110   .     S
C1385  H685    1.113   1_556 S
O1391  C1392   1.417   .     S
C1392  H1394   1.116   .     S
C1392  H1395   1.109   .     S
C1392  H1393   1.109   .     S
O1396  C1397   1.419   .     S
C1397  H1399   1.118   .     S
C1397  H1400   1.108   .     S
C1397  H1398   1.110   .     S
