data_str_m3_o10_o16_pcu_sym.61
_audit_creation_date              2020-01-03
_audit_creation_method            'Materials Studio'
_symmetry_space_group_name_H-M    'P1'
_symmetry_Int_Tables_number       1
_symmetry_cell_setting            triclinic
loop_
_symmetry_equiv_pos_as_xyz
  x,y,z
_cell_length_a                    23.4694
_cell_length_b                    25.7233
_cell_length_c                    24.1897
_cell_angle_alpha                 92.3508
_cell_angle_beta                  101.1583
_cell_angle_gamma                 94.0794
loop_
_atom_site_label
_atom_site_type_symbol
_atom_site_fract_x
_atom_site_fract_y
_atom_site_fract_z
_atom_site_U_iso_or_equiv
_atom_site_adp_type
_atom_site_occupancy
C1     C     0.01406   0.26460   0.24613   0.00000  Uiso   1.00
C2     C     0.05290   0.16809   0.41617   0.00000  Uiso   1.00
C3     C     0.01864   0.31798   0.23552   0.00000  Uiso   1.00
C4     C     0.03532   0.16794   0.35520   0.00000  Uiso   1.00
C5     C     0.31083   0.01377   0.24949   0.00000  Uiso   1.00
C6     C     0.31807   0.06838   0.24943   0.00000  Uiso   1.00
C7     C     0.29748   0.16275   0.14482   0.00000  Uiso   1.00
C8     C     0.26970   0.09514   0.00186   0.00000  Uiso   1.00
C9     C     0.27662   0.15210   0.08503   0.00000  Uiso   1.00
C10    C     0.02438   0.19862   0.45000   0.00000  Uiso   1.00
C11    C     0.04811   0.20863   0.00688   0.00000  Uiso   1.00
C12    C     0.13177   0.16100   0.49528   0.00000  Uiso   1.00
C13    C     0.10193   0.19101   0.02940   0.00000  Uiso   1.00
C14    C     0.04934   0.32770   0.15267   0.00000  Uiso   1.00
C15    C     0.09741   0.01854   0.12546   0.00000  Uiso   1.00
C16    C     0.10317   0.14422   0.44028   0.00000  Uiso   1.00
C17    C     0.18924   0.14742   0.01370   0.00000  Uiso   1.00
C18    C     0.21343   0.11023   0.48181   0.00000  Uiso   1.00
C19    C     0.18069   0.08818   0.43103   0.00000  Uiso   1.00
C20    C     0.12620   0.10510   0.41027   0.00000  Uiso   1.00
C21    C     0.22379   0.17086   0.06261   0.00000  Uiso   1.00
C22    C     0.30080   0.11512   0.05432   0.00000  Uiso   1.00
H23    H     0.00871   0.10015   0.07183   0.00000  Uiso   1.00
H24    H     0.02585   0.23178   0.03314   0.00000  Uiso   1.00
H25    H     0.10202   0.08693   0.37073   0.00000  Uiso   1.00
H26    H     0.00811   0.01196   0.13486   0.00000  Uiso   1.00
H27    H     0.04418   0.28494   0.14149   0.00000  Uiso   1.00
H28    H     0.13942   0.00232   0.14270   0.00000  Uiso   1.00
H29    H     0.08641   0.00978   0.07910   0.00000  Uiso   1.00
H30    H     0.10203   0.06154   0.13384   0.00000  Uiso   1.00
H31    H     0.27334   0.33091   0.26525   0.00000  Uiso   1.00
H32    H     0.15671   0.12497   0.20830   0.00000  Uiso   1.00
H33    H     0.17671   0.20836   0.29178   0.00000  Uiso   1.00
H34    H     0.19764   0.05868   0.40679   0.00000  Uiso   1.00
H35    H     0.28844   0.06644   0.47823   0.00000  Uiso   1.00
H36    H     0.20930   0.20237   0.08590   0.00000  Uiso   1.00
H37    H     0.31819   0.21622   0.43208   0.00000  Uiso   1.00
H38    H     0.11849   0.20035   0.07377   0.00000  Uiso   1.00
N39    N     0.14493   0.15223   0.23542   0.00000  Uiso   1.00
N40    N     0.18840   0.18110   0.26457   0.00000  Uiso   1.00
O41    O     0.29769   0.24629   0.25357   0.00000  Uiso   1.00
O42    O     0.05742   0.23704   0.24423   0.00000  Uiso   1.00
O43    O     0.31490   0.17358   0.33380   0.00000  Uiso   1.00
O44    O     0.07463   0.16433   0.32446   0.00000  Uiso   1.00
O45    O     0.27592   0.09629   0.25576   0.00000  Uiso   1.00
O46    O     0.03565   0.08704   0.24642   0.00000  Uiso   1.00
O47    O     0.25870   0.16901   0.17554   0.00000  Uiso   1.00
O48    O     0.01843   0.15976   0.16620   0.00000  Uiso   1.00
O49    O     0.06459   0.00426   0.21180   0.00000  Uiso   1.00
Zn50   Zn    0.27119   0.17284   0.25623   0.00000  Uiso   1.00
Zn51   Zn    0.06214   0.16049   0.24376   0.00000  Uiso   1.00
C52    C     0.34739   0.26460   0.24613   0.00000  Uiso   1.00
C53    C     0.38624   0.16809   0.41617   0.00000  Uiso   1.00
C54    C     0.35198   0.31798   0.23552   0.00000  Uiso   1.00
C55    C     0.36865   0.16794   0.35520   0.00000  Uiso   1.00
C56    C     0.64416   0.01377   0.24949   0.00000  Uiso   1.00
C57    C     0.65140   0.06838   0.24943   0.00000  Uiso   1.00
C58    C     0.63081   0.16275   0.14482   0.00000  Uiso   1.00
C59    C     0.60303   0.09514   0.00186   0.00000  Uiso   1.00
C60    C     0.60996   0.15210   0.08503   0.00000  Uiso   1.00
C61    C     0.35771   0.19862   0.45000   0.00000  Uiso   1.00
C62    C     0.38144   0.20863   0.00688   0.00000  Uiso   1.00
C63    C     0.46510   0.16100   0.49528   0.00000  Uiso   1.00
C64    C     0.43527   0.19101   0.02940   0.00000  Uiso   1.00
C65    C     0.38268   0.32770   0.15267   0.00000  Uiso   1.00
C66    C     0.43074   0.01854   0.12546   0.00000  Uiso   1.00
C67    C     0.43650   0.14422   0.44028   0.00000  Uiso   1.00
C68    C     0.52258   0.14742   0.01370   0.00000  Uiso   1.00
C69    C     0.54676   0.11023   0.48181   0.00000  Uiso   1.00
C70    C     0.51402   0.08818   0.43103   0.00000  Uiso   1.00
C71    C     0.45953   0.10510   0.41027   0.00000  Uiso   1.00
C72    C     0.55713   0.17086   0.06261   0.00000  Uiso   1.00
C73    C     0.63413   0.11512   0.05432   0.00000  Uiso   1.00
H74    H     0.34204   0.10015   0.07183   0.00000  Uiso   1.00
H75    H     0.35918   0.23178   0.03314   0.00000  Uiso   1.00
H76    H     0.43535   0.08693   0.37073   0.00000  Uiso   1.00
H77    H     0.34144   0.01196   0.13486   0.00000  Uiso   1.00
H78    H     0.37752   0.28494   0.14149   0.00000  Uiso   1.00
H79    H     0.47275   0.00232   0.14270   0.00000  Uiso   1.00
H80    H     0.41975   0.00978   0.07910   0.00000  Uiso   1.00
H81    H     0.43536   0.06154   0.13384   0.00000  Uiso   1.00
H82    H     0.60668   0.33091   0.26525   0.00000  Uiso   1.00
H83    H     0.49004   0.12497   0.20830   0.00000  Uiso   1.00
H84    H     0.51004   0.20836   0.29178   0.00000  Uiso   1.00
H85    H     0.53098   0.05868   0.40679   0.00000  Uiso   1.00
H86    H     0.62178   0.06644   0.47823   0.00000  Uiso   1.00
H87    H     0.54263   0.20237   0.08590   0.00000  Uiso   1.00
H88    H     0.65152   0.21622   0.43208   0.00000  Uiso   1.00
H89    H     0.45182   0.20035   0.07377   0.00000  Uiso   1.00
N90    N     0.47827   0.15223   0.23542   0.00000  Uiso   1.00
N91    N     0.52173   0.18110   0.26457   0.00000  Uiso   1.00
O92    O     0.63102   0.24629   0.25357   0.00000  Uiso   1.00
O93    O     0.39075   0.23704   0.24423   0.00000  Uiso   1.00
O94    O     0.64823   0.17358   0.33380   0.00000  Uiso   1.00
O95    O     0.40796   0.16433   0.32446   0.00000  Uiso   1.00
O96    O     0.60925   0.09629   0.25576   0.00000  Uiso   1.00
O97    O     0.36898   0.08704   0.24642   0.00000  Uiso   1.00
O98    O     0.59204   0.16901   0.17554   0.00000  Uiso   1.00
O99    O     0.35177   0.15976   0.16620   0.00000  Uiso   1.00
O100   O     0.39792   0.00426   0.21180   0.00000  Uiso   1.00
Zn101  Zn    0.60453   0.17284   0.25623   0.00000  Uiso   1.00
Zn102  Zn    0.39547   0.16049   0.24376   0.00000  Uiso   1.00
C103   C     0.68072   0.26460   0.24613   0.00000  Uiso   1.00
C104   C     0.71957   0.16809   0.41617   0.00000  Uiso   1.00
C105   C     0.68531   0.31798   0.23552   0.00000  Uiso   1.00
C106   C     0.70198   0.16794   0.35520   0.00000  Uiso   1.00
C107   C     0.97749   0.01377   0.24949   0.00000  Uiso   1.00
C108   C     0.98473   0.06838   0.24943   0.00000  Uiso   1.00
C109   C     0.96414   0.16275   0.14482   0.00000  Uiso   1.00
C110   C     0.93637   0.09514   0.00186   0.00000  Uiso   1.00
C111   C     0.94329   0.15210   0.08503   0.00000  Uiso   1.00
C112   C     0.69105   0.19862   0.45000   0.00000  Uiso   1.00
C113   C     0.71477   0.20863   0.00688   0.00000  Uiso   1.00
C114   C     0.79844   0.16100   0.49528   0.00000  Uiso   1.00
C115   C     0.76860   0.19101   0.02940   0.00000  Uiso   1.00
C116   C     0.71601   0.32770   0.15267   0.00000  Uiso   1.00
C117   C     0.76408   0.01854   0.12546   0.00000  Uiso   1.00
C118   C     0.76984   0.14422   0.44028   0.00000  Uiso   1.00
C119   C     0.85591   0.14742   0.01370   0.00000  Uiso   1.00
C120   C     0.88009   0.11023   0.48181   0.00000  Uiso   1.00
C121   C     0.84735   0.08818   0.43103   0.00000  Uiso   1.00
C122   C     0.79287   0.10510   0.41027   0.00000  Uiso   1.00
C123   C     0.89046   0.17086   0.06261   0.00000  Uiso   1.00
C124   C     0.96746   0.11512   0.05432   0.00000  Uiso   1.00
H125   H     0.67537   0.10015   0.07183   0.00000  Uiso   1.00
H126   H     0.69251   0.23178   0.03314   0.00000  Uiso   1.00
H127   H     0.76869   0.08693   0.37073   0.00000  Uiso   1.00
H128   H     0.67478   0.01196   0.13486   0.00000  Uiso   1.00
H129   H     0.71085   0.28494   0.14149   0.00000  Uiso   1.00
H130   H     0.80609   0.00232   0.14270   0.00000  Uiso   1.00
H131   H     0.75308   0.00978   0.07910   0.00000  Uiso   1.00
H132   H     0.76870   0.06154   0.13384   0.00000  Uiso   1.00
H133   H     0.94001   0.33091   0.26525   0.00000  Uiso   1.00
H134   H     0.82337   0.12497   0.20830   0.00000  Uiso   1.00
H135   H     0.84337   0.20836   0.29178   0.00000  Uiso   1.00
H136   H     0.86431   0.05868   0.40679   0.00000  Uiso   1.00
H137   H     0.95511   0.06644   0.47823   0.00000  Uiso   1.00
H138   H     0.87596   0.20237   0.08590   0.00000  Uiso   1.00
H139   H     0.98485   0.21622   0.43208   0.00000  Uiso   1.00
H140   H     0.78515   0.20035   0.07377   0.00000  Uiso   1.00
N141   N     0.81160   0.15223   0.23542   0.00000  Uiso   1.00
N142   N     0.85507   0.18110   0.26457   0.00000  Uiso   1.00
O143   O     0.96435   0.24629   0.25357   0.00000  Uiso   1.00
O144   O     0.72408   0.23704   0.24423   0.00000  Uiso   1.00
O145   O     0.98157   0.17358   0.33380   0.00000  Uiso   1.00
O146   O     0.74130   0.16433   0.32446   0.00000  Uiso   1.00
O147   O     0.94258   0.09629   0.25576   0.00000  Uiso   1.00
O148   O     0.70231   0.08704   0.24642   0.00000  Uiso   1.00
O149   O     0.92537   0.16901   0.17554   0.00000  Uiso   1.00
O150   O     0.68510   0.15976   0.16620   0.00000  Uiso   1.00
O151   O     0.73126   0.00426   0.21180   0.00000  Uiso   1.00
Zn152  Zn    0.93786   0.17284   0.25623   0.00000  Uiso   1.00
Zn153  Zn    0.72881   0.16049   0.24376   0.00000  Uiso   1.00
C154   C     0.01406   0.59794   0.24613   0.00000  Uiso   1.00
C155   C     0.05290   0.50142   0.41617   0.00000  Uiso   1.00
C156   C     0.01864   0.65131   0.23552   0.00000  Uiso   1.00
C157   C     0.03532   0.50128   0.35520   0.00000  Uiso   1.00
C158   C     0.31083   0.34710   0.24949   0.00000  Uiso   1.00
C159   C     0.31807   0.40171   0.24943   0.00000  Uiso   1.00
C160   C     0.29748   0.49608   0.14482   0.00000  Uiso   1.00
C161   C     0.26970   0.42847   0.00186   0.00000  Uiso   1.00
C162   C     0.27662   0.48543   0.08503   0.00000  Uiso   1.00
C163   C     0.02438   0.53196   0.45000   0.00000  Uiso   1.00
C164   C     0.04811   0.54196   0.00688   0.00000  Uiso   1.00
C165   C     0.13177   0.49433   0.49528   0.00000  Uiso   1.00
C166   C     0.10193   0.52434   0.02940   0.00000  Uiso   1.00
C167   C     0.04934   0.66103   0.15267   0.00000  Uiso   1.00
C168   C     0.09741   0.35188   0.12546   0.00000  Uiso   1.00
C169   C     0.10317   0.47755   0.44028   0.00000  Uiso   1.00
C170   C     0.18924   0.48075   0.01370   0.00000  Uiso   1.00
C171   C     0.21343   0.44356   0.48181   0.00000  Uiso   1.00
C172   C     0.18069   0.42151   0.43103   0.00000  Uiso   1.00
C173   C     0.12620   0.43844   0.41027   0.00000  Uiso   1.00
C174   C     0.22379   0.50420   0.06261   0.00000  Uiso   1.00
C175   C     0.30080   0.44846   0.05432   0.00000  Uiso   1.00
H176   H     0.00871   0.43348   0.07183   0.00000  Uiso   1.00
H177   H     0.02585   0.56512   0.03314   0.00000  Uiso   1.00
H178   H     0.10202   0.42027   0.37073   0.00000  Uiso   1.00
H179   H     0.00811   0.34530   0.13486   0.00000  Uiso   1.00
H180   H     0.04418   0.61827   0.14149   0.00000  Uiso   1.00
H181   H     0.13942   0.33565   0.14270   0.00000  Uiso   1.00
H182   H     0.08641   0.34311   0.07910   0.00000  Uiso   1.00
H183   H     0.10203   0.39488   0.13384   0.00000  Uiso   1.00
H184   H     0.27334   0.66425   0.26525   0.00000  Uiso   1.00
H185   H     0.15671   0.45830   0.20830   0.00000  Uiso   1.00
H186   H     0.17671   0.54169   0.29178   0.00000  Uiso   1.00
H187   H     0.19764   0.39201   0.40679   0.00000  Uiso   1.00
H188   H     0.28844   0.39977   0.47823   0.00000  Uiso   1.00
H189   H     0.20930   0.53570   0.08590   0.00000  Uiso   1.00
H190   H     0.31819   0.54956   0.43208   0.00000  Uiso   1.00
H191   H     0.11849   0.53368   0.07377   0.00000  Uiso   1.00
N192   N     0.14493   0.48556   0.23542   0.00000  Uiso   1.00
N193   N     0.18840   0.51444   0.26457   0.00000  Uiso   1.00
O194   O     0.29769   0.57963   0.25357   0.00000  Uiso   1.00
O195   O     0.05742   0.57038   0.24423   0.00000  Uiso   1.00
O196   O     0.31490   0.50691   0.33380   0.00000  Uiso   1.00
O197   O     0.07463   0.49766   0.32446   0.00000  Uiso   1.00
O198   O     0.27592   0.42962   0.25576   0.00000  Uiso   1.00
O199   O     0.03565   0.42037   0.24642   0.00000  Uiso   1.00
O200   O     0.25870   0.50234   0.17554   0.00000  Uiso   1.00
O201   O     0.01843   0.49309   0.16620   0.00000  Uiso   1.00
O202   O     0.06459   0.33759   0.21180   0.00000  Uiso   1.00
Zn203  Zn    0.27119   0.50618   0.25623   0.00000  Uiso   1.00
Zn204  Zn    0.06214   0.49382   0.24376   0.00000  Uiso   1.00
C205   C     0.34739   0.59794   0.24613   0.00000  Uiso   1.00
C206   C     0.38624   0.50142   0.41617   0.00000  Uiso   1.00
C207   C     0.35198   0.65131   0.23552   0.00000  Uiso   1.00
C208   C     0.36865   0.50128   0.35520   0.00000  Uiso   1.00
C209   C     0.64416   0.34710   0.24949   0.00000  Uiso   1.00
C210   C     0.65140   0.40171   0.24943   0.00000  Uiso   1.00
C211   C     0.63081   0.49608   0.14482   0.00000  Uiso   1.00
C212   C     0.60303   0.42847   0.00186   0.00000  Uiso   1.00
C213   C     0.60996   0.48543   0.08503   0.00000  Uiso   1.00
C214   C     0.35771   0.53196   0.45000   0.00000  Uiso   1.00
C215   C     0.38144   0.54196   0.00688   0.00000  Uiso   1.00
C216   C     0.46510   0.49433   0.49528   0.00000  Uiso   1.00
C217   C     0.43527   0.52434   0.02940   0.00000  Uiso   1.00
C218   C     0.38268   0.66103   0.15267   0.00000  Uiso   1.00
C219   C     0.43074   0.35188   0.12546   0.00000  Uiso   1.00
C220   C     0.43650   0.47755   0.44028   0.00000  Uiso   1.00
C221   C     0.52258   0.48075   0.01370   0.00000  Uiso   1.00
C222   C     0.54676   0.44356   0.48181   0.00000  Uiso   1.00
C223   C     0.51402   0.42151   0.43103   0.00000  Uiso   1.00
C224   C     0.45953   0.43844   0.41027   0.00000  Uiso   1.00
C225   C     0.55713   0.50420   0.06261   0.00000  Uiso   1.00
C226   C     0.63413   0.44846   0.05432   0.00000  Uiso   1.00
H227   H     0.34204   0.43348   0.07183   0.00000  Uiso   1.00
H228   H     0.35918   0.56512   0.03314   0.00000  Uiso   1.00
H229   H     0.43535   0.42027   0.37073   0.00000  Uiso   1.00
H230   H     0.34144   0.34530   0.13486   0.00000  Uiso   1.00
H231   H     0.37752   0.61827   0.14149   0.00000  Uiso   1.00
H232   H     0.47275   0.33565   0.14270   0.00000  Uiso   1.00
H233   H     0.41975   0.34311   0.07910   0.00000  Uiso   1.00
H234   H     0.43536   0.39488   0.13384   0.00000  Uiso   1.00
H235   H     0.60668   0.66425   0.26525   0.00000  Uiso   1.00
H236   H     0.49004   0.45830   0.20830   0.00000  Uiso   1.00
H237   H     0.51004   0.54169   0.29178   0.00000  Uiso   1.00
H238   H     0.53098   0.39201   0.40679   0.00000  Uiso   1.00
H239   H     0.62178   0.39977   0.47823   0.00000  Uiso   1.00
H240   H     0.54263   0.53570   0.08590   0.00000  Uiso   1.00
H241   H     0.65152   0.54956   0.43208   0.00000  Uiso   1.00
H242   H     0.45182   0.53368   0.07377   0.00000  Uiso   1.00
N243   N     0.47827   0.48556   0.23542   0.00000  Uiso   1.00
N244   N     0.52173   0.51444   0.26457   0.00000  Uiso   1.00
O245   O     0.63102   0.57963   0.25357   0.00000  Uiso   1.00
O246   O     0.39075   0.57038   0.24423   0.00000  Uiso   1.00
O247   O     0.64823   0.50691   0.33380   0.00000  Uiso   1.00
O248   O     0.40796   0.49766   0.32446   0.00000  Uiso   1.00
O249   O     0.60925   0.42962   0.25576   0.00000  Uiso   1.00
O250   O     0.36898   0.42037   0.24642   0.00000  Uiso   1.00
O251   O     0.59204   0.50234   0.17554   0.00000  Uiso   1.00
O252   O     0.35177   0.49309   0.16620   0.00000  Uiso   1.00
O253   O     0.39792   0.33759   0.21180   0.00000  Uiso   1.00
Zn254  Zn    0.60453   0.50618   0.25623   0.00000  Uiso   1.00
Zn255  Zn    0.39547   0.49382   0.24376   0.00000  Uiso   1.00
C256   C     0.68072   0.59794   0.24613   0.00000  Uiso   1.00
C257   C     0.71957   0.50142   0.41617   0.00000  Uiso   1.00
C258   C     0.68531   0.65131   0.23552   0.00000  Uiso   1.00
C259   C     0.70198   0.50128   0.35520   0.00000  Uiso   1.00
C260   C     0.97749   0.34710   0.24949   0.00000  Uiso   1.00
C261   C     0.98473   0.40171   0.24943   0.00000  Uiso   1.00
C262   C     0.96414   0.49608   0.14482   0.00000  Uiso   1.00
C263   C     0.93637   0.42847   0.00186   0.00000  Uiso   1.00
C264   C     0.94329   0.48543   0.08503   0.00000  Uiso   1.00
C265   C     0.69105   0.53196   0.45000   0.00000  Uiso   1.00
C266   C     0.71477   0.54196   0.00688   0.00000  Uiso   1.00
C267   C     0.79844   0.49433   0.49528   0.00000  Uiso   1.00
C268   C     0.76860   0.52434   0.02940   0.00000  Uiso   1.00
C269   C     0.71601   0.66103   0.15267   0.00000  Uiso   1.00
C270   C     0.76408   0.35188   0.12546   0.00000  Uiso   1.00
C271   C     0.76984   0.47755   0.44028   0.00000  Uiso   1.00
C272   C     0.85591   0.48075   0.01370   0.00000  Uiso   1.00
C273   C     0.88009   0.44356   0.48181   0.00000  Uiso   1.00
C274   C     0.84735   0.42151   0.43103   0.00000  Uiso   1.00
C275   C     0.79287   0.43844   0.41027   0.00000  Uiso   1.00
C276   C     0.89046   0.50420   0.06261   0.00000  Uiso   1.00
C277   C     0.96746   0.44846   0.05432   0.00000  Uiso   1.00
H278   H     0.67537   0.43348   0.07183   0.00000  Uiso   1.00
H279   H     0.69251   0.56512   0.03314   0.00000  Uiso   1.00
H280   H     0.76869   0.42027   0.37073   0.00000  Uiso   1.00
H281   H     0.67478   0.34530   0.13486   0.00000  Uiso   1.00
H282   H     0.71085   0.61827   0.14149   0.00000  Uiso   1.00
H283   H     0.80609   0.33565   0.14270   0.00000  Uiso   1.00
H284   H     0.75308   0.34311   0.07910   0.00000  Uiso   1.00
H285   H     0.76870   0.39488   0.13384   0.00000  Uiso   1.00
H286   H     0.94001   0.66425   0.26525   0.00000  Uiso   1.00
H287   H     0.82337   0.45830   0.20830   0.00000  Uiso   1.00
H288   H     0.84337   0.54169   0.29178   0.00000  Uiso   1.00
H289   H     0.86431   0.39201   0.40679   0.00000  Uiso   1.00
H290   H     0.95511   0.39977   0.47823   0.00000  Uiso   1.00
H291   H     0.87596   0.53570   0.08590   0.00000  Uiso   1.00
H292   H     0.98485   0.54956   0.43208   0.00000  Uiso   1.00
H293   H     0.78515   0.53368   0.07377   0.00000  Uiso   1.00
N294   N     0.81160   0.48556   0.23542   0.00000  Uiso   1.00
N295   N     0.85507   0.51444   0.26457   0.00000  Uiso   1.00
O296   O     0.96435   0.57963   0.25357   0.00000  Uiso   1.00
O297   O     0.72408   0.57038   0.24423   0.00000  Uiso   1.00
O298   O     0.98157   0.50691   0.33380   0.00000  Uiso   1.00
O299   O     0.74130   0.49766   0.32446   0.00000  Uiso   1.00
O300   O     0.94258   0.42962   0.25576   0.00000  Uiso   1.00
O301   O     0.70231   0.42037   0.24642   0.00000  Uiso   1.00
O302   O     0.92537   0.50234   0.17554   0.00000  Uiso   1.00
O303   O     0.68510   0.49309   0.16620   0.00000  Uiso   1.00
O304   O     0.73126   0.33759   0.21180   0.00000  Uiso   1.00
Zn305  Zn    0.93786   0.50618   0.25623   0.00000  Uiso   1.00
Zn306  Zn    0.72881   0.49382   0.24376   0.00000  Uiso   1.00
C307   C     0.01406   0.93127   0.24613   0.00000  Uiso   1.00
C308   C     0.05290   0.83475   0.41617   0.00000  Uiso   1.00
C309   C     0.01864   0.98465   0.23552   0.00000  Uiso   1.00
C310   C     0.03532   0.83461   0.35520   0.00000  Uiso   1.00
C311   C     0.31083   0.68044   0.24949   0.00000  Uiso   1.00
C312   C     0.31807   0.73505   0.24943   0.00000  Uiso   1.00
C313   C     0.29748   0.82942   0.14482   0.00000  Uiso   1.00
C314   C     0.26970   0.76180   0.00186   0.00000  Uiso   1.00
C315   C     0.27662   0.81876   0.08503   0.00000  Uiso   1.00
C316   C     0.02438   0.86529   0.45000   0.00000  Uiso   1.00
C317   C     0.04811   0.87530   0.00688   0.00000  Uiso   1.00
C318   C     0.13177   0.82767   0.49528   0.00000  Uiso   1.00
C319   C     0.10193   0.85768   0.02940   0.00000  Uiso   1.00
C320   C     0.04934   0.99437   0.15267   0.00000  Uiso   1.00
C321   C     0.09741   0.68521   0.12546   0.00000  Uiso   1.00
C322   C     0.10317   0.81089   0.44028   0.00000  Uiso   1.00
C323   C     0.18924   0.81408   0.01370   0.00000  Uiso   1.00
C324   C     0.21343   0.77690   0.48181   0.00000  Uiso   1.00
C325   C     0.18069   0.75485   0.43103   0.00000  Uiso   1.00
C326   C     0.12620   0.77177   0.41027   0.00000  Uiso   1.00
C327   C     0.22379   0.83753   0.06261   0.00000  Uiso   1.00
C328   C     0.30080   0.78179   0.05432   0.00000  Uiso   1.00
H329   H     0.00871   0.76682   0.07183   0.00000  Uiso   1.00
H330   H     0.02585   0.89845   0.03314   0.00000  Uiso   1.00
H331   H     0.10202   0.75360   0.37073   0.00000  Uiso   1.00
H332   H     0.00811   0.67863   0.13486   0.00000  Uiso   1.00
H333   H     0.04418   0.95161   0.14149   0.00000  Uiso   1.00
H334   H     0.13942   0.66898   0.14270   0.00000  Uiso   1.00
H335   H     0.08641   0.67644   0.07910   0.00000  Uiso   1.00
H336   H     0.10203   0.72821   0.13384   0.00000  Uiso   1.00
H337   H     0.27334   0.99758   0.26525   0.00000  Uiso   1.00
H338   H     0.15671   0.79164   0.20830   0.00000  Uiso   1.00
H339   H     0.17671   0.87503   0.29178   0.00000  Uiso   1.00
H340   H     0.19764   0.72534   0.40679   0.00000  Uiso   1.00
H341   H     0.28844   0.73310   0.47823   0.00000  Uiso   1.00
H342   H     0.20930   0.86904   0.08590   0.00000  Uiso   1.00
H343   H     0.31819   0.88289   0.43208   0.00000  Uiso   1.00
H344   H     0.11849   0.86702   0.07377   0.00000  Uiso   1.00
N345   N     0.14493   0.81890   0.23542   0.00000  Uiso   1.00
N346   N     0.18840   0.84777   0.26457   0.00000  Uiso   1.00
O347   O     0.29769   0.91296   0.25357   0.00000  Uiso   1.00
O348   O     0.05742   0.90371   0.24423   0.00000  Uiso   1.00
O349   O     0.31490   0.84024   0.33380   0.00000  Uiso   1.00
O350   O     0.07463   0.83099   0.32446   0.00000  Uiso   1.00
O351   O     0.27592   0.76296   0.25576   0.00000  Uiso   1.00
O352   O     0.03565   0.75371   0.24642   0.00000  Uiso   1.00
O353   O     0.25870   0.83567   0.17554   0.00000  Uiso   1.00
O354   O     0.01843   0.82642   0.16620   0.00000  Uiso   1.00
O355   O     0.06459   0.67092   0.21180   0.00000  Uiso   1.00
Zn356  Zn    0.27119   0.83951   0.25623   0.00000  Uiso   1.00
Zn357  Zn    0.06214   0.82716   0.24376   0.00000  Uiso   1.00
C358   C     0.34739   0.93127   0.24613   0.00000  Uiso   1.00
C359   C     0.38624   0.83475   0.41617   0.00000  Uiso   1.00
C360   C     0.35198   0.98465   0.23552   0.00000  Uiso   1.00
C361   C     0.36865   0.83461   0.35520   0.00000  Uiso   1.00
C362   C     0.64416   0.68044   0.24949   0.00000  Uiso   1.00
C363   C     0.65140   0.73505   0.24943   0.00000  Uiso   1.00
C364   C     0.63081   0.82942   0.14482   0.00000  Uiso   1.00
C365   C     0.60303   0.76180   0.00186   0.00000  Uiso   1.00
C366   C     0.60996   0.81876   0.08503   0.00000  Uiso   1.00
C367   C     0.35771   0.86529   0.45000   0.00000  Uiso   1.00
C368   C     0.38144   0.87530   0.00688   0.00000  Uiso   1.00
C369   C     0.46510   0.82767   0.49528   0.00000  Uiso   1.00
C370   C     0.43527   0.85768   0.02940   0.00000  Uiso   1.00
C371   C     0.38268   0.99437   0.15267   0.00000  Uiso   1.00
C372   C     0.43074   0.68521   0.12546   0.00000  Uiso   1.00
C373   C     0.43650   0.81089   0.44028   0.00000  Uiso   1.00
C374   C     0.52258   0.81408   0.01370   0.00000  Uiso   1.00
C375   C     0.54676   0.77690   0.48181   0.00000  Uiso   1.00
C376   C     0.51402   0.75485   0.43103   0.00000  Uiso   1.00
C377   C     0.45953   0.77177   0.41027   0.00000  Uiso   1.00
C378   C     0.55713   0.83753   0.06261   0.00000  Uiso   1.00
C379   C     0.63413   0.78179   0.05432   0.00000  Uiso   1.00
H380   H     0.34204   0.76682   0.07183   0.00000  Uiso   1.00
H381   H     0.35918   0.89845   0.03314   0.00000  Uiso   1.00
H382   H     0.43535   0.75360   0.37073   0.00000  Uiso   1.00
H383   H     0.34144   0.67863   0.13486   0.00000  Uiso   1.00
H384   H     0.37752   0.95161   0.14149   0.00000  Uiso   1.00
H385   H     0.47275   0.66898   0.14270   0.00000  Uiso   1.00
H386   H     0.41975   0.67644   0.07910   0.00000  Uiso   1.00
H387   H     0.43536   0.72821   0.13384   0.00000  Uiso   1.00
H388   H     0.60668   0.99758   0.26525   0.00000  Uiso   1.00
H389   H     0.49004   0.79164   0.20830   0.00000  Uiso   1.00
H390   H     0.51004   0.87503   0.29178   0.00000  Uiso   1.00
H391   H     0.53098   0.72534   0.40679   0.00000  Uiso   1.00
H392   H     0.62178   0.73310   0.47823   0.00000  Uiso   1.00
H393   H     0.54263   0.86904   0.08590   0.00000  Uiso   1.00
H394   H     0.65152   0.88289   0.43208   0.00000  Uiso   1.00
H395   H     0.45182   0.86702   0.07377   0.00000  Uiso   1.00
N396   N     0.47827   0.81890   0.23542   0.00000  Uiso   1.00
N397   N     0.52173   0.84777   0.26457   0.00000  Uiso   1.00
O398   O     0.63102   0.91296   0.25357   0.00000  Uiso   1.00
O399   O     0.39075   0.90371   0.24423   0.00000  Uiso   1.00
O400   O     0.64823   0.84024   0.33380   0.00000  Uiso   1.00
O401   O     0.40796   0.83099   0.32446   0.00000  Uiso   1.00
O402   O     0.60925   0.76296   0.25576   0.00000  Uiso   1.00
O403   O     0.36898   0.75371   0.24642   0.00000  Uiso   1.00
O404   O     0.59204   0.83567   0.17554   0.00000  Uiso   1.00
O405   O     0.35177   0.82642   0.16620   0.00000  Uiso   1.00
O406   O     0.39792   0.67092   0.21180   0.00000  Uiso   1.00
Zn407  Zn    0.60453   0.83951   0.25623   0.00000  Uiso   1.00
Zn408  Zn    0.39547   0.82716   0.24376   0.00000  Uiso   1.00
C409   C     0.68072   0.93127   0.24613   0.00000  Uiso   1.00
C410   C     0.71957   0.83475   0.41617   0.00000  Uiso   1.00
C411   C     0.68531   0.98465   0.23552   0.00000  Uiso   1.00
C412   C     0.70198   0.83461   0.35520   0.00000  Uiso   1.00
C413   C     0.97749   0.68044   0.24949   0.00000  Uiso   1.00
C414   C     0.98473   0.73505   0.24943   0.00000  Uiso   1.00
C415   C     0.96414   0.82942   0.14482   0.00000  Uiso   1.00
C416   C     0.93637   0.76180   0.00186   0.00000  Uiso   1.00
C417   C     0.94329   0.81876   0.08503   0.00000  Uiso   1.00
C418   C     0.69105   0.86529   0.45000   0.00000  Uiso   1.00
C419   C     0.71477   0.87530   0.00688   0.00000  Uiso   1.00
C420   C     0.79844   0.82767   0.49528   0.00000  Uiso   1.00
C421   C     0.76860   0.85768   0.02940   0.00000  Uiso   1.00
C422   C     0.71601   0.99437   0.15267   0.00000  Uiso   1.00
C423   C     0.76408   0.68521   0.12546   0.00000  Uiso   1.00
C424   C     0.76984   0.81089   0.44028   0.00000  Uiso   1.00
C425   C     0.85591   0.81408   0.01370   0.00000  Uiso   1.00
C426   C     0.88009   0.77690   0.48181   0.00000  Uiso   1.00
C427   C     0.84735   0.75485   0.43103   0.00000  Uiso   1.00
C428   C     0.79287   0.77177   0.41027   0.00000  Uiso   1.00
C429   C     0.89046   0.83753   0.06261   0.00000  Uiso   1.00
C430   C     0.96746   0.78179   0.05432   0.00000  Uiso   1.00
H431   H     0.67537   0.76682   0.07183   0.00000  Uiso   1.00
H432   H     0.69251   0.89845   0.03314   0.00000  Uiso   1.00
H433   H     0.76869   0.75360   0.37073   0.00000  Uiso   1.00
H434   H     0.67478   0.67863   0.13486   0.00000  Uiso   1.00
H435   H     0.71085   0.95161   0.14149   0.00000  Uiso   1.00
H436   H     0.80609   0.66898   0.14270   0.00000  Uiso   1.00
H437   H     0.75308   0.67644   0.07910   0.00000  Uiso   1.00
H438   H     0.76870   0.72821   0.13384   0.00000  Uiso   1.00
H439   H     0.94001   0.99758   0.26525   0.00000  Uiso   1.00
H440   H     0.82337   0.79164   0.20830   0.00000  Uiso   1.00
H441   H     0.84337   0.87503   0.29178   0.00000  Uiso   1.00
H442   H     0.86431   0.72534   0.40679   0.00000  Uiso   1.00
H443   H     0.95511   0.73310   0.47823   0.00000  Uiso   1.00
H444   H     0.87596   0.86904   0.08590   0.00000  Uiso   1.00
H445   H     0.98485   0.88289   0.43208   0.00000  Uiso   1.00
H446   H     0.78515   0.86702   0.07377   0.00000  Uiso   1.00
N447   N     0.81160   0.81890   0.23542   0.00000  Uiso   1.00
N448   N     0.85507   0.84777   0.26457   0.00000  Uiso   1.00
O449   O     0.96435   0.91296   0.25357   0.00000  Uiso   1.00
O450   O     0.72408   0.90371   0.24423   0.00000  Uiso   1.00
O451   O     0.98157   0.84024   0.33380   0.00000  Uiso   1.00
O452   O     0.74130   0.83099   0.32446   0.00000  Uiso   1.00
O453   O     0.94258   0.76296   0.25576   0.00000  Uiso   1.00
O454   O     0.70231   0.75371   0.24642   0.00000  Uiso   1.00
O455   O     0.92537   0.83567   0.17554   0.00000  Uiso   1.00
O456   O     0.68510   0.82642   0.16620   0.00000  Uiso   1.00
O457   O     0.73126   0.67092   0.21180   0.00000  Uiso   1.00
Zn458  Zn    0.93786   0.83951   0.25623   0.00000  Uiso   1.00
Zn459  Zn    0.72881   0.82716   0.24376   0.00000  Uiso   1.00
C460   C     0.01406   0.26460   0.74613   0.00000  Uiso   1.00
C461   C     0.05290   0.16809   0.91617   0.00000  Uiso   1.00
C462   C     0.01864   0.31798   0.73552   0.00000  Uiso   1.00
C463   C     0.03532   0.16794   0.85520   0.00000  Uiso   1.00
C464   C     0.31083   0.01377   0.74949   0.00000  Uiso   1.00
C465   C     0.31807   0.06838   0.74943   0.00000  Uiso   1.00
C466   C     0.29748   0.16275   0.64482   0.00000  Uiso   1.00
C467   C     0.26970   0.09514   0.50186   0.00000  Uiso   1.00
C468   C     0.27662   0.15210   0.58503   0.00000  Uiso   1.00
C469   C     0.02438   0.19862   0.95000   0.00000  Uiso   1.00
C470   C     0.04811   0.20863   0.50688   0.00000  Uiso   1.00
C471   C     0.13177   0.16100   0.99528   0.00000  Uiso   1.00
C472   C     0.10193   0.19101   0.52940   0.00000  Uiso   1.00
C473   C     0.04934   0.32770   0.65267   0.00000  Uiso   1.00
C474   C     0.09741   0.01854   0.62546   0.00000  Uiso   1.00
C475   C     0.10317   0.14422   0.94028   0.00000  Uiso   1.00
C476   C     0.18924   0.14742   0.51370   0.00000  Uiso   1.00
C477   C     0.21343   0.11023   0.98181   0.00000  Uiso   1.00
C478   C     0.18069   0.08818   0.93103   0.00000  Uiso   1.00
C479   C     0.12620   0.10510   0.91027   0.00000  Uiso   1.00
C480   C     0.22379   0.17086   0.56261   0.00000  Uiso   1.00
C481   C     0.30080   0.11512   0.55432   0.00000  Uiso   1.00
H482   H     0.00871   0.10015   0.57183   0.00000  Uiso   1.00
H483   H     0.02585   0.23178   0.53314   0.00000  Uiso   1.00
H484   H     0.10202   0.08693   0.87073   0.00000  Uiso   1.00
H485   H     0.00811   0.01196   0.63486   0.00000  Uiso   1.00
H486   H     0.04418   0.28494   0.64149   0.00000  Uiso   1.00
H487   H     0.13942   0.00232   0.64270   0.00000  Uiso   1.00
H488   H     0.08641   0.00978   0.57910   0.00000  Uiso   1.00
H489   H     0.10203   0.06154   0.63384   0.00000  Uiso   1.00
H490   H     0.27334   0.33091   0.76525   0.00000  Uiso   1.00
H491   H     0.15671   0.12497   0.70830   0.00000  Uiso   1.00
H492   H     0.17671   0.20836   0.79178   0.00000  Uiso   1.00
H493   H     0.19764   0.05868   0.90679   0.00000  Uiso   1.00
H494   H     0.28844   0.06644   0.97823   0.00000  Uiso   1.00
H495   H     0.20930   0.20237   0.58590   0.00000  Uiso   1.00
H496   H     0.31819   0.21622   0.93208   0.00000  Uiso   1.00
H497   H     0.11849   0.20035   0.57377   0.00000  Uiso   1.00
N498   N     0.14493   0.15223   0.73542   0.00000  Uiso   1.00
N499   N     0.18840   0.18110   0.76457   0.00000  Uiso   1.00
O500   O     0.29769   0.24629   0.75357   0.00000  Uiso   1.00
O501   O     0.05742   0.23704   0.74423   0.00000  Uiso   1.00
O502   O     0.31490   0.17358   0.83380   0.00000  Uiso   1.00
O503   O     0.07463   0.16433   0.82446   0.00000  Uiso   1.00
O504   O     0.27592   0.09629   0.75576   0.00000  Uiso   1.00
O505   O     0.03565   0.08704   0.74642   0.00000  Uiso   1.00
O506   O     0.25870   0.16901   0.67554   0.00000  Uiso   1.00
O507   O     0.01843   0.15976   0.66620   0.00000  Uiso   1.00
O508   O     0.06459   0.00426   0.71180   0.00000  Uiso   1.00
Zn509  Zn    0.27119   0.17284   0.75623   0.00000  Uiso   1.00
Zn510  Zn    0.06214   0.16049   0.74376   0.00000  Uiso   1.00
C511   C     0.34739   0.26460   0.74613   0.00000  Uiso   1.00
C512   C     0.38624   0.16809   0.91617   0.00000  Uiso   1.00
C513   C     0.35198   0.31798   0.73552   0.00000  Uiso   1.00
C514   C     0.36865   0.16794   0.85520   0.00000  Uiso   1.00
C515   C     0.64416   0.01377   0.74949   0.00000  Uiso   1.00
C516   C     0.65140   0.06838   0.74943   0.00000  Uiso   1.00
C517   C     0.63081   0.16275   0.64482   0.00000  Uiso   1.00
C518   C     0.60303   0.09514   0.50186   0.00000  Uiso   1.00
C519   C     0.60996   0.15210   0.58503   0.00000  Uiso   1.00
C520   C     0.35771   0.19862   0.95000   0.00000  Uiso   1.00
C521   C     0.38144   0.20863   0.50688   0.00000  Uiso   1.00
C522   C     0.46510   0.16100   0.99528   0.00000  Uiso   1.00
C523   C     0.43527   0.19101   0.52940   0.00000  Uiso   1.00
C524   C     0.38268   0.32770   0.65267   0.00000  Uiso   1.00
C525   C     0.43074   0.01854   0.62546   0.00000  Uiso   1.00
C526   C     0.43650   0.14422   0.94028   0.00000  Uiso   1.00
C527   C     0.52258   0.14742   0.51370   0.00000  Uiso   1.00
C528   C     0.54676   0.11023   0.98181   0.00000  Uiso   1.00
C529   C     0.51402   0.08818   0.93103   0.00000  Uiso   1.00
C530   C     0.45953   0.10510   0.91027   0.00000  Uiso   1.00
C531   C     0.55713   0.17086   0.56261   0.00000  Uiso   1.00
C532   C     0.63413   0.11512   0.55432   0.00000  Uiso   1.00
H533   H     0.34204   0.10015   0.57183   0.00000  Uiso   1.00
H534   H     0.35918   0.23178   0.53314   0.00000  Uiso   1.00
H535   H     0.43535   0.08693   0.87073   0.00000  Uiso   1.00
H536   H     0.34144   0.01196   0.63486   0.00000  Uiso   1.00
H537   H     0.37752   0.28494   0.64149   0.00000  Uiso   1.00
H538   H     0.47275   0.00232   0.64270   0.00000  Uiso   1.00
H539   H     0.41975   0.00978   0.57910   0.00000  Uiso   1.00
H540   H     0.43536   0.06154   0.63384   0.00000  Uiso   1.00
H541   H     0.60668   0.33091   0.76525   0.00000  Uiso   1.00
H542   H     0.49004   0.12497   0.70830   0.00000  Uiso   1.00
H543   H     0.51004   0.20836   0.79178   0.00000  Uiso   1.00
H544   H     0.53098   0.05868   0.90679   0.00000  Uiso   1.00
H545   H     0.62178   0.06644   0.97823   0.00000  Uiso   1.00
H546   H     0.54263   0.20237   0.58590   0.00000  Uiso   1.00
H547   H     0.65152   0.21622   0.93208   0.00000  Uiso   1.00
H548   H     0.45182   0.20035   0.57377   0.00000  Uiso   1.00
N549   N     0.47827   0.15223   0.73542   0.00000  Uiso   1.00
N550   N     0.52173   0.18110   0.76457   0.00000  Uiso   1.00
O551   O     0.63102   0.24629   0.75357   0.00000  Uiso   1.00
O552   O     0.39075   0.23704   0.74423   0.00000  Uiso   1.00
O553   O     0.64823   0.17358   0.83380   0.00000  Uiso   1.00
O554   O     0.40796   0.16433   0.82446   0.00000  Uiso   1.00
O555   O     0.60925   0.09629   0.75576   0.00000  Uiso   1.00
O556   O     0.36898   0.08704   0.74642   0.00000  Uiso   1.00
O557   O     0.59204   0.16901   0.67554   0.00000  Uiso   1.00
O558   O     0.35177   0.15976   0.66620   0.00000  Uiso   1.00
O559   O     0.39792   0.00426   0.71180   0.00000  Uiso   1.00
Zn560  Zn    0.60453   0.17284   0.75623   0.00000  Uiso   1.00
Zn561  Zn    0.39547   0.16049   0.74376   0.00000  Uiso   1.00
C562   C     0.68072   0.26460   0.74613   0.00000  Uiso   1.00
C563   C     0.71957   0.16809   0.91617   0.00000  Uiso   1.00
C564   C     0.68531   0.31798   0.73552   0.00000  Uiso   1.00
C565   C     0.70198   0.16794   0.85520   0.00000  Uiso   1.00
C566   C     0.97749   0.01377   0.74949   0.00000  Uiso   1.00
C567   C     0.98473   0.06838   0.74943   0.00000  Uiso   1.00
C568   C     0.96414   0.16275   0.64482   0.00000  Uiso   1.00
C569   C     0.93637   0.09514   0.50186   0.00000  Uiso   1.00
C570   C     0.94329   0.15210   0.58503   0.00000  Uiso   1.00
C571   C     0.69105   0.19862   0.95000   0.00000  Uiso   1.00
C572   C     0.71477   0.20863   0.50688   0.00000  Uiso   1.00
C573   C     0.79844   0.16100   0.99528   0.00000  Uiso   1.00
C574   C     0.76860   0.19101   0.52940   0.00000  Uiso   1.00
C575   C     0.71601   0.32770   0.65267   0.00000  Uiso   1.00
C576   C     0.76408   0.01854   0.62546   0.00000  Uiso   1.00
C577   C     0.76984   0.14422   0.94028   0.00000  Uiso   1.00
C578   C     0.85591   0.14742   0.51370   0.00000  Uiso   1.00
C579   C     0.88009   0.11023   0.98181   0.00000  Uiso   1.00
C580   C     0.84735   0.08818   0.93103   0.00000  Uiso   1.00
C581   C     0.79287   0.10510   0.91027   0.00000  Uiso   1.00
C582   C     0.89046   0.17086   0.56261   0.00000  Uiso   1.00
C583   C     0.96746   0.11512   0.55432   0.00000  Uiso   1.00
H584   H     0.67537   0.10015   0.57183   0.00000  Uiso   1.00
H585   H     0.69251   0.23178   0.53314   0.00000  Uiso   1.00
H586   H     0.76869   0.08693   0.87073   0.00000  Uiso   1.00
H587   H     0.67478   0.01196   0.63486   0.00000  Uiso   1.00
H588   H     0.71085   0.28494   0.64149   0.00000  Uiso   1.00
H589   H     0.80609   0.00232   0.64270   0.00000  Uiso   1.00
H590   H     0.75308   0.00978   0.57910   0.00000  Uiso   1.00
H591   H     0.76870   0.06154   0.63384   0.00000  Uiso   1.00
H592   H     0.94001   0.33091   0.76525   0.00000  Uiso   1.00
H593   H     0.82337   0.12497   0.70830   0.00000  Uiso   1.00
H594   H     0.84337   0.20836   0.79178   0.00000  Uiso   1.00
H595   H     0.86431   0.05868   0.90679   0.00000  Uiso   1.00
H596   H     0.95511   0.06644   0.97823   0.00000  Uiso   1.00
H597   H     0.87596   0.20237   0.58590   0.00000  Uiso   1.00
H598   H     0.98485   0.21622   0.93208   0.00000  Uiso   1.00
H599   H     0.78515   0.20035   0.57377   0.00000  Uiso   1.00
N600   N     0.81160   0.15223   0.73542   0.00000  Uiso   1.00
N601   N     0.85507   0.18110   0.76457   0.00000  Uiso   1.00
O602   O     0.96435   0.24629   0.75357   0.00000  Uiso   1.00
O603   O     0.72408   0.23704   0.74423   0.00000  Uiso   1.00
O604   O     0.98157   0.17358   0.83380   0.00000  Uiso   1.00
O605   O     0.74130   0.16433   0.82446   0.00000  Uiso   1.00
O606   O     0.94258   0.09629   0.75576   0.00000  Uiso   1.00
O607   O     0.70231   0.08704   0.74642   0.00000  Uiso   1.00
O608   O     0.92537   0.16901   0.67554   0.00000  Uiso   1.00
O609   O     0.68510   0.15976   0.66620   0.00000  Uiso   1.00
O610   O     0.73126   0.00426   0.71180   0.00000  Uiso   1.00
Zn611  Zn    0.93786   0.17284   0.75623   0.00000  Uiso   1.00
Zn612  Zn    0.72881   0.16049   0.74376   0.00000  Uiso   1.00
C613   C     0.01406   0.59794   0.74613   0.00000  Uiso   1.00
C614   C     0.05290   0.50142   0.91617   0.00000  Uiso   1.00
C615   C     0.01864   0.65131   0.73552   0.00000  Uiso   1.00
C616   C     0.03532   0.50128   0.85520   0.00000  Uiso   1.00
C617   C     0.31083   0.34710   0.74949   0.00000  Uiso   1.00
C618   C     0.31807   0.40171   0.74943   0.00000  Uiso   1.00
C619   C     0.29748   0.49608   0.64482   0.00000  Uiso   1.00
C620   C     0.26970   0.42847   0.50186   0.00000  Uiso   1.00
C621   C     0.27662   0.48543   0.58503   0.00000  Uiso   1.00
C622   C     0.02438   0.53196   0.95000   0.00000  Uiso   1.00
C623   C     0.04811   0.54196   0.50688   0.00000  Uiso   1.00
C624   C     0.13177   0.49433   0.99528   0.00000  Uiso   1.00
C625   C     0.10193   0.52434   0.52940   0.00000  Uiso   1.00
C626   C     0.04934   0.66103   0.65267   0.00000  Uiso   1.00
C627   C     0.09741   0.35188   0.62546   0.00000  Uiso   1.00
C628   C     0.10317   0.47755   0.94028   0.00000  Uiso   1.00
C629   C     0.18924   0.48075   0.51370   0.00000  Uiso   1.00
C630   C     0.21343   0.44356   0.98181   0.00000  Uiso   1.00
C631   C     0.18069   0.42151   0.93103   0.00000  Uiso   1.00
C632   C     0.12620   0.43844   0.91027   0.00000  Uiso   1.00
C633   C     0.22379   0.50420   0.56261   0.00000  Uiso   1.00
C634   C     0.30080   0.44846   0.55432   0.00000  Uiso   1.00
H635   H     0.00871   0.43348   0.57183   0.00000  Uiso   1.00
H636   H     0.02585   0.56512   0.53314   0.00000  Uiso   1.00
H637   H     0.10202   0.42027   0.87073   0.00000  Uiso   1.00
H638   H     0.00811   0.34530   0.63486   0.00000  Uiso   1.00
H639   H     0.04418   0.61827   0.64149   0.00000  Uiso   1.00
H640   H     0.13942   0.33565   0.64270   0.00000  Uiso   1.00
H641   H     0.08641   0.34311   0.57910   0.00000  Uiso   1.00
H642   H     0.10203   0.39488   0.63384   0.00000  Uiso   1.00
H643   H     0.27334   0.66425   0.76525   0.00000  Uiso   1.00
H644   H     0.15671   0.45830   0.70830   0.00000  Uiso   1.00
H645   H     0.17671   0.54169   0.79178   0.00000  Uiso   1.00
H646   H     0.19764   0.39201   0.90679   0.00000  Uiso   1.00
H647   H     0.28844   0.39977   0.97823   0.00000  Uiso   1.00
H648   H     0.20930   0.53570   0.58590   0.00000  Uiso   1.00
H649   H     0.31819   0.54956   0.93208   0.00000  Uiso   1.00
H650   H     0.11849   0.53368   0.57377   0.00000  Uiso   1.00
N651   N     0.14493   0.48556   0.73542   0.00000  Uiso   1.00
N652   N     0.18840   0.51444   0.76457   0.00000  Uiso   1.00
O653   O     0.29769   0.57963   0.75357   0.00000  Uiso   1.00
O654   O     0.05742   0.57038   0.74423   0.00000  Uiso   1.00
O655   O     0.31490   0.50691   0.83380   0.00000  Uiso   1.00
O656   O     0.07463   0.49766   0.82446   0.00000  Uiso   1.00
O657   O     0.27592   0.42962   0.75576   0.00000  Uiso   1.00
O658   O     0.03565   0.42037   0.74642   0.00000  Uiso   1.00
O659   O     0.25870   0.50234   0.67554   0.00000  Uiso   1.00
O660   O     0.01843   0.49309   0.66620   0.00000  Uiso   1.00
O661   O     0.06459   0.33759   0.71180   0.00000  Uiso   1.00
Zn662  Zn    0.27119   0.50618   0.75623   0.00000  Uiso   1.00
Zn663  Zn    0.06214   0.49382   0.74376   0.00000  Uiso   1.00
C664   C     0.34739   0.59794   0.74613   0.00000  Uiso   1.00
C665   C     0.38624   0.50142   0.91617   0.00000  Uiso   1.00
C666   C     0.35198   0.65131   0.73552   0.00000  Uiso   1.00
C667   C     0.36865   0.50128   0.85520   0.00000  Uiso   1.00
C668   C     0.64416   0.34710   0.74949   0.00000  Uiso   1.00
C669   C     0.65140   0.40171   0.74943   0.00000  Uiso   1.00
C670   C     0.63081   0.49608   0.64482   0.00000  Uiso   1.00
C671   C     0.60303   0.42847   0.50186   0.00000  Uiso   1.00
C672   C     0.60996   0.48543   0.58503   0.00000  Uiso   1.00
C673   C     0.35771   0.53196   0.95000   0.00000  Uiso   1.00
C674   C     0.38144   0.54196   0.50688   0.00000  Uiso   1.00
C675   C     0.46510   0.49433   0.99528   0.00000  Uiso   1.00
C676   C     0.43527   0.52434   0.52940   0.00000  Uiso   1.00
C677   C     0.38268   0.66103   0.65267   0.00000  Uiso   1.00
C678   C     0.43074   0.35188   0.62546   0.00000  Uiso   1.00
C679   C     0.43650   0.47755   0.94028   0.00000  Uiso   1.00
C680   C     0.52258   0.48075   0.51370   0.00000  Uiso   1.00
C681   C     0.54676   0.44356   0.98181   0.00000  Uiso   1.00
C682   C     0.51402   0.42151   0.93103   0.00000  Uiso   1.00
C683   C     0.45953   0.43844   0.91027   0.00000  Uiso   1.00
C684   C     0.55713   0.50420   0.56261   0.00000  Uiso   1.00
C685   C     0.63413   0.44846   0.55432   0.00000  Uiso   1.00
H686   H     0.34204   0.43348   0.57183   0.00000  Uiso   1.00
H687   H     0.35918   0.56512   0.53314   0.00000  Uiso   1.00
H688   H     0.43535   0.42027   0.87073   0.00000  Uiso   1.00
H689   H     0.34144   0.34530   0.63486   0.00000  Uiso   1.00
H690   H     0.37752   0.61827   0.64149   0.00000  Uiso   1.00
H691   H     0.47275   0.33565   0.64270   0.00000  Uiso   1.00
H692   H     0.41975   0.34311   0.57910   0.00000  Uiso   1.00
H693   H     0.43536   0.39488   0.63384   0.00000  Uiso   1.00
H694   H     0.60668   0.66425   0.76525   0.00000  Uiso   1.00
H695   H     0.49004   0.45830   0.70830   0.00000  Uiso   1.00
H696   H     0.51004   0.54169   0.79178   0.00000  Uiso   1.00
H697   H     0.53098   0.39201   0.90679   0.00000  Uiso   1.00
H698   H     0.62178   0.39977   0.97823   0.00000  Uiso   1.00
H699   H     0.54263   0.53570   0.58590   0.00000  Uiso   1.00
H700   H     0.65152   0.54956   0.93208   0.00000  Uiso   1.00
H701   H     0.45182   0.53368   0.57377   0.00000  Uiso   1.00
N702   N     0.47827   0.48556   0.73542   0.00000  Uiso   1.00
N703   N     0.52173   0.51444   0.76457   0.00000  Uiso   1.00
O704   O     0.63102   0.57963   0.75357   0.00000  Uiso   1.00
O705   O     0.39075   0.57038   0.74423   0.00000  Uiso   1.00
O706   O     0.64823   0.50691   0.83380   0.00000  Uiso   1.00
O707   O     0.40796   0.49766   0.82446   0.00000  Uiso   1.00
O708   O     0.60925   0.42962   0.75576   0.00000  Uiso   1.00
O709   O     0.36898   0.42037   0.74642   0.00000  Uiso   1.00
O710   O     0.59204   0.50234   0.67554   0.00000  Uiso   1.00
O711   O     0.35177   0.49309   0.66620   0.00000  Uiso   1.00
O712   O     0.39792   0.33759   0.71180   0.00000  Uiso   1.00
Zn713  Zn    0.60453   0.50618   0.75623   0.00000  Uiso   1.00
Zn714  Zn    0.39547   0.49382   0.74376   0.00000  Uiso   1.00
C715   C     0.68072   0.59794   0.74613   0.00000  Uiso   1.00
C716   C     0.71957   0.50142   0.91617   0.00000  Uiso   1.00
C717   C     0.68531   0.65131   0.73552   0.00000  Uiso   1.00
C718   C     0.70198   0.50128   0.85520   0.00000  Uiso   1.00
C719   C     0.97749   0.34710   0.74949   0.00000  Uiso   1.00
C720   C     0.98473   0.40171   0.74943   0.00000  Uiso   1.00
C721   C     0.96414   0.49608   0.64482   0.00000  Uiso   1.00
C722   C     0.93637   0.42847   0.50186   0.00000  Uiso   1.00
C723   C     0.94329   0.48543   0.58503   0.00000  Uiso   1.00
C724   C     0.69105   0.53196   0.95000   0.00000  Uiso   1.00
C725   C     0.71477   0.54196   0.50688   0.00000  Uiso   1.00
C726   C     0.79844   0.49433   0.99528   0.00000  Uiso   1.00
C727   C     0.76860   0.52434   0.52940   0.00000  Uiso   1.00
C728   C     0.71601   0.66103   0.65267   0.00000  Uiso   1.00
C729   C     0.76408   0.35188   0.62546   0.00000  Uiso   1.00
C730   C     0.76984   0.47755   0.94028   0.00000  Uiso   1.00
C731   C     0.85591   0.48075   0.51370   0.00000  Uiso   1.00
C732   C     0.88009   0.44356   0.98181   0.00000  Uiso   1.00
C733   C     0.84735   0.42151   0.93103   0.00000  Uiso   1.00
C734   C     0.79287   0.43844   0.91027   0.00000  Uiso   1.00
C735   C     0.89046   0.50420   0.56261   0.00000  Uiso   1.00
C736   C     0.96746   0.44846   0.55432   0.00000  Uiso   1.00
H737   H     0.67537   0.43348   0.57183   0.00000  Uiso   1.00
H738   H     0.69251   0.56512   0.53314   0.00000  Uiso   1.00
H739   H     0.76869   0.42027   0.87073   0.00000  Uiso   1.00
H740   H     0.67478   0.34530   0.63486   0.00000  Uiso   1.00
H741   H     0.71085   0.61827   0.64149   0.00000  Uiso   1.00
H742   H     0.80609   0.33565   0.64270   0.00000  Uiso   1.00
H743   H     0.75308   0.34311   0.57910   0.00000  Uiso   1.00
H744   H     0.76870   0.39488   0.63384   0.00000  Uiso   1.00
H745   H     0.94001   0.66425   0.76525   0.00000  Uiso   1.00
H746   H     0.82337   0.45830   0.70830   0.00000  Uiso   1.00
H747   H     0.84337   0.54169   0.79178   0.00000  Uiso   1.00
H748   H     0.86431   0.39201   0.90679   0.00000  Uiso   1.00
H749   H     0.95511   0.39977   0.97823   0.00000  Uiso   1.00
H750   H     0.87596   0.53570   0.58590   0.00000  Uiso   1.00
H751   H     0.98485   0.54956   0.93208   0.00000  Uiso   1.00
H752   H     0.78515   0.53368   0.57377   0.00000  Uiso   1.00
N753   N     0.81160   0.48556   0.73542   0.00000  Uiso   1.00
N754   N     0.85507   0.51444   0.76457   0.00000  Uiso   1.00
O755   O     0.96435   0.57963   0.75357   0.00000  Uiso   1.00
O756   O     0.72408   0.57038   0.74423   0.00000  Uiso   1.00
O757   O     0.98157   0.50691   0.83380   0.00000  Uiso   1.00
O758   O     0.74130   0.49766   0.82446   0.00000  Uiso   1.00
O759   O     0.94258   0.42962   0.75576   0.00000  Uiso   1.00
O760   O     0.70231   0.42037   0.74642   0.00000  Uiso   1.00
O761   O     0.92537   0.50234   0.67554   0.00000  Uiso   1.00
O762   O     0.68510   0.49309   0.66620   0.00000  Uiso   1.00
O763   O     0.73126   0.33759   0.71180   0.00000  Uiso   1.00
Zn764  Zn    0.93786   0.50618   0.75623   0.00000  Uiso   1.00
Zn765  Zn    0.72881   0.49382   0.74376   0.00000  Uiso   1.00
C766   C     0.01406   0.93127   0.74613   0.00000  Uiso   1.00
C767   C     0.05290   0.83475   0.91617   0.00000  Uiso   1.00
C768   C     0.01864   0.98465   0.73552   0.00000  Uiso   1.00
C769   C     0.03532   0.83461   0.85520   0.00000  Uiso   1.00
C770   C     0.31083   0.68044   0.74949   0.00000  Uiso   1.00
C771   C     0.31807   0.73505   0.74943   0.00000  Uiso   1.00
C772   C     0.29748   0.82942   0.64482   0.00000  Uiso   1.00
C773   C     0.26970   0.76180   0.50186   0.00000  Uiso   1.00
C774   C     0.27662   0.81876   0.58503   0.00000  Uiso   1.00
C775   C     0.02438   0.86529   0.95000   0.00000  Uiso   1.00
C776   C     0.04811   0.87530   0.50688   0.00000  Uiso   1.00
C777   C     0.13177   0.82767   0.99528   0.00000  Uiso   1.00
C778   C     0.10193   0.85768   0.52940   0.00000  Uiso   1.00
C779   C     0.04934   0.99437   0.65267   0.00000  Uiso   1.00
C780   C     0.09741   0.68521   0.62546   0.00000  Uiso   1.00
C781   C     0.10317   0.81089   0.94028   0.00000  Uiso   1.00
C782   C     0.18924   0.81408   0.51370   0.00000  Uiso   1.00
C783   C     0.21343   0.77690   0.98181   0.00000  Uiso   1.00
C784   C     0.18069   0.75485   0.93103   0.00000  Uiso   1.00
C785   C     0.12620   0.77177   0.91027   0.00000  Uiso   1.00
C786   C     0.22379   0.83753   0.56261   0.00000  Uiso   1.00
C787   C     0.30080   0.78179   0.55432   0.00000  Uiso   1.00
H788   H     0.00871   0.76682   0.57183   0.00000  Uiso   1.00
H789   H     0.02585   0.89845   0.53314   0.00000  Uiso   1.00
H790   H     0.10202   0.75360   0.87073   0.00000  Uiso   1.00
H791   H     0.00811   0.67863   0.63486   0.00000  Uiso   1.00
H792   H     0.04418   0.95161   0.64149   0.00000  Uiso   1.00
H793   H     0.13942   0.66898   0.64270   0.00000  Uiso   1.00
H794   H     0.08641   0.67644   0.57910   0.00000  Uiso   1.00
H795   H     0.10203   0.72821   0.63384   0.00000  Uiso   1.00
H796   H     0.27334   0.99758   0.76525   0.00000  Uiso   1.00
H797   H     0.15671   0.79164   0.70830   0.00000  Uiso   1.00
H798   H     0.17671   0.87503   0.79178   0.00000  Uiso   1.00
H799   H     0.19764   0.72534   0.90679   0.00000  Uiso   1.00
H800   H     0.28844   0.73310   0.97823   0.00000  Uiso   1.00
H801   H     0.20930   0.86904   0.58590   0.00000  Uiso   1.00
H802   H     0.31819   0.88289   0.93208   0.00000  Uiso   1.00
H803   H     0.11849   0.86702   0.57377   0.00000  Uiso   1.00
N804   N     0.14493   0.81890   0.73542   0.00000  Uiso   1.00
N805   N     0.18840   0.84777   0.76457   0.00000  Uiso   1.00
O806   O     0.29769   0.91296   0.75357   0.00000  Uiso   1.00
O807   O     0.05742   0.90371   0.74423   0.00000  Uiso   1.00
O808   O     0.31490   0.84024   0.83380   0.00000  Uiso   1.00
O809   O     0.07463   0.83099   0.82446   0.00000  Uiso   1.00
O810   O     0.27592   0.76296   0.75576   0.00000  Uiso   1.00
O811   O     0.03565   0.75371   0.74642   0.00000  Uiso   1.00
O812   O     0.25870   0.83567   0.67554   0.00000  Uiso   1.00
O813   O     0.01843   0.82642   0.66620   0.00000  Uiso   1.00
O814   O     0.06459   0.67092   0.71180   0.00000  Uiso   1.00
Zn815  Zn    0.27119   0.83951   0.75623   0.00000  Uiso   1.00
Zn816  Zn    0.06214   0.82716   0.74376   0.00000  Uiso   1.00
C817   C     0.34739   0.93127   0.74613   0.00000  Uiso   1.00
C818   C     0.38624   0.83475   0.91617   0.00000  Uiso   1.00
C819   C     0.35198   0.98465   0.73552   0.00000  Uiso   1.00
C820   C     0.36865   0.83461   0.85520   0.00000  Uiso   1.00
C821   C     0.64416   0.68044   0.74949   0.00000  Uiso   1.00
C822   C     0.65140   0.73505   0.74943   0.00000  Uiso   1.00
C823   C     0.63081   0.82942   0.64482   0.00000  Uiso   1.00
C824   C     0.60303   0.76180   0.50186   0.00000  Uiso   1.00
C825   C     0.60996   0.81876   0.58503   0.00000  Uiso   1.00
C826   C     0.35771   0.86529   0.95000   0.00000  Uiso   1.00
C827   C     0.38144   0.87530   0.50688   0.00000  Uiso   1.00
C828   C     0.46510   0.82767   0.99528   0.00000  Uiso   1.00
C829   C     0.43527   0.85768   0.52940   0.00000  Uiso   1.00
C830   C     0.38268   0.99437   0.65267   0.00000  Uiso   1.00
C831   C     0.43074   0.68521   0.62546   0.00000  Uiso   1.00
C832   C     0.43650   0.81089   0.94028   0.00000  Uiso   1.00
C833   C     0.52258   0.81408   0.51370   0.00000  Uiso   1.00
C834   C     0.54676   0.77690   0.98181   0.00000  Uiso   1.00
C835   C     0.51402   0.75485   0.93103   0.00000  Uiso   1.00
C836   C     0.45953   0.77177   0.91027   0.00000  Uiso   1.00
C837   C     0.55713   0.83753   0.56261   0.00000  Uiso   1.00
C838   C     0.63413   0.78179   0.55432   0.00000  Uiso   1.00
H839   H     0.34204   0.76682   0.57183   0.00000  Uiso   1.00
H840   H     0.35918   0.89845   0.53314   0.00000  Uiso   1.00
H841   H     0.43535   0.75360   0.87073   0.00000  Uiso   1.00
H842   H     0.34144   0.67863   0.63486   0.00000  Uiso   1.00
H843   H     0.37752   0.95161   0.64149   0.00000  Uiso   1.00
H844   H     0.47275   0.66898   0.64270   0.00000  Uiso   1.00
H845   H     0.41975   0.67644   0.57910   0.00000  Uiso   1.00
H846   H     0.43536   0.72821   0.63384   0.00000  Uiso   1.00
H847   H     0.60668   0.99758   0.76525   0.00000  Uiso   1.00
H848   H     0.49004   0.79164   0.70830   0.00000  Uiso   1.00
H849   H     0.51004   0.87503   0.79178   0.00000  Uiso   1.00
H850   H     0.53098   0.72534   0.90679   0.00000  Uiso   1.00
H851   H     0.62178   0.73310   0.97823   0.00000  Uiso   1.00
H852   H     0.54263   0.86904   0.58590   0.00000  Uiso   1.00
H853   H     0.65152   0.88289   0.93208   0.00000  Uiso   1.00
H854   H     0.45182   0.86702   0.57377   0.00000  Uiso   1.00
N855   N     0.47827   0.81890   0.73542   0.00000  Uiso   1.00
N856   N     0.52173   0.84777   0.76457   0.00000  Uiso   1.00
O857   O     0.63102   0.91296   0.75357   0.00000  Uiso   1.00
O858   O     0.39075   0.90371   0.74423   0.00000  Uiso   1.00
O859   O     0.64823   0.84024   0.83380   0.00000  Uiso   1.00
O860   O     0.40796   0.83099   0.82446   0.00000  Uiso   1.00
O861   O     0.60925   0.76296   0.75576   0.00000  Uiso   1.00
O862   O     0.36898   0.75371   0.74642   0.00000  Uiso   1.00
O863   O     0.59204   0.83567   0.67554   0.00000  Uiso   1.00
O864   O     0.35177   0.82642   0.66620   0.00000  Uiso   1.00
O865   O     0.39792   0.67092   0.71180   0.00000  Uiso   1.00
Zn866  Zn    0.60453   0.83951   0.75623   0.00000  Uiso   1.00
Zn867  Zn    0.39547   0.82716   0.74376   0.00000  Uiso   1.00
C868   C     0.68072   0.93127   0.74613   0.00000  Uiso   1.00
C869   C     0.71957   0.83475   0.91617   0.00000  Uiso   1.00
C870   C     0.68531   0.98465   0.73552   0.00000  Uiso   1.00
C871   C     0.70198   0.83461   0.85520   0.00000  Uiso   1.00
C872   C     0.97749   0.68044   0.74949   0.00000  Uiso   1.00
C873   C     0.98473   0.73505   0.74943   0.00000  Uiso   1.00
C874   C     0.96414   0.82942   0.64482   0.00000  Uiso   1.00
C875   C     0.93637   0.76180   0.50186   0.00000  Uiso   1.00
C876   C     0.94329   0.81876   0.58503   0.00000  Uiso   1.00
C877   C     0.69105   0.86529   0.95000   0.00000  Uiso   1.00
C878   C     0.71477   0.87530   0.50688   0.00000  Uiso   1.00
C879   C     0.79844   0.82767   0.99528   0.00000  Uiso   1.00
C880   C     0.76860   0.85768   0.52940   0.00000  Uiso   1.00
C881   C     0.71601   0.99437   0.65267   0.00000  Uiso   1.00
C882   C     0.76408   0.68521   0.62546   0.00000  Uiso   1.00
C883   C     0.76984   0.81089   0.94028   0.00000  Uiso   1.00
C884   C     0.85591   0.81408   0.51370   0.00000  Uiso   1.00
C885   C     0.88009   0.77690   0.98181   0.00000  Uiso   1.00
C886   C     0.84735   0.75485   0.93103   0.00000  Uiso   1.00
C887   C     0.79287   0.77177   0.91027   0.00000  Uiso   1.00
C888   C     0.89046   0.83753   0.56261   0.00000  Uiso   1.00
C889   C     0.96746   0.78179   0.55432   0.00000  Uiso   1.00
H890   H     0.67537   0.76682   0.57183   0.00000  Uiso   1.00
H891   H     0.69251   0.89845   0.53314   0.00000  Uiso   1.00
H892   H     0.76869   0.75360   0.87073   0.00000  Uiso   1.00
H893   H     0.67478   0.67863   0.63486   0.00000  Uiso   1.00
H894   H     0.71085   0.95161   0.64149   0.00000  Uiso   1.00
H895   H     0.80609   0.66898   0.64270   0.00000  Uiso   1.00
H896   H     0.75308   0.67644   0.57910   0.00000  Uiso   1.00
H897   H     0.76870   0.72821   0.63384   0.00000  Uiso   1.00
H898   H     0.94001   0.99758   0.76525   0.00000  Uiso   1.00
H899   H     0.82337   0.79164   0.70830   0.00000  Uiso   1.00
H900   H     0.84337   0.87503   0.79178   0.00000  Uiso   1.00
H901   H     0.86431   0.72534   0.90679   0.00000  Uiso   1.00
H902   H     0.95511   0.73310   0.97823   0.00000  Uiso   1.00
H903   H     0.87596   0.86904   0.58590   0.00000  Uiso   1.00
H904   H     0.98485   0.88289   0.93208   0.00000  Uiso   1.00
H905   H     0.78515   0.86702   0.57377   0.00000  Uiso   1.00
N906   N     0.81160   0.81890   0.73542   0.00000  Uiso   1.00
N907   N     0.85507   0.84777   0.76457   0.00000  Uiso   1.00
O908   O     0.96435   0.91296   0.75357   0.00000  Uiso   1.00
O909   O     0.72408   0.90371   0.74423   0.00000  Uiso   1.00
O910   O     0.98157   0.84024   0.83380   0.00000  Uiso   1.00
O911   O     0.74130   0.83099   0.82446   0.00000  Uiso   1.00
O912   O     0.94258   0.76296   0.75576   0.00000  Uiso   1.00
O913   O     0.70231   0.75371   0.74642   0.00000  Uiso   1.00
O914   O     0.92537   0.83567   0.67554   0.00000  Uiso   1.00
O915   O     0.68510   0.82642   0.66620   0.00000  Uiso   1.00
O916   O     0.73126   0.67092   0.71180   0.00000  Uiso   1.00
Zn917  Zn    0.93786   0.83951   0.75623   0.00000  Uiso   1.00
Zn918  Zn    0.72881   0.82716   0.74376   0.00000  Uiso   1.00
loop_
_geom_bond_atom_site_label_1
_geom_bond_atom_site_label_2
_geom_bond_distance
_geom_bond_site_symmetry_2
_ccdc_geom_bond_type
C1     O42     1.288   .     A
C1     C3      1.408   .     S
C1     O143    1.275   1_455 S
C2     C16     1.405   .     A
C2     C4      1.452   .     S
C2     C10     1.403   .     A
C3     C260    1.348   1_455 S
C3     O202    1.390   .     S
C4     O44     1.298   .     A
C4     O145    1.288   1_455 S
C5     C6      1.403   .     S
C5     C360    1.348   1_545 S
C5     H337    1.088   1_545 S
C6     O45     1.292   .     A
C6     O97     1.272   .     S
C7     C9      1.443   .     S
C7     O47     1.296   .     A
C7     O99     1.288   .     S
C8     C22     1.393   .     A
C8     C477    1.404   1_554 S
C8     H494    1.084   1_554 S
C9     C21     1.382   .     A
C9     C22     1.400   .     A
C10    C470    1.387   .     S
C10    H139    1.083   1_455 S
C11    H24     1.083   .     S
C11    C13     1.390   .     A
C11    C469    1.387   1_554 S
C12    C16     1.405   .     A
C12    C472    1.420   .     S
C12    C476    1.410   .     S
C13    H38     1.079   .     S
C13    C471    1.420   1_554 S
C14    H27     1.114   .     S
C14    C168    1.521   .     S
C14    H179    1.115   .     S
C14    O202    1.413   .     S
C15    H28     1.111   .     S
C15    H29     1.111   .     S
C15    H30     1.110   .     S
C15    C320    1.521   1_545 S
C16    C20     1.414   .     A
C17    C21     1.386   .     A
C17    C471    1.410   1_554 S
C17    C477    1.421   1_554 S
C18    C19     1.392   .     A
C18    C467    1.404   .     S
C18    C476    1.421   .     S
C19    C20     1.388   .     A
C19    H34     1.084   .     S
C20    H25     1.082   .     S
C21    H36     1.080   .     S
C22    H74     1.083   .     S
H23    C124    1.083   1_455 S
H26    C320    1.115   1_545 S
H31    C158    1.088   .     S
H32    N39     1.029   .     S
H33    N40     1.029   .     S
H35    C467    1.084   .     S
H37    C61     1.083   .     S
N39    N40     1.289   .     D
N39    Zn51    2.017   .     S
N40    Zn50    2.017   .     S
O41    Zn50    1.954   .     S
O41    C52     1.275   .     S
O42    Zn51    1.980   .     S
O43    Zn50    1.955   .     S
O43    C55     1.288   .     S
O44    Zn51    1.914   .     S
O45    Zn50    1.980   .     S
O46    Zn51    1.954   .     S
O46    C108    1.272   1_455 S
O47    Zn50    1.914   .     S
O48    Zn51    1.955   .     S
O48    C109    1.288   1_455 S
O49    C320    1.413   1_545 S
O49    C309    1.390   1_545 S
C52    O93     1.288   .     A
C52    C54     1.408   .     S
C53    C67     1.405   .     A
C53    C55     1.452   .     S
C53    C61     1.403   .     A
C54    C158    1.348   .     S
C54    O253    1.390   .     S
C55    O95     1.298   .     A
C56    C57     1.403   .     S
C56    C411    1.348   1_545 S
C56    H388    1.088   1_545 S
C57    O96     1.292   .     A
C57    O148    1.272   .     S
C58    C60     1.443   .     S
C58    O98     1.296   .     A
C58    O150    1.288   .     S
C59    C73     1.393   .     A
C59    C528    1.404   1_554 S
C59    H545    1.084   1_554 S
C60    C72     1.382   .     A
C60    C73     1.400   .     A
C61    C521    1.387   .     S
C62    H75     1.083   .     S
C62    C64     1.390   .     A
C62    C520    1.387   1_554 S
C63    C67     1.405   .     A
C63    C523    1.420   .     S
C63    C527    1.410   .     S
C64    H89     1.079   .     S
C64    C522    1.420   1_554 S
C65    H78     1.114   .     S
C65    C219    1.521   .     S
C65    H230    1.115   .     S
C65    O253    1.413   .     S
C66    H79     1.111   .     S
C66    H80     1.111   .     S
C66    H81     1.110   .     S
C66    C371    1.521   1_545 S
C67    C71     1.414   .     A
C68    C72     1.386   .     A
C68    C522    1.410   1_554 S
C68    C528    1.421   1_554 S
C69    C70     1.392   .     A
C69    C518    1.404   .     S
C69    C527    1.421   .     S
C70    C71     1.388   .     A
C70    H85     1.084   .     S
C71    H76     1.082   .     S
C72    H87     1.080   .     S
C73    H125    1.083   .     S
H77    C371    1.115   1_545 S
H82    C209    1.088   .     S
H83    N90     1.029   .     S
H84    N91     1.029   .     S
H86    C518    1.084   .     S
H88    C112    1.083   .     S
N90    N91     1.289   .     D
N90    Zn102   2.017   .     S
N91    Zn101   2.017   .     S
O92    Zn101   1.954   .     S
O92    C103    1.275   .     S
O93    Zn102   1.980   .     S
O94    Zn101   1.955   .     S
O94    C106    1.288   .     S
O95    Zn102   1.914   .     S
O96    Zn101   1.980   .     S
O97    Zn102   1.954   .     S
O98    Zn101   1.914   .     S
O99    Zn102   1.955   .     S
O100   C371    1.413   1_545 S
O100   C360    1.390   1_545 S
C103   O144    1.288   .     A
C103   C105    1.408   .     S
C104   C118    1.405   .     A
C104   C106    1.452   .     S
C104   C112    1.403   .     A
C105   C209    1.348   .     S
C105   O304    1.390   .     S
C106   O146    1.298   .     A
C107   C108    1.403   .     S
C107   C309    1.348   1_645 S
C107   H439    1.088   1_545 S
C108   O147    1.292   .     A
C108   O46     1.272   1_655 S
C109   C111    1.443   .     S
C109   O149    1.296   .     A
C109   O48     1.288   1_655 S
C110   C124    1.393   .     A
C110   C579    1.404   1_554 S
C110   H596    1.084   1_554 S
C111   C123    1.382   .     A
C111   C124    1.400   .     A
C112   C572    1.387   .     S
C113   H126    1.083   .     S
C113   C115    1.390   .     A
C113   C571    1.387   1_554 S
C114   C118    1.405   .     A
C114   C574    1.420   .     S
C114   C578    1.410   .     S
C115   H140    1.079   .     S
C115   C573    1.420   1_554 S
C116   H129    1.114   .     S
C116   C270    1.521   .     S
C116   H281    1.115   .     S
C116   O304    1.413   .     S
C117   H130    1.111   .     S
C117   H131    1.111   .     S
C117   H132    1.110   .     S
C117   C422    1.521   1_545 S
C118   C122    1.414   .     A
C119   C123    1.386   .     A
C119   C573    1.410   1_554 S
C119   C579    1.421   1_554 S
C120   C121    1.392   .     A
C120   C569    1.404   .     S
C120   C578    1.421   .     S
C121   C122    1.388   .     A
C121   H136    1.084   .     S
C122   H127    1.082   .     S
C123   H138    1.080   .     S
C124   H23     1.083   1_655 S
H128   C422    1.115   1_545 S
H133   C260    1.088   .     S
H134   N141    1.029   .     S
H135   N142    1.029   .     S
H137   C569    1.084   .     S
H139   C10     1.083   1_655 S
N141   N142    1.289   .     D
N141   Zn153   2.017   .     S
N142   Zn152   2.017   .     S
O143   Zn152   1.954   .     S
O143   C1      1.275   1_655 S
O144   Zn153   1.980   .     S
O145   Zn152   1.955   .     S
O145   C4      1.288   1_655 S
O146   Zn153   1.914   .     S
O147   Zn152   1.980   .     S
O148   Zn153   1.954   .     S
O149   Zn152   1.914   .     S
O150   Zn153   1.955   .     S
O151   C422    1.413   1_545 S
O151   C411    1.390   1_545 S
C154   O195    1.288   .     A
C154   C156    1.408   .     S
C154   O296    1.275   1_455 S
C155   C169    1.405   .     A
C155   C157    1.452   .     S
C155   C163    1.403   .     A
C156   C413    1.348   1_455 S
C156   O355    1.390   .     S
C157   O197    1.298   .     A
C157   O298    1.288   1_455 S
C158   C159    1.403   .     S
C159   O198    1.292   .     A
C159   O250    1.272   .     S
C160   C162    1.443   .     S
C160   O200    1.296   .     A
C160   O252    1.288   .     S
C161   C175    1.393   .     A
C161   C630    1.404   1_554 S
C161   H647    1.084   1_554 S
C162   C174    1.382   .     A
C162   C175    1.400   .     A
C163   C623    1.387   .     S
C163   H292    1.083   1_455 S
C164   H177    1.083   .     S
C164   C166    1.390   .     A
C164   C622    1.387   1_554 S
C165   C169    1.405   .     A
C165   C625    1.420   .     S
C165   C629    1.410   .     S
C166   H191    1.079   .     S
C166   C624    1.420   1_554 S
C167   H180    1.114   .     S
C167   C321    1.521   .     S
C167   H332    1.115   .     S
C167   O355    1.413   .     S
C168   H181    1.111   .     S
C168   H182    1.111   .     S
C168   H183    1.110   .     S
C169   C173    1.414   .     A
C170   C174    1.386   .     A
C170   C624    1.410   1_554 S
C170   C630    1.421   1_554 S
C171   C172    1.392   .     A
C171   C620    1.404   .     S
C171   C629    1.421   .     S
C172   C173    1.388   .     A
C172   H187    1.084   .     S
C173   H178    1.082   .     S
C174   H189    1.080   .     S
C175   H227    1.083   .     S
H176   C277    1.083   1_455 S
H184   C311    1.088   .     S
H185   N192    1.029   .     S
H186   N193    1.029   .     S
H188   C620    1.084   .     S
H190   C214    1.083   .     S
N192   N193    1.289   .     D
N192   Zn204   2.017   .     S
N193   Zn203   2.017   .     S
O194   Zn203   1.954   .     S
O194   C205    1.275   .     S
O195   Zn204   1.980   .     S
O196   Zn203   1.955   .     S
O196   C208    1.288   .     S
O197   Zn204   1.914   .     S
O198   Zn203   1.980   .     S
O199   Zn204   1.954   .     S
O199   C261    1.272   1_455 S
O200   Zn203   1.914   .     S
O201   Zn204   1.955   .     S
O201   C262    1.288   1_455 S
C205   O246    1.288   .     A
C205   C207    1.408   .     S
C206   C220    1.405   .     A
C206   C208    1.452   .     S
C206   C214    1.403   .     A
C207   C311    1.348   .     S
C207   O406    1.390   .     S
C208   O248    1.298   .     A
C209   C210    1.403   .     S
C210   O249    1.292   .     A
C210   O301    1.272   .     S
C211   C213    1.443   .     S
C211   O251    1.296   .     A
C211   O303    1.288   .     S
C212   C226    1.393   .     A
C212   C681    1.404   1_554 S
C212   H698    1.084   1_554 S
C213   C225    1.382   .     A
C213   C226    1.400   .     A
C214   C674    1.387   .     S
C215   H228    1.083   .     S
C215   C217    1.390   .     A
C215   C673    1.387   1_554 S
C216   C220    1.405   .     A
C216   C676    1.420   .     S
C216   C680    1.410   .     S
C217   H242    1.079   .     S
C217   C675    1.420   1_554 S
C218   H231    1.114   .     S
C218   C372    1.521   .     S
C218   H383    1.115   .     S
C218   O406    1.413   .     S
C219   H232    1.111   .     S
C219   H233    1.111   .     S
C219   H234    1.110   .     S
C220   C224    1.414   .     A
C221   C225    1.386   .     A
C221   C675    1.410   1_554 S
C221   C681    1.421   1_554 S
C222   C223    1.392   .     A
C222   C671    1.404   .     S
C222   C680    1.421   .     S
C223   C224    1.388   .     A
C223   H238    1.084   .     S
C224   H229    1.082   .     S
C225   H240    1.080   .     S
C226   H278    1.083   .     S
H235   C362    1.088   .     S
H236   N243    1.029   .     S
H237   N244    1.029   .     S
H239   C671    1.084   .     S
H241   C265    1.083   .     S
N243   N244    1.289   .     D
N243   Zn255   2.017   .     S
N244   Zn254   2.017   .     S
O245   Zn254   1.954   .     S
O245   C256    1.275   .     S
O246   Zn255   1.980   .     S
O247   Zn254   1.955   .     S
O247   C259    1.288   .     S
O248   Zn255   1.914   .     S
O249   Zn254   1.980   .     S
O250   Zn255   1.954   .     S
O251   Zn254   1.914   .     S
O252   Zn255   1.955   .     S
C256   O297    1.288   .     A
C256   C258    1.408   .     S
C257   C271    1.405   .     A
C257   C259    1.452   .     S
C257   C265    1.403   .     A
C258   C362    1.348   .     S
C258   O457    1.390   .     S
C259   O299    1.298   .     A
C260   C261    1.403   .     S
C260   C3      1.348   1_655 S
C261   O300    1.292   .     A
C261   O199    1.272   1_655 S
C262   C264    1.443   .     S
C262   O302    1.296   .     A
C262   O201    1.288   1_655 S
C263   C277    1.393   .     A
C263   C732    1.404   1_554 S
C263   H749    1.084   1_554 S
C264   C276    1.382   .     A
C264   C277    1.400   .     A
C265   C725    1.387   .     S
C266   H279    1.083   .     S
C266   C268    1.390   .     A
C266   C724    1.387   1_554 S
C267   C271    1.405   .     A
C267   C727    1.420   .     S
C267   C731    1.410   .     S
C268   H293    1.079   .     S
C268   C726    1.420   1_554 S
C269   H282    1.114   .     S
C269   C423    1.521   .     S
C269   H434    1.115   .     S
C269   O457    1.413   .     S
C270   H283    1.111   .     S
C270   H284    1.111   .     S
C270   H285    1.110   .     S
C271   C275    1.414   .     A
C272   C276    1.386   .     A
C272   C726    1.410   1_554 S
C272   C732    1.421   1_554 S
C273   C274    1.392   .     A
C273   C722    1.404   .     S
C273   C731    1.421   .     S
C274   C275    1.388   .     A
C274   H289    1.084   .     S
C275   H280    1.082   .     S
C276   H291    1.080   .     S
C277   H176    1.083   1_655 S
H286   C413    1.088   .     S
H287   N294    1.029   .     S
H288   N295    1.029   .     S
H290   C722    1.084   .     S
H292   C163    1.083   1_655 S
N294   N295    1.289   .     D
N294   Zn306   2.017   .     S
N295   Zn305   2.017   .     S
O296   Zn305   1.954   .     S
O296   C154    1.275   1_655 S
O297   Zn306   1.980   .     S
O298   Zn305   1.955   .     S
O298   C157    1.288   1_655 S
O299   Zn306   1.914   .     S
O300   Zn305   1.980   .     S
O301   Zn306   1.954   .     S
O302   Zn305   1.914   .     S
O303   Zn306   1.955   .     S
C307   O348    1.288   .     A
C307   C309    1.408   .     S
C307   O449    1.275   1_455 S
C308   C322    1.405   .     A
C308   C310    1.452   .     S
C308   C316    1.403   .     A
C309   C107    1.348   1_465 S
C309   O49     1.390   1_565 S
C310   O350    1.298   .     A
C310   O451    1.288   1_455 S
C311   C312    1.403   .     S
C312   O351    1.292   .     A
C312   O403    1.272   .     S
C313   C315    1.443   .     S
C313   O353    1.296   .     A
C313   O405    1.288   .     S
C314   C328    1.393   .     A
C314   C783    1.404   1_554 S
C314   H800    1.084   1_554 S
C315   C327    1.382   .     A
C315   C328    1.400   .     A
C316   C776    1.387   .     S
C316   H445    1.083   1_455 S
C317   H330    1.083   .     S
C317   C319    1.390   .     A
C317   C775    1.387   1_554 S
C318   C322    1.405   .     A
C318   C778    1.420   .     S
C318   C782    1.410   .     S
C319   H344    1.079   .     S
C319   C777    1.420   1_554 S
C320   H333    1.114   .     S
C320   C15     1.521   1_565 S
C320   H26     1.115   1_565 S
C320   O49     1.413   1_565 S
C321   H334    1.111   .     S
C321   H335    1.111   .     S
C321   H336    1.110   .     S
C322   C326    1.414   .     A
C323   C327    1.386   .     A
C323   C777    1.410   1_554 S
C323   C783    1.421   1_554 S
C324   C325    1.392   .     A
C324   C773    1.404   .     S
C324   C782    1.421   .     S
C325   C326    1.388   .     A
C325   H340    1.084   .     S
C326   H331    1.082   .     S
C327   H342    1.080   .     S
C328   H380    1.083   .     S
H329   C430    1.083   1_455 S
H337   C5      1.088   1_565 S
H338   N345    1.029   .     S
H339   N346    1.029   .     S
H341   C773    1.084   .     S
H343   C367    1.083   .     S
N345   N346    1.289   .     D
N345   Zn357   2.017   .     S
N346   Zn356   2.017   .     S
O347   Zn356   1.954   .     S
O347   C358    1.275   .     S
O348   Zn357   1.980   .     S
O349   Zn356   1.955   .     S
O349   C361    1.288   .     S
O350   Zn357   1.914   .     S
O351   Zn356   1.980   .     S
O352   Zn357   1.954   .     S
O352   C414    1.272   1_455 S
O353   Zn356   1.914   .     S
O354   Zn357   1.955   .     S
O354   C415    1.288   1_455 S
C358   O399    1.288   .     A
C358   C360    1.408   .     S
C359   C373    1.405   .     A
C359   C361    1.452   .     S
C359   C367    1.403   .     A
C360   C5      1.348   1_565 S
C360   O100    1.390   1_565 S
C361   O401    1.298   .     A
C362   C363    1.403   .     S
C363   O402    1.292   .     A
C363   O454    1.272   .     S
C364   C366    1.443   .     S
C364   O404    1.296   .     A
C364   O456    1.288   .     S
C365   C379    1.393   .     A
C365   C834    1.404   1_554 S
C365   H851    1.084   1_554 S
C366   C378    1.382   .     A
C366   C379    1.400   .     A
C367   C827    1.387   .     S
C368   H381    1.083   .     S
C368   C370    1.390   .     A
C368   C826    1.387   1_554 S
C369   C373    1.405   .     A
C369   C829    1.420   .     S
C369   C833    1.410   .     S
C370   H395    1.079   .     S
C370   C828    1.420   1_554 S
C371   H384    1.114   .     S
C371   C66     1.521   1_565 S
C371   H77     1.115   1_565 S
C371   O100    1.413   1_565 S
C372   H385    1.111   .     S
C372   H386    1.111   .     S
C372   H387    1.110   .     S
C373   C377    1.414   .     A
C374   C378    1.386   .     A
C374   C828    1.410   1_554 S
C374   C834    1.421   1_554 S
C375   C376    1.392   .     A
C375   C824    1.404   .     S
C375   C833    1.421   .     S
C376   C377    1.388   .     A
C376   H391    1.084   .     S
C377   H382    1.082   .     S
C378   H393    1.080   .     S
C379   H431    1.083   .     S
H388   C56     1.088   1_565 S
H389   N396    1.029   .     S
H390   N397    1.029   .     S
H392   C824    1.084   .     S
H394   C418    1.083   .     S
N396   N397    1.289   .     D
N396   Zn408   2.017   .     S
N397   Zn407   2.017   .     S
O398   Zn407   1.954   .     S
O398   C409    1.275   .     S
O399   Zn408   1.980   .     S
O400   Zn407   1.955   .     S
O400   C412    1.288   .     S
O401   Zn408   1.914   .     S
O402   Zn407   1.980   .     S
O403   Zn408   1.954   .     S
O404   Zn407   1.914   .     S
O405   Zn408   1.955   .     S
C409   O450    1.288   .     A
C409   C411    1.408   .     S
C410   C424    1.405   .     A
C410   C412    1.452   .     S
C410   C418    1.403   .     A
C411   C56     1.348   1_565 S
C411   O151    1.390   1_565 S
C412   O452    1.298   .     A
C413   C414    1.403   .     S
C413   C156    1.348   1_655 S
C414   O453    1.292   .     A
C414   O352    1.272   1_655 S
C415   C417    1.443   .     S
C415   O455    1.296   .     A
C415   O354    1.288   1_655 S
C416   C430    1.393   .     A
C416   C885    1.404   1_554 S
C416   H902    1.084   1_554 S
C417   C429    1.382   .     A
C417   C430    1.400   .     A
C418   C878    1.387   .     S
C419   H432    1.083   .     S
C419   C421    1.390   .     A
C419   C877    1.387   1_554 S
C420   C424    1.405   .     A
C420   C880    1.420   .     S
C420   C884    1.410   .     S
C421   H446    1.079   .     S
C421   C879    1.420   1_554 S
C422   H435    1.114   .     S
C422   C117    1.521   1_565 S
C422   H128    1.115   1_565 S
C422   O151    1.413   1_565 S
C423   H436    1.111   .     S
C423   H437    1.111   .     S
C423   H438    1.110   .     S
C424   C428    1.414   .     A
C425   C429    1.386   .     A
C425   C879    1.410   1_554 S
C425   C885    1.421   1_554 S
C426   C427    1.392   .     A
C426   C875    1.404   .     S
C426   C884    1.421   .     S
C427   C428    1.388   .     A
C427   H442    1.084   .     S
C428   H433    1.082   .     S
C429   H444    1.080   .     S
C430   H329    1.083   1_655 S
H439   C107    1.088   1_565 S
H440   N447    1.029   .     S
H441   N448    1.029   .     S
H443   C875    1.084   .     S
H445   C316    1.083   1_655 S
N447   N448    1.289   .     D
N447   Zn459   2.017   .     S
N448   Zn458   2.017   .     S
O449   Zn458   1.954   .     S
O449   C307    1.275   1_655 S
O450   Zn459   1.980   .     S
O451   Zn458   1.955   .     S
O451   C310    1.288   1_655 S
O452   Zn459   1.914   .     S
O453   Zn458   1.980   .     S
O454   Zn459   1.954   .     S
O455   Zn458   1.914   .     S
O456   Zn459   1.955   .     S
C460   O501    1.288   .     A
C460   C462    1.408   .     S
C460   O602    1.275   1_455 S
C461   C475    1.405   .     A
C461   C463    1.452   .     S
C461   C469    1.403   .     A
C462   C719    1.348   1_455 S
C462   O661    1.390   .     S
C463   O503    1.298   .     A
C463   O604    1.288   1_455 S
C464   C465    1.403   .     S
C464   C819    1.348   1_545 S
C464   H796    1.088   1_545 S
C465   O504    1.292   .     A
C465   O556    1.272   .     S
C466   C468    1.443   .     S
C466   O506    1.296   .     A
C466   O558    1.288   .     S
C467   C481    1.393   .     A
C468   C480    1.382   .     A
C468   C481    1.400   .     A
C469   C11     1.387   1_556 S
C469   H598    1.083   1_455 S
C470   H483    1.083   .     S
C470   C472    1.390   .     A
C471   C475    1.405   .     A
C471   C13     1.420   1_556 S
C471   C17     1.410   1_556 S
C472   H497    1.079   .     S
C473   H486    1.114   .     S
C473   C627    1.521   .     S
C473   H638    1.115   .     S
C473   O661    1.413   .     S
C474   H487    1.111   .     S
C474   H488    1.111   .     S
C474   H489    1.110   .     S
C474   C779    1.521   1_545 S
C475   C479    1.414   .     A
C476   C480    1.386   .     A
C477   C478    1.392   .     A
C477   C8      1.404   1_556 S
C477   C17     1.421   1_556 S
C478   C479    1.388   .     A
C478   H493    1.084   .     S
C479   H484    1.082   .     S
C480   H495    1.080   .     S
C481   H533    1.083   .     S
H482   C583    1.083   1_455 S
H485   C779    1.115   1_545 S
H490   C617    1.088   .     S
H491   N498    1.029   .     S
H492   N499    1.029   .     S
H494   C8      1.084   1_556 S
H496   C520    1.083   .     S
N498   N499    1.289   .     D
N498   Zn510   2.017   .     S
N499   Zn509   2.017   .     S
O500   Zn509   1.954   .     S
O500   C511    1.275   .     S
O501   Zn510   1.980   .     S
O502   Zn509   1.955   .     S
O502   C514    1.288   .     S
O503   Zn510   1.914   .     S
O504   Zn509   1.980   .     S
O505   Zn510   1.954   .     S
O505   C567    1.272   1_455 S
O506   Zn509   1.914   .     S
O507   Zn510   1.955   .     S
O507   C568    1.288   1_455 S
O508   C779    1.413   1_545 S
O508   C768    1.390   1_545 S
C511   O552    1.288   .     A
C511   C513    1.408   .     S
C512   C526    1.405   .     A
C512   C514    1.452   .     S
C512   C520    1.403   .     A
C513   C617    1.348   .     S
C513   O712    1.390   .     S
C514   O554    1.298   .     A
C515   C516    1.403   .     S
C515   C870    1.348   1_545 S
C515   H847    1.088   1_545 S
C516   O555    1.292   .     A
C516   O607    1.272   .     S
C517   C519    1.443   .     S
C517   O557    1.296   .     A
C517   O609    1.288   .     S
C518   C532    1.393   .     A
C519   C531    1.382   .     A
C519   C532    1.400   .     A
C520   C62     1.387   1_556 S
C521   H534    1.083   .     S
C521   C523    1.390   .     A
C522   C526    1.405   .     A
C522   C64     1.420   1_556 S
C522   C68     1.410   1_556 S
C523   H548    1.079   .     S
C524   H537    1.114   .     S
C524   C678    1.521   .     S
C524   H689    1.115   .     S
C524   O712    1.413   .     S
C525   H538    1.111   .     S
C525   H539    1.111   .     S
C525   H540    1.110   .     S
C525   C830    1.521   1_545 S
C526   C530    1.414   .     A
C527   C531    1.386   .     A
C528   C529    1.392   .     A
C528   C59     1.404   1_556 S
C528   C68     1.421   1_556 S
C529   C530    1.388   .     A
C529   H544    1.084   .     S
C530   H535    1.082   .     S
C531   H546    1.080   .     S
C532   H584    1.083   .     S
H536   C830    1.115   1_545 S
H541   C668    1.088   .     S
H542   N549    1.029   .     S
H543   N550    1.029   .     S
H545   C59     1.084   1_556 S
H547   C571    1.083   .     S
N549   N550    1.289   .     D
N549   Zn561   2.017   .     S
N550   Zn560   2.017   .     S
O551   Zn560   1.954   .     S
O551   C562    1.275   .     S
O552   Zn561   1.980   .     S
O553   Zn560   1.955   .     S
O553   C565    1.288   .     S
O554   Zn561   1.914   .     S
O555   Zn560   1.980   .     S
O556   Zn561   1.954   .     S
O557   Zn560   1.914   .     S
O558   Zn561   1.955   .     S
O559   C830    1.413   1_545 S
O559   C819    1.390   1_545 S
C562   O603    1.288   .     A
C562   C564    1.408   .     S
C563   C577    1.405   .     A
C563   C565    1.452   .     S
C563   C571    1.403   .     A
C564   C668    1.348   .     S
C564   O763    1.390   .     S
C565   O605    1.298   .     A
C566   C567    1.403   .     S
C566   C768    1.348   1_645 S
C566   H898    1.088   1_545 S
C567   O606    1.292   .     A
C567   O505    1.272   1_655 S
C568   C570    1.443   .     S
C568   O608    1.296   .     A
C568   O507    1.288   1_655 S
C569   C583    1.393   .     A
C570   C582    1.382   .     A
C570   C583    1.400   .     A
C571   C113    1.387   1_556 S
C572   H585    1.083   .     S
C572   C574    1.390   .     A
C573   C577    1.405   .     A
C573   C115    1.420   1_556 S
C573   C119    1.410   1_556 S
C574   H599    1.079   .     S
C575   H588    1.114   .     S
C575   C729    1.521   .     S
C575   H740    1.115   .     S
C575   O763    1.413   .     S
C576   H589    1.111   .     S
C576   H590    1.111   .     S
C576   H591    1.110   .     S
C576   C881    1.521   1_545 S
C577   C581    1.414   .     A
C578   C582    1.386   .     A
C579   C580    1.392   .     A
C579   C110    1.404   1_556 S
C579   C119    1.421   1_556 S
C580   C581    1.388   .     A
C580   H595    1.084   .     S
C581   H586    1.082   .     S
C582   H597    1.080   .     S
C583   H482    1.083   1_655 S
H587   C881    1.115   1_545 S
H592   C719    1.088   .     S
H593   N600    1.029   .     S
H594   N601    1.029   .     S
H596   C110    1.084   1_556 S
H598   C469    1.083   1_655 S
N600   N601    1.289   .     D
N600   Zn612   2.017   .     S
N601   Zn611   2.017   .     S
O602   Zn611   1.954   .     S
O602   C460    1.275   1_655 S
O603   Zn612   1.980   .     S
O604   Zn611   1.955   .     S
O604   C463    1.288   1_655 S
O605   Zn612   1.914   .     S
O606   Zn611   1.980   .     S
O607   Zn612   1.954   .     S
O608   Zn611   1.914   .     S
O609   Zn612   1.955   .     S
O610   C881    1.413   1_545 S
O610   C870    1.390   1_545 S
C613   O654    1.288   .     A
C613   C615    1.408   .     S
C613   O755    1.275   1_455 S
C614   C628    1.405   .     A
C614   C616    1.452   .     S
C614   C622    1.403   .     A
C615   C872    1.348   1_455 S
C615   O814    1.390   .     S
C616   O656    1.298   .     A
C616   O757    1.288   1_455 S
C617   C618    1.403   .     S
C618   O657    1.292   .     A
C618   O709    1.272   .     S
C619   C621    1.443   .     S
C619   O659    1.296   .     A
C619   O711    1.288   .     S
C620   C634    1.393   .     A
C621   C633    1.382   .     A
C621   C634    1.400   .     A
C622   C164    1.387   1_556 S
C622   H751    1.083   1_455 S
C623   H636    1.083   .     S
C623   C625    1.390   .     A
C624   C628    1.405   .     A
C624   C166    1.420   1_556 S
C624   C170    1.410   1_556 S
C625   H650    1.079   .     S
C626   H639    1.114   .     S
C626   C780    1.521   .     S
C626   H791    1.115   .     S
C626   O814    1.413   .     S
C627   H640    1.111   .     S
C627   H641    1.111   .     S
C627   H642    1.110   .     S
C628   C632    1.414   .     A
C629   C633    1.386   .     A
C630   C631    1.392   .     A
C630   C161    1.404   1_556 S
C630   C170    1.421   1_556 S
C631   C632    1.388   .     A
C631   H646    1.084   .     S
C632   H637    1.082   .     S
C633   H648    1.080   .     S
C634   H686    1.083   .     S
H635   C736    1.083   1_455 S
H643   C770    1.088   .     S
H644   N651    1.029   .     S
H645   N652    1.029   .     S
H647   C161    1.084   1_556 S
H649   C673    1.083   .     S
N651   N652    1.289   .     D
N651   Zn663   2.017   .     S
N652   Zn662   2.017   .     S
O653   Zn662   1.954   .     S
O653   C664    1.275   .     S
O654   Zn663   1.980   .     S
O655   Zn662   1.955   .     S
O655   C667    1.288   .     S
O656   Zn663   1.914   .     S
O657   Zn662   1.980   .     S
O658   Zn663   1.954   .     S
O658   C720    1.272   1_455 S
O659   Zn662   1.914   .     S
O660   Zn663   1.955   .     S
O660   C721    1.288   1_455 S
C664   O705    1.288   .     A
C664   C666    1.408   .     S
C665   C679    1.405   .     A
C665   C667    1.452   .     S
C665   C673    1.403   .     A
C666   C770    1.348   .     S
C666   O865    1.390   .     S
C667   O707    1.298   .     A
C668   C669    1.403   .     S
C669   O708    1.292   .     A
C669   O760    1.272   .     S
C670   C672    1.443   .     S
C670   O710    1.296   .     A
C670   O762    1.288   .     S
C671   C685    1.393   .     A
C672   C684    1.382   .     A
C672   C685    1.400   .     A
C673   C215    1.387   1_556 S
C674   H687    1.083   .     S
C674   C676    1.390   .     A
C675   C679    1.405   .     A
C675   C217    1.420   1_556 S
C675   C221    1.410   1_556 S
C676   H701    1.079   .     S
C677   H690    1.114   .     S
C677   C831    1.521   .     S
C677   H842    1.115   .     S
C677   O865    1.413   .     S
C678   H691    1.111   .     S
C678   H692    1.111   .     S
C678   H693    1.110   .     S
C679   C683    1.414   .     A
C680   C684    1.386   .     A
C681   C682    1.392   .     A
C681   C212    1.404   1_556 S
C681   C221    1.421   1_556 S
C682   C683    1.388   .     A
C682   H697    1.084   .     S
C683   H688    1.082   .     S
C684   H699    1.080   .     S
C685   H737    1.083   .     S
H694   C821    1.088   .     S
H695   N702    1.029   .     S
H696   N703    1.029   .     S
H698   C212    1.084   1_556 S
H700   C724    1.083   .     S
N702   N703    1.289   .     D
N702   Zn714   2.017   .     S
N703   Zn713   2.017   .     S
O704   Zn713   1.954   .     S
O704   C715    1.275   .     S
O705   Zn714   1.980   .     S
O706   Zn713   1.955   .     S
O706   C718    1.288   .     S
O707   Zn714   1.914   .     S
O708   Zn713   1.980   .     S
O709   Zn714   1.954   .     S
O710   Zn713   1.914   .     S
O711   Zn714   1.955   .     S
C715   O756    1.288   .     A
C715   C717    1.408   .     S
C716   C730    1.405   .     A
C716   C718    1.452   .     S
C716   C724    1.403   .     A
C717   C821    1.348   .     S
C717   O916    1.390   .     S
C718   O758    1.298   .     A
C719   C720    1.403   .     S
C719   C462    1.348   1_655 S
C720   O759    1.292   .     A
C720   O658    1.272   1_655 S
C721   C723    1.443   .     S
C721   O761    1.296   .     A
C721   O660    1.288   1_655 S
C722   C736    1.393   .     A
C723   C735    1.382   .     A
C723   C736    1.400   .     A
C724   C266    1.387   1_556 S
C725   H738    1.083   .     S
C725   C727    1.390   .     A
C726   C730    1.405   .     A
C726   C268    1.420   1_556 S
C726   C272    1.410   1_556 S
C727   H752    1.079   .     S
C728   H741    1.114   .     S
C728   C882    1.521   .     S
C728   H893    1.115   .     S
C728   O916    1.413   .     S
C729   H742    1.111   .     S
C729   H743    1.111   .     S
C729   H744    1.110   .     S
C730   C734    1.414   .     A
C731   C735    1.386   .     A
C732   C733    1.392   .     A
C732   C263    1.404   1_556 S
C732   C272    1.421   1_556 S
C733   C734    1.388   .     A
C733   H748    1.084   .     S
C734   H739    1.082   .     S
C735   H750    1.080   .     S
C736   H635    1.083   1_655 S
H745   C872    1.088   .     S
H746   N753    1.029   .     S
H747   N754    1.029   .     S
H749   C263    1.084   1_556 S
H751   C622    1.083   1_655 S
N753   N754    1.289   .     D
N753   Zn765   2.017   .     S
N754   Zn764   2.017   .     S
O755   Zn764   1.954   .     S
O755   C613    1.275   1_655 S
O756   Zn765   1.980   .     S
O757   Zn764   1.955   .     S
O757   C616    1.288   1_655 S
O758   Zn765   1.914   .     S
O759   Zn764   1.980   .     S
O760   Zn765   1.954   .     S
O761   Zn764   1.914   .     S
O762   Zn765   1.955   .     S
C766   O807    1.288   .     A
C766   C768    1.408   .     S
C766   O908    1.275   1_455 S
C767   C781    1.405   .     A
C767   C769    1.452   .     S
C767   C775    1.403   .     A
C768   C566    1.348   1_465 S
C768   O508    1.390   1_565 S
C769   O809    1.298   .     A
C769   O910    1.288   1_455 S
C770   C771    1.403   .     S
C771   O810    1.292   .     A
C771   O862    1.272   .     S
C772   C774    1.443   .     S
C772   O812    1.296   .     A
C772   O864    1.288   .     S
C773   C787    1.393   .     A
C774   C786    1.382   .     A
C774   C787    1.400   .     A
C775   C317    1.387   1_556 S
C775   H904    1.083   1_455 S
C776   H789    1.083   .     S
C776   C778    1.390   .     A
C777   C781    1.405   .     A
C777   C319    1.420   1_556 S
C777   C323    1.410   1_556 S
C778   H803    1.079   .     S
C779   H792    1.114   .     S
C779   C474    1.521   1_565 S
C779   H485    1.115   1_565 S
C779   O508    1.413   1_565 S
C780   H793    1.111   .     S
C780   H794    1.111   .     S
C780   H795    1.110   .     S
C781   C785    1.414   .     A
C782   C786    1.386   .     A
C783   C784    1.392   .     A
C783   C314    1.404   1_556 S
C783   C323    1.421   1_556 S
C784   C785    1.388   .     A
C784   H799    1.084   .     S
C785   H790    1.082   .     S
C786   H801    1.080   .     S
C787   H839    1.083   .     S
H788   C889    1.083   1_455 S
H796   C464    1.088   1_565 S
H797   N804    1.029   .     S
H798   N805    1.029   .     S
H800   C314    1.084   1_556 S
H802   C826    1.083   .     S
N804   N805    1.289   .     D
N804   Zn816   2.017   .     S
N805   Zn815   2.017   .     S
O806   Zn815   1.954   .     S
O806   C817    1.275   .     S
O807   Zn816   1.980   .     S
O808   Zn815   1.955   .     S
O808   C820    1.288   .     S
O809   Zn816   1.914   .     S
O810   Zn815   1.980   .     S
O811   Zn816   1.954   .     S
O811   C873    1.272   1_455 S
O812   Zn815   1.914   .     S
O813   Zn816   1.955   .     S
O813   C874    1.288   1_455 S
C817   O858    1.288   .     A
C817   C819    1.408   .     S
C818   C832    1.405   .     A
C818   C820    1.452   .     S
C818   C826    1.403   .     A
C819   C464    1.348   1_565 S
C819   O559    1.390   1_565 S
C820   O860    1.298   .     A
C821   C822    1.403   .     S
C822   O861    1.292   .     A
C822   O913    1.272   .     S
C823   C825    1.443   .     S
C823   O863    1.296   .     A
C823   O915    1.288   .     S
C824   C838    1.393   .     A
C825   C837    1.382   .     A
C825   C838    1.400   .     A
C826   C368    1.387   1_556 S
C827   H840    1.083   .     S
C827   C829    1.390   .     A
C828   C832    1.405   .     A
C828   C370    1.420   1_556 S
C828   C374    1.410   1_556 S
C829   H854    1.079   .     S
C830   H843    1.114   .     S
C830   C525    1.521   1_565 S
C830   H536    1.115   1_565 S
C830   O559    1.413   1_565 S
C831   H844    1.111   .     S
C831   H845    1.111   .     S
C831   H846    1.110   .     S
C832   C836    1.414   .     A
C833   C837    1.386   .     A
C834   C835    1.392   .     A
C834   C365    1.404   1_556 S
C834   C374    1.421   1_556 S
C835   C836    1.388   .     A
C835   H850    1.084   .     S
C836   H841    1.082   .     S
C837   H852    1.080   .     S
C838   H890    1.083   .     S
H847   C515    1.088   1_565 S
H848   N855    1.029   .     S
H849   N856    1.029   .     S
H851   C365    1.084   1_556 S
H853   C877    1.083   .     S
N855   N856    1.289   .     D
N855   Zn867   2.017   .     S
N856   Zn866   2.017   .     S
O857   Zn866   1.954   .     S
O857   C868    1.275   .     S
O858   Zn867   1.980   .     S
O859   Zn866   1.955   .     S
O859   C871    1.288   .     S
O860   Zn867   1.914   .     S
O861   Zn866   1.980   .     S
O862   Zn867   1.954   .     S
O863   Zn866   1.914   .     S
O864   Zn867   1.955   .     S
C868   O909    1.288   .     A
C868   C870    1.408   .     S
C869   C883    1.405   .     A
C869   C871    1.452   .     S
C869   C877    1.403   .     A
C870   C515    1.348   1_565 S
C870   O610    1.390   1_565 S
C871   O911    1.298   .     A
C872   C873    1.403   .     S
C872   C615    1.348   1_655 S
C873   O912    1.292   .     A
C873   O811    1.272   1_655 S
C874   C876    1.443   .     S
C874   O914    1.296   .     A
C874   O813    1.288   1_655 S
C875   C889    1.393   .     A
C876   C888    1.382   .     A
C876   C889    1.400   .     A
C877   C419    1.387   1_556 S
C878   H891    1.083   .     S
C878   C880    1.390   .     A
C879   C883    1.405   .     A
C879   C421    1.420   1_556 S
C879   C425    1.410   1_556 S
C880   H905    1.079   .     S
C881   H894    1.114   .     S
C881   C576    1.521   1_565 S
C881   H587    1.115   1_565 S
C881   O610    1.413   1_565 S
C882   H895    1.111   .     S
C882   H896    1.111   .     S
C882   H897    1.110   .     S
C883   C887    1.414   .     A
C884   C888    1.386   .     A
C885   C886    1.392   .     A
C885   C416    1.404   1_556 S
C885   C425    1.421   1_556 S
C886   C887    1.388   .     A
C886   H901    1.084   .     S
C887   H892    1.082   .     S
C888   H903    1.080   .     S
C889   H788    1.083   1_655 S
H898   C566    1.088   1_565 S
H899   N906    1.029   .     S
H900   N907    1.029   .     S
H902   C416    1.084   1_556 S
H904   C775    1.083   1_655 S
N906   N907    1.289   .     D
N906   Zn918   2.017   .     S
N907   Zn917   2.017   .     S
O908   Zn917   1.954   .     S
O908   C766    1.275   1_655 S
O909   Zn918   1.980   .     S
O910   Zn917   1.955   .     S
O910   C769    1.288   1_655 S
O911   Zn918   1.914   .     S
O912   Zn917   1.980   .     S
O913   Zn918   1.954   .     S
O914   Zn917   1.914   .     S
O915   Zn918   1.955   .     S
