data_str_m3_o2_o10_pcu_sym.120
_audit_creation_date              2020-01-03
_audit_creation_method            'Materials Studio'
_symmetry_space_group_name_H-M    'P1'
_symmetry_Int_Tables_number       1
_symmetry_cell_setting            triclinic
loop_
_symmetry_equiv_pos_as_xyz
  x,y,z
_cell_length_a                    25.6405
_cell_length_b                    29.8066
_cell_length_c                    28.4279
_cell_angle_alpha                 90.6028
_cell_angle_beta                  96.0249
_cell_angle_gamma                 90.2811
loop_
_atom_site_label
_atom_site_type_symbol
_atom_site_fract_x
_atom_site_fract_y
_atom_site_fract_z
_atom_site_U_iso_or_equiv
_atom_site_adp_type
_atom_site_occupancy
C1     C     0.17136   0.16392   0.24992   0.00000  Uiso   1.00
C2     C     0.16357   0.33632   0.25022   0.00000  Uiso   1.00
C3     C     0.12023   0.24743   0.04794   0.00000  Uiso   1.00
C4     C     0.19210   0.28191   0.45095   0.00000  Uiso   1.00
C5     C     0.12083   0.24584   0.09744   0.00000  Uiso   1.00
C6     C     0.19377   0.28148   0.40162   0.00000  Uiso   1.00
C7     C     0.21290   0.25583   0.10615   0.00000  Uiso   1.00
C8     C     0.13709   0.21825   0.39404   0.00000  Uiso   1.00
C9     C     0.21497   0.24833   0.05672   0.00000  Uiso   1.00
C10    C     0.13989   0.21381   0.44408   0.00000  Uiso   1.00
C11    C     0.16741   0.24750   0.02656   0.00000  Uiso   1.00
C12    C     0.16613   0.24751   0.47325   0.00000  Uiso   1.00
C13    C     0.06762   0.24743   0.23864   0.00000  Uiso   1.00
C14    C     0.26576   0.25235   0.26145   0.00000  Uiso   1.00
C15    C     0.01420   0.23747   0.23618   0.00000  Uiso   1.00
C16    C     0.31937   0.26173   0.26451   0.00000  Uiso   1.00
C17    C     0.19813   0.04860   0.29527   0.00000  Uiso   1.00
C18    C     0.15119   0.45370   0.20672   0.00000  Uiso   1.00
C19    C     0.19245   0.09479   0.29352   0.00000  Uiso   1.00
C20    C     0.15195   0.40720   0.20775   0.00000  Uiso   1.00
C21    C     0.18446   0.11638   0.24987   0.00000  Uiso   1.00
C22    C     0.15653   0.38477   0.25093   0.00000  Uiso   1.00
C23    C     0.19326   0.09202   0.20821   0.00000  Uiso   1.00
C24    C     0.15214   0.40959   0.29316   0.00000  Uiso   1.00
C25    C     0.19652   0.04565   0.21092   0.00000  Uiso   1.00
C26    C     0.15547   0.45594   0.29151   0.00000  Uiso   1.00
C27    C     0.18739   0.02382   0.25248   0.00000  Uiso   1.00
C28    C     0.16496   0.47756   0.24983   0.00000  Uiso   1.00
H29    H     0.19634   0.11390   0.32634   0.00000  Uiso   1.00
H30    H     0.14644   0.38858   0.17463   0.00000  Uiso   1.00
H31    H     0.20412   0.02664   0.17998   0.00000  Uiso   1.00
H32    H     0.15074   0.47490   0.32316   0.00000  Uiso   1.00
H33    H     0.08289   0.24695   0.02628   0.00000  Uiso   1.00
H34    H     0.21250   0.30839   0.47192   0.00000  Uiso   1.00
H35    H     0.08407   0.24304   0.11261   0.00000  Uiso   1.00
H36    H     0.21573   0.30713   0.38548   0.00000  Uiso   1.00
N37    N     0.16667   0.24999   0.12624   0.00000  Uiso   1.00
N38    N     0.16667   0.25001   0.37377   0.00000  Uiso   1.00
O39    O     0.16667   0.18453   0.28974   0.00000  Uiso   1.00
O40    O     0.16666   0.31547   0.21026   0.00000  Uiso   1.00
O41    O     0.16667   0.18453   0.21026   0.00000  Uiso   1.00
O42    O     0.16666   0.31547   0.28974   0.00000  Uiso   1.00
O43    O     0.09058   0.25000   0.28045   0.00000  Uiso   1.00
O44    O     0.24275   0.25000   0.21956   0.00000  Uiso   1.00
O45    O     0.09058   0.25000   0.20097   0.00000  Uiso   1.00
O46    O     0.24275   0.25000   0.29904   0.00000  Uiso   1.00
Zn47   Zn    0.16667   0.25000   0.30307   0.00000  Uiso   1.00
Zn48   Zn    0.16667   0.24999   0.19693   0.00000  Uiso   1.00
C49    C     0.33133   0.19291   0.21457   0.00000  Uiso   1.00
O50    O     0.30180   0.16830   0.23368   0.00000  Uiso   1.00
O51    O     0.01949   0.17809   0.17396   0.00000  Uiso   1.00
H52    H     0.00677   0.14699   0.16332   0.00000  Uiso   1.00
C53    C     0.00301   0.30529   0.28806   0.00000  Uiso   1.00
O54    O     0.03216   0.33080   0.26962   0.00000  Uiso   1.00
O55    O     0.31648   0.31794   0.33018   0.00000  Uiso   1.00
H56    H     0.32972   0.34849   0.34224   0.00000  Uiso   1.00
S57    S     0.23295   0.02690   0.34740   0.00000  Uiso   1.00
O58    O     0.25716   0.48243   0.33747   0.00000  Uiso   1.00
O59    O     0.27598   0.05917   0.36520   0.00000  Uiso   1.00
O60    O     0.19243   0.02090   0.38980   0.00000  Uiso   1.00
H61    H     0.17680   0.05092   0.39325   0.00000  Uiso   1.00
S62    S     0.11767   0.47774   0.15519   0.00000  Uiso   1.00
O63    O     0.15455   0.48257   0.11776   0.00000  Uiso   1.00
O64    O     0.07343   0.44703   0.13645   0.00000  Uiso   1.00
O65    O     0.09243   0.02795   0.16765   0.00000  Uiso   1.00
H66    H     0.07653   0.03929   0.13683   0.00000  Uiso   1.00
C67    C     0.19845   0.11200   0.16128   0.00000  Uiso   1.00
O68    O     0.22790   0.14382   0.15755   0.00000  Uiso   1.00
O69    O     0.17190   0.09228   0.12074   0.00000  Uiso   1.00
H70    H     0.17993   0.10766   0.09069   0.00000  Uiso   1.00
C71    C     0.14460   0.38977   0.33962   0.00000  Uiso   1.00
O72    O     0.10960   0.36237   0.34299   0.00000  Uiso   1.00
O73    O     0.17598   0.40446   0.38011   0.00000  Uiso   1.00
H74    H     0.16680   0.38908   0.40982   0.00000  Uiso   1.00
C75    C     0.25695   0.27983   0.13335   0.00000  Uiso   1.00
O76    O     0.30129   0.26465   0.13669   0.00000  Uiso   1.00
O77    O     0.24760   0.32105   0.15465   0.00000  Uiso   1.00
H78    H     0.28039   0.33451   0.17250   0.00000  Uiso   1.00
C79    C     0.09599   0.19315   0.36432   0.00000  Uiso   1.00
O80    O     0.05233   0.20949   0.35670   0.00000  Uiso   1.00
O81    O     0.10550   0.15008   0.34759   0.00000  Uiso   1.00
H82    H     0.07375   0.13646   0.32825   0.00000  Uiso   1.00
S83    S     0.27628   0.23798   0.03395   0.00000  Uiso   1.00
O84    O     0.30476   0.28189   0.03076   0.00000  Uiso   1.00
O85    O     0.30911   0.20747   0.06661   0.00000  Uiso   1.00
O86    O     0.26849   0.21287   0.48034   0.00000  Uiso   1.00
H87    H     0.29673   0.22522   0.46294   0.00000  Uiso   1.00
S88    S     0.11220   0.16539   0.46887   0.00000  Uiso   1.00
O89    O     0.13757   0.15641   0.01790   0.00000  Uiso   1.00
O90    O     0.05450   0.17280   0.47057   0.00000  Uiso   1.00
O91    O     0.12067   0.11966   0.43551   0.00000  Uiso   1.00
H92    H     0.09994   0.09568   0.44884   0.00000  Uiso   1.00
C93    C     0.50469   0.16392   0.24992   0.00000  Uiso   1.00
C94    C     0.49690   0.33632   0.25022   0.00000  Uiso   1.00
C95    C     0.45357   0.24743   0.04794   0.00000  Uiso   1.00
C96    C     0.52543   0.28191   0.45095   0.00000  Uiso   1.00
C97    C     0.45417   0.24584   0.09744   0.00000  Uiso   1.00
C98    C     0.52710   0.28148   0.40162   0.00000  Uiso   1.00
C99    C     0.54624   0.25583   0.10615   0.00000  Uiso   1.00
C100   C     0.47042   0.21825   0.39404   0.00000  Uiso   1.00
C101   C     0.54830   0.24833   0.05672   0.00000  Uiso   1.00
C102   C     0.47322   0.21381   0.44408   0.00000  Uiso   1.00
C103   C     0.50074   0.24750   0.02656   0.00000  Uiso   1.00
C104   C     0.49946   0.24751   0.47325   0.00000  Uiso   1.00
C105   C     0.40096   0.24743   0.23864   0.00000  Uiso   1.00
C106   C     0.59910   0.25235   0.26145   0.00000  Uiso   1.00
C107   C     0.34753   0.23747   0.23618   0.00000  Uiso   1.00
C108   C     0.65271   0.26173   0.26451   0.00000  Uiso   1.00
C109   C     0.53146   0.04860   0.29527   0.00000  Uiso   1.00
C110   C     0.48452   0.45370   0.20672   0.00000  Uiso   1.00
C111   C     0.52578   0.09479   0.29352   0.00000  Uiso   1.00
C112   C     0.48528   0.40720   0.20775   0.00000  Uiso   1.00
C113   C     0.51779   0.11638   0.24987   0.00000  Uiso   1.00
C114   C     0.48986   0.38477   0.25093   0.00000  Uiso   1.00
C115   C     0.52660   0.09202   0.20821   0.00000  Uiso   1.00
C116   C     0.48547   0.40959   0.29316   0.00000  Uiso   1.00
C117   C     0.52985   0.04565   0.21092   0.00000  Uiso   1.00
C118   C     0.48880   0.45594   0.29151   0.00000  Uiso   1.00
C119   C     0.52072   0.02382   0.25248   0.00000  Uiso   1.00
C120   C     0.49830   0.47756   0.24983   0.00000  Uiso   1.00
H121   H     0.52967   0.11390   0.32634   0.00000  Uiso   1.00
H122   H     0.47978   0.38858   0.17463   0.00000  Uiso   1.00
H123   H     0.53745   0.02664   0.17998   0.00000  Uiso   1.00
H124   H     0.48407   0.47490   0.32316   0.00000  Uiso   1.00
H125   H     0.41622   0.24695   0.02628   0.00000  Uiso   1.00
H126   H     0.54583   0.30839   0.47192   0.00000  Uiso   1.00
H127   H     0.41740   0.24304   0.11261   0.00000  Uiso   1.00
H128   H     0.54907   0.30713   0.38548   0.00000  Uiso   1.00
N129   N     0.50000   0.24999   0.12624   0.00000  Uiso   1.00
N130   N     0.50000   0.25001   0.37377   0.00000  Uiso   1.00
O131   O     0.50000   0.18453   0.28974   0.00000  Uiso   1.00
O132   O     0.50000   0.31547   0.21026   0.00000  Uiso   1.00
O133   O     0.50000   0.18453   0.21026   0.00000  Uiso   1.00
O134   O     0.50000   0.31547   0.28974   0.00000  Uiso   1.00
O135   O     0.42392   0.25000   0.28045   0.00000  Uiso   1.00
O136   O     0.57608   0.25000   0.21956   0.00000  Uiso   1.00
O137   O     0.42392   0.25000   0.20097   0.00000  Uiso   1.00
O138   O     0.57608   0.25000   0.29904   0.00000  Uiso   1.00
Zn139  Zn    0.50000   0.25000   0.30307   0.00000  Uiso   1.00
Zn140  Zn    0.50000   0.24999   0.19693   0.00000  Uiso   1.00
C141   C     0.66467   0.19291   0.21457   0.00000  Uiso   1.00
O142   O     0.63513   0.16830   0.23368   0.00000  Uiso   1.00
O143   O     0.35282   0.17809   0.17396   0.00000  Uiso   1.00
H144   H     0.34010   0.14699   0.16332   0.00000  Uiso   1.00
C145   C     0.33635   0.30529   0.28806   0.00000  Uiso   1.00
O146   O     0.36549   0.33080   0.26962   0.00000  Uiso   1.00
O147   O     0.64982   0.31794   0.33018   0.00000  Uiso   1.00
H148   H     0.66306   0.34849   0.34224   0.00000  Uiso   1.00
S149   S     0.56628   0.02690   0.34740   0.00000  Uiso   1.00
O150   O     0.59049   0.48243   0.33747   0.00000  Uiso   1.00
O151   O     0.60931   0.05917   0.36520   0.00000  Uiso   1.00
O152   O     0.52577   0.02090   0.38980   0.00000  Uiso   1.00
H153   H     0.51013   0.05092   0.39325   0.00000  Uiso   1.00
S154   S     0.45100   0.47774   0.15519   0.00000  Uiso   1.00
O155   O     0.48788   0.48257   0.11776   0.00000  Uiso   1.00
O156   O     0.40676   0.44703   0.13645   0.00000  Uiso   1.00
O157   O     0.42576   0.02795   0.16765   0.00000  Uiso   1.00
H158   H     0.40986   0.03929   0.13683   0.00000  Uiso   1.00
C159   C     0.53178   0.11200   0.16128   0.00000  Uiso   1.00
O160   O     0.56124   0.14382   0.15755   0.00000  Uiso   1.00
O161   O     0.50524   0.09228   0.12074   0.00000  Uiso   1.00
H162   H     0.51326   0.10766   0.09069   0.00000  Uiso   1.00
C163   C     0.47793   0.38977   0.33962   0.00000  Uiso   1.00
O164   O     0.44294   0.36237   0.34299   0.00000  Uiso   1.00
O165   O     0.50931   0.40446   0.38011   0.00000  Uiso   1.00
H166   H     0.50013   0.38908   0.40982   0.00000  Uiso   1.00
C167   C     0.59028   0.27983   0.13335   0.00000  Uiso   1.00
O168   O     0.63462   0.26465   0.13669   0.00000  Uiso   1.00
O169   O     0.58094   0.32105   0.15465   0.00000  Uiso   1.00
H170   H     0.61372   0.33451   0.17250   0.00000  Uiso   1.00
C171   C     0.42932   0.19315   0.36432   0.00000  Uiso   1.00
O172   O     0.38566   0.20949   0.35670   0.00000  Uiso   1.00
O173   O     0.43884   0.15008   0.34759   0.00000  Uiso   1.00
H174   H     0.40708   0.13646   0.32825   0.00000  Uiso   1.00
S175   S     0.60961   0.23798   0.03395   0.00000  Uiso   1.00
O176   O     0.63809   0.28189   0.03076   0.00000  Uiso   1.00
O177   O     0.64244   0.20747   0.06661   0.00000  Uiso   1.00
O178   O     0.60182   0.21287   0.48034   0.00000  Uiso   1.00
H179   H     0.63006   0.22522   0.46294   0.00000  Uiso   1.00
S180   S     0.44553   0.16539   0.46887   0.00000  Uiso   1.00
O181   O     0.47091   0.15641   0.01790   0.00000  Uiso   1.00
O182   O     0.38783   0.17280   0.47057   0.00000  Uiso   1.00
O183   O     0.45400   0.11966   0.43551   0.00000  Uiso   1.00
H184   H     0.43327   0.09568   0.44884   0.00000  Uiso   1.00
C185   C     0.83803   0.16392   0.24992   0.00000  Uiso   1.00
C186   C     0.83023   0.33632   0.25022   0.00000  Uiso   1.00
C187   C     0.78690   0.24743   0.04794   0.00000  Uiso   1.00
C188   C     0.85876   0.28191   0.45095   0.00000  Uiso   1.00
C189   C     0.78750   0.24584   0.09744   0.00000  Uiso   1.00
C190   C     0.86044   0.28148   0.40162   0.00000  Uiso   1.00
C191   C     0.87957   0.25583   0.10615   0.00000  Uiso   1.00
C192   C     0.80376   0.21825   0.39404   0.00000  Uiso   1.00
C193   C     0.88164   0.24833   0.05672   0.00000  Uiso   1.00
C194   C     0.80655   0.21381   0.44408   0.00000  Uiso   1.00
C195   C     0.83408   0.24750   0.02656   0.00000  Uiso   1.00
C196   C     0.83280   0.24751   0.47325   0.00000  Uiso   1.00
C197   C     0.73429   0.24743   0.23864   0.00000  Uiso   1.00
C198   C     0.93243   0.25235   0.26145   0.00000  Uiso   1.00
C199   C     0.68087   0.23747   0.23618   0.00000  Uiso   1.00
C200   C     0.98604   0.26173   0.26451   0.00000  Uiso   1.00
C201   C     0.86479   0.04860   0.29527   0.00000  Uiso   1.00
C202   C     0.81786   0.45370   0.20672   0.00000  Uiso   1.00
C203   C     0.85911   0.09479   0.29352   0.00000  Uiso   1.00
C204   C     0.81862   0.40720   0.20775   0.00000  Uiso   1.00
C205   C     0.85112   0.11638   0.24987   0.00000  Uiso   1.00
C206   C     0.82319   0.38477   0.25093   0.00000  Uiso   1.00
C207   C     0.85993   0.09202   0.20821   0.00000  Uiso   1.00
C208   C     0.81880   0.40959   0.29316   0.00000  Uiso   1.00
C209   C     0.86318   0.04565   0.21092   0.00000  Uiso   1.00
C210   C     0.82214   0.45594   0.29151   0.00000  Uiso   1.00
C211   C     0.85406   0.02382   0.25248   0.00000  Uiso   1.00
C212   C     0.83163   0.47756   0.24983   0.00000  Uiso   1.00
H213   H     0.86301   0.11390   0.32634   0.00000  Uiso   1.00
H214   H     0.81311   0.38858   0.17463   0.00000  Uiso   1.00
H215   H     0.87078   0.02664   0.17998   0.00000  Uiso   1.00
H216   H     0.81741   0.47490   0.32316   0.00000  Uiso   1.00
H217   H     0.74956   0.24695   0.02628   0.00000  Uiso   1.00
H218   H     0.87916   0.30839   0.47192   0.00000  Uiso   1.00
H219   H     0.75074   0.24304   0.11261   0.00000  Uiso   1.00
H220   H     0.88240   0.30713   0.38548   0.00000  Uiso   1.00
N221   N     0.83333   0.24999   0.12624   0.00000  Uiso   1.00
N222   N     0.83333   0.25001   0.37377   0.00000  Uiso   1.00
O223   O     0.83334   0.18453   0.28974   0.00000  Uiso   1.00
O224   O     0.83333   0.31547   0.21026   0.00000  Uiso   1.00
O225   O     0.83334   0.18453   0.21026   0.00000  Uiso   1.00
O226   O     0.83333   0.31547   0.28974   0.00000  Uiso   1.00
O227   O     0.75725   0.25000   0.28045   0.00000  Uiso   1.00
O228   O     0.90942   0.25000   0.21956   0.00000  Uiso   1.00
O229   O     0.75725   0.25000   0.20097   0.00000  Uiso   1.00
O230   O     0.90942   0.25000   0.29904   0.00000  Uiso   1.00
Zn231  Zn    0.83333   0.25000   0.30307   0.00000  Uiso   1.00
Zn232  Zn    0.83333   0.24999   0.19693   0.00000  Uiso   1.00
C233   C     0.99800   0.19291   0.21457   0.00000  Uiso   1.00
O234   O     0.96846   0.16830   0.23368   0.00000  Uiso   1.00
O235   O     0.68615   0.17809   0.17396   0.00000  Uiso   1.00
H236   H     0.67343   0.14699   0.16332   0.00000  Uiso   1.00
C237   C     0.66968   0.30529   0.28806   0.00000  Uiso   1.00
O238   O     0.69882   0.33080   0.26962   0.00000  Uiso   1.00
O239   O     0.98315   0.31794   0.33018   0.00000  Uiso   1.00
H240   H     0.99639   0.34849   0.34224   0.00000  Uiso   1.00
S241   S     0.89961   0.02690   0.34740   0.00000  Uiso   1.00
O242   O     0.92383   0.48243   0.33747   0.00000  Uiso   1.00
O243   O     0.94265   0.05917   0.36520   0.00000  Uiso   1.00
O244   O     0.85910   0.02090   0.38980   0.00000  Uiso   1.00
H245   H     0.84346   0.05092   0.39325   0.00000  Uiso   1.00
S246   S     0.78434   0.47774   0.15519   0.00000  Uiso   1.00
O247   O     0.82122   0.48257   0.11776   0.00000  Uiso   1.00
O248   O     0.74009   0.44703   0.13645   0.00000  Uiso   1.00
O249   O     0.75909   0.02795   0.16765   0.00000  Uiso   1.00
H250   H     0.74319   0.03929   0.13683   0.00000  Uiso   1.00
C251   C     0.86512   0.11200   0.16128   0.00000  Uiso   1.00
O252   O     0.89457   0.14382   0.15755   0.00000  Uiso   1.00
O253   O     0.83857   0.09228   0.12074   0.00000  Uiso   1.00
H254   H     0.84659   0.10766   0.09069   0.00000  Uiso   1.00
C255   C     0.81127   0.38977   0.33962   0.00000  Uiso   1.00
O256   O     0.77627   0.36237   0.34299   0.00000  Uiso   1.00
O257   O     0.84264   0.40446   0.38011   0.00000  Uiso   1.00
H258   H     0.83346   0.38908   0.40982   0.00000  Uiso   1.00
C259   C     0.92362   0.27983   0.13335   0.00000  Uiso   1.00
O260   O     0.96796   0.26465   0.13669   0.00000  Uiso   1.00
O261   O     0.91427   0.32105   0.15465   0.00000  Uiso   1.00
H262   H     0.94706   0.33451   0.17250   0.00000  Uiso   1.00
C263   C     0.76266   0.19315   0.36432   0.00000  Uiso   1.00
O264   O     0.71900   0.20949   0.35670   0.00000  Uiso   1.00
O265   O     0.77217   0.15008   0.34759   0.00000  Uiso   1.00
H266   H     0.74041   0.13646   0.32825   0.00000  Uiso   1.00
S267   S     0.94295   0.23798   0.03395   0.00000  Uiso   1.00
O268   O     0.97143   0.28189   0.03076   0.00000  Uiso   1.00
O269   O     0.97578   0.20747   0.06661   0.00000  Uiso   1.00
O270   O     0.93515   0.21287   0.48034   0.00000  Uiso   1.00
H271   H     0.96340   0.22522   0.46294   0.00000  Uiso   1.00
S272   S     0.77886   0.16539   0.46887   0.00000  Uiso   1.00
O273   O     0.80424   0.15641   0.01790   0.00000  Uiso   1.00
O274   O     0.72116   0.17280   0.47057   0.00000  Uiso   1.00
O275   O     0.78734   0.11966   0.43551   0.00000  Uiso   1.00
H276   H     0.76660   0.09568   0.44884   0.00000  Uiso   1.00
C277   C     0.17136   0.66392   0.24992   0.00000  Uiso   1.00
C278   C     0.16357   0.83632   0.25022   0.00000  Uiso   1.00
C279   C     0.12023   0.74743   0.04794   0.00000  Uiso   1.00
C280   C     0.19210   0.78191   0.45095   0.00000  Uiso   1.00
C281   C     0.12083   0.74584   0.09744   0.00000  Uiso   1.00
C282   C     0.19377   0.78148   0.40162   0.00000  Uiso   1.00
C283   C     0.21290   0.75583   0.10615   0.00000  Uiso   1.00
C284   C     0.13709   0.71825   0.39404   0.00000  Uiso   1.00
C285   C     0.21497   0.74833   0.05672   0.00000  Uiso   1.00
C286   C     0.13989   0.71381   0.44408   0.00000  Uiso   1.00
C287   C     0.16741   0.74750   0.02656   0.00000  Uiso   1.00
C288   C     0.16613   0.74751   0.47325   0.00000  Uiso   1.00
C289   C     0.06762   0.74743   0.23864   0.00000  Uiso   1.00
C290   C     0.26576   0.75235   0.26145   0.00000  Uiso   1.00
C291   C     0.01420   0.73747   0.23618   0.00000  Uiso   1.00
C292   C     0.31937   0.76173   0.26451   0.00000  Uiso   1.00
C293   C     0.19813   0.54860   0.29527   0.00000  Uiso   1.00
C294   C     0.15119   0.95370   0.20672   0.00000  Uiso   1.00
C295   C     0.19245   0.59479   0.29352   0.00000  Uiso   1.00
C296   C     0.15195   0.90720   0.20775   0.00000  Uiso   1.00
C297   C     0.18446   0.61638   0.24987   0.00000  Uiso   1.00
C298   C     0.15653   0.88477   0.25093   0.00000  Uiso   1.00
C299   C     0.19326   0.59202   0.20821   0.00000  Uiso   1.00
C300   C     0.15214   0.90959   0.29316   0.00000  Uiso   1.00
C301   C     0.19652   0.54565   0.21092   0.00000  Uiso   1.00
C302   C     0.15547   0.95594   0.29151   0.00000  Uiso   1.00
C303   C     0.18739   0.52382   0.25248   0.00000  Uiso   1.00
C304   C     0.16496   0.97756   0.24983   0.00000  Uiso   1.00
H305   H     0.19634   0.61390   0.32634   0.00000  Uiso   1.00
H306   H     0.14644   0.88858   0.17463   0.00000  Uiso   1.00
H307   H     0.20412   0.52664   0.17998   0.00000  Uiso   1.00
H308   H     0.15074   0.97490   0.32316   0.00000  Uiso   1.00
H309   H     0.08289   0.74695   0.02628   0.00000  Uiso   1.00
H310   H     0.21250   0.80839   0.47192   0.00000  Uiso   1.00
H311   H     0.08407   0.74304   0.11261   0.00000  Uiso   1.00
H312   H     0.21573   0.80713   0.38548   0.00000  Uiso   1.00
N313   N     0.16667   0.74999   0.12624   0.00000  Uiso   1.00
N314   N     0.16667   0.75001   0.37377   0.00000  Uiso   1.00
O315   O     0.16667   0.68453   0.28974   0.00000  Uiso   1.00
O316   O     0.16666   0.81547   0.21026   0.00000  Uiso   1.00
O317   O     0.16667   0.68453   0.21026   0.00000  Uiso   1.00
O318   O     0.16666   0.81547   0.28974   0.00000  Uiso   1.00
O319   O     0.09058   0.75000   0.28045   0.00000  Uiso   1.00
O320   O     0.24275   0.75000   0.21956   0.00000  Uiso   1.00
O321   O     0.09058   0.75000   0.20097   0.00000  Uiso   1.00
O322   O     0.24275   0.75000   0.29904   0.00000  Uiso   1.00
Zn323  Zn    0.16667   0.75000   0.30307   0.00000  Uiso   1.00
Zn324  Zn    0.16667   0.74999   0.19693   0.00000  Uiso   1.00
C325   C     0.33133   0.69291   0.21457   0.00000  Uiso   1.00
O326   O     0.30180   0.66830   0.23368   0.00000  Uiso   1.00
O327   O     0.01949   0.67809   0.17396   0.00000  Uiso   1.00
H328   H     0.00677   0.64699   0.16332   0.00000  Uiso   1.00
C329   C     0.00301   0.80529   0.28806   0.00000  Uiso   1.00
O330   O     0.03216   0.83080   0.26962   0.00000  Uiso   1.00
O331   O     0.31648   0.81794   0.33018   0.00000  Uiso   1.00
H332   H     0.32972   0.84849   0.34224   0.00000  Uiso   1.00
S333   S     0.23295   0.52690   0.34740   0.00000  Uiso   1.00
O334   O     0.25716   0.98243   0.33747   0.00000  Uiso   1.00
O335   O     0.27598   0.55917   0.36520   0.00000  Uiso   1.00
O336   O     0.19243   0.52090   0.38980   0.00000  Uiso   1.00
H337   H     0.17680   0.55092   0.39325   0.00000  Uiso   1.00
S338   S     0.11767   0.97774   0.15519   0.00000  Uiso   1.00
O339   O     0.15455   0.98257   0.11776   0.00000  Uiso   1.00
O340   O     0.07343   0.94703   0.13645   0.00000  Uiso   1.00
O341   O     0.09243   0.52795   0.16765   0.00000  Uiso   1.00
H342   H     0.07653   0.53929   0.13683   0.00000  Uiso   1.00
C343   C     0.19845   0.61200   0.16128   0.00000  Uiso   1.00
O344   O     0.22790   0.64382   0.15755   0.00000  Uiso   1.00
O345   O     0.17190   0.59228   0.12074   0.00000  Uiso   1.00
H346   H     0.17993   0.60766   0.09069   0.00000  Uiso   1.00
C347   C     0.14460   0.88977   0.33962   0.00000  Uiso   1.00
O348   O     0.10960   0.86237   0.34299   0.00000  Uiso   1.00
O349   O     0.17598   0.90446   0.38011   0.00000  Uiso   1.00
H350   H     0.16680   0.88908   0.40982   0.00000  Uiso   1.00
C351   C     0.25695   0.77983   0.13335   0.00000  Uiso   1.00
O352   O     0.30129   0.76465   0.13669   0.00000  Uiso   1.00
O353   O     0.24760   0.82105   0.15465   0.00000  Uiso   1.00
H354   H     0.28039   0.83451   0.17250   0.00000  Uiso   1.00
C355   C     0.09599   0.69315   0.36432   0.00000  Uiso   1.00
O356   O     0.05233   0.70949   0.35670   0.00000  Uiso   1.00
O357   O     0.10550   0.65008   0.34759   0.00000  Uiso   1.00
H358   H     0.07375   0.63646   0.32825   0.00000  Uiso   1.00
S359   S     0.27628   0.73798   0.03395   0.00000  Uiso   1.00
O360   O     0.30476   0.78189   0.03076   0.00000  Uiso   1.00
O361   O     0.30911   0.70747   0.06661   0.00000  Uiso   1.00
O362   O     0.26849   0.71287   0.48034   0.00000  Uiso   1.00
H363   H     0.29673   0.72522   0.46294   0.00000  Uiso   1.00
S364   S     0.11220   0.66539   0.46887   0.00000  Uiso   1.00
O365   O     0.13757   0.65641   0.01790   0.00000  Uiso   1.00
O366   O     0.05450   0.67280   0.47057   0.00000  Uiso   1.00
O367   O     0.12067   0.61966   0.43551   0.00000  Uiso   1.00
H368   H     0.09994   0.59568   0.44884   0.00000  Uiso   1.00
C369   C     0.50469   0.66392   0.24992   0.00000  Uiso   1.00
C370   C     0.49690   0.83632   0.25022   0.00000  Uiso   1.00
C371   C     0.45357   0.74743   0.04794   0.00000  Uiso   1.00
C372   C     0.52543   0.78191   0.45095   0.00000  Uiso   1.00
C373   C     0.45417   0.74584   0.09744   0.00000  Uiso   1.00
C374   C     0.52710   0.78148   0.40162   0.00000  Uiso   1.00
C375   C     0.54624   0.75583   0.10615   0.00000  Uiso   1.00
C376   C     0.47042   0.71825   0.39404   0.00000  Uiso   1.00
C377   C     0.54830   0.74833   0.05672   0.00000  Uiso   1.00
C378   C     0.47322   0.71381   0.44408   0.00000  Uiso   1.00
C379   C     0.50074   0.74750   0.02656   0.00000  Uiso   1.00
C380   C     0.49946   0.74751   0.47325   0.00000  Uiso   1.00
C381   C     0.40096   0.74743   0.23864   0.00000  Uiso   1.00
C382   C     0.59910   0.75235   0.26145   0.00000  Uiso   1.00
C383   C     0.34753   0.73747   0.23618   0.00000  Uiso   1.00
C384   C     0.65271   0.76173   0.26451   0.00000  Uiso   1.00
C385   C     0.53146   0.54860   0.29527   0.00000  Uiso   1.00
C386   C     0.48452   0.95370   0.20672   0.00000  Uiso   1.00
C387   C     0.52578   0.59479   0.29352   0.00000  Uiso   1.00
C388   C     0.48528   0.90720   0.20775   0.00000  Uiso   1.00
C389   C     0.51779   0.61638   0.24987   0.00000  Uiso   1.00
C390   C     0.48986   0.88477   0.25093   0.00000  Uiso   1.00
C391   C     0.52660   0.59202   0.20821   0.00000  Uiso   1.00
C392   C     0.48547   0.90959   0.29316   0.00000  Uiso   1.00
C393   C     0.52985   0.54565   0.21092   0.00000  Uiso   1.00
C394   C     0.48880   0.95594   0.29151   0.00000  Uiso   1.00
C395   C     0.52072   0.52382   0.25248   0.00000  Uiso   1.00
C396   C     0.49830   0.97756   0.24983   0.00000  Uiso   1.00
H397   H     0.52967   0.61390   0.32634   0.00000  Uiso   1.00
H398   H     0.47978   0.88858   0.17463   0.00000  Uiso   1.00
H399   H     0.53745   0.52664   0.17998   0.00000  Uiso   1.00
H400   H     0.48407   0.97490   0.32316   0.00000  Uiso   1.00
H401   H     0.41622   0.74695   0.02628   0.00000  Uiso   1.00
H402   H     0.54583   0.80839   0.47192   0.00000  Uiso   1.00
H403   H     0.41740   0.74304   0.11261   0.00000  Uiso   1.00
H404   H     0.54907   0.80713   0.38548   0.00000  Uiso   1.00
N405   N     0.50000   0.74999   0.12624   0.00000  Uiso   1.00
N406   N     0.50000   0.75001   0.37377   0.00000  Uiso   1.00
O407   O     0.50000   0.68453   0.28974   0.00000  Uiso   1.00
O408   O     0.50000   0.81547   0.21026   0.00000  Uiso   1.00
O409   O     0.50000   0.68453   0.21026   0.00000  Uiso   1.00
O410   O     0.50000   0.81547   0.28974   0.00000  Uiso   1.00
O411   O     0.42392   0.75000   0.28045   0.00000  Uiso   1.00
O412   O     0.57608   0.75000   0.21956   0.00000  Uiso   1.00
O413   O     0.42392   0.75000   0.20097   0.00000  Uiso   1.00
O414   O     0.57608   0.75000   0.29904   0.00000  Uiso   1.00
Zn415  Zn    0.50000   0.75000   0.30307   0.00000  Uiso   1.00
Zn416  Zn    0.50000   0.74999   0.19693   0.00000  Uiso   1.00
C417   C     0.66467   0.69291   0.21457   0.00000  Uiso   1.00
O418   O     0.63513   0.66830   0.23368   0.00000  Uiso   1.00
O419   O     0.35282   0.67809   0.17396   0.00000  Uiso   1.00
H420   H     0.34010   0.64699   0.16332   0.00000  Uiso   1.00
C421   C     0.33635   0.80529   0.28806   0.00000  Uiso   1.00
O422   O     0.36549   0.83080   0.26962   0.00000  Uiso   1.00
O423   O     0.64982   0.81794   0.33018   0.00000  Uiso   1.00
H424   H     0.66306   0.84849   0.34224   0.00000  Uiso   1.00
S425   S     0.56628   0.52690   0.34740   0.00000  Uiso   1.00
O426   O     0.59049   0.98243   0.33747   0.00000  Uiso   1.00
O427   O     0.60931   0.55917   0.36520   0.00000  Uiso   1.00
O428   O     0.52577   0.52090   0.38980   0.00000  Uiso   1.00
H429   H     0.51013   0.55092   0.39325   0.00000  Uiso   1.00
S430   S     0.45100   0.97774   0.15519   0.00000  Uiso   1.00
O431   O     0.48788   0.98257   0.11776   0.00000  Uiso   1.00
O432   O     0.40676   0.94703   0.13645   0.00000  Uiso   1.00
O433   O     0.42576   0.52795   0.16765   0.00000  Uiso   1.00
H434   H     0.40986   0.53929   0.13683   0.00000  Uiso   1.00
C435   C     0.53178   0.61200   0.16128   0.00000  Uiso   1.00
O436   O     0.56124   0.64382   0.15755   0.00000  Uiso   1.00
O437   O     0.50524   0.59228   0.12074   0.00000  Uiso   1.00
H438   H     0.51326   0.60766   0.09069   0.00000  Uiso   1.00
C439   C     0.47793   0.88977   0.33962   0.00000  Uiso   1.00
O440   O     0.44294   0.86237   0.34299   0.00000  Uiso   1.00
O441   O     0.50931   0.90446   0.38011   0.00000  Uiso   1.00
H442   H     0.50013   0.88908   0.40982   0.00000  Uiso   1.00
C443   C     0.59028   0.77983   0.13335   0.00000  Uiso   1.00
O444   O     0.63462   0.76465   0.13669   0.00000  Uiso   1.00
O445   O     0.58094   0.82105   0.15465   0.00000  Uiso   1.00
H446   H     0.61372   0.83451   0.17250   0.00000  Uiso   1.00
C447   C     0.42932   0.69315   0.36432   0.00000  Uiso   1.00
O448   O     0.38566   0.70949   0.35670   0.00000  Uiso   1.00
O449   O     0.43884   0.65008   0.34759   0.00000  Uiso   1.00
H450   H     0.40708   0.63646   0.32825   0.00000  Uiso   1.00
S451   S     0.60961   0.73798   0.03395   0.00000  Uiso   1.00
O452   O     0.63809   0.78189   0.03076   0.00000  Uiso   1.00
O453   O     0.64244   0.70747   0.06661   0.00000  Uiso   1.00
O454   O     0.60182   0.71287   0.48034   0.00000  Uiso   1.00
H455   H     0.63006   0.72522   0.46294   0.00000  Uiso   1.00
S456   S     0.44553   0.66539   0.46887   0.00000  Uiso   1.00
O457   O     0.47091   0.65641   0.01790   0.00000  Uiso   1.00
O458   O     0.38783   0.67280   0.47057   0.00000  Uiso   1.00
O459   O     0.45400   0.61966   0.43551   0.00000  Uiso   1.00
H460   H     0.43327   0.59568   0.44884   0.00000  Uiso   1.00
C461   C     0.83803   0.66392   0.24992   0.00000  Uiso   1.00
C462   C     0.83023   0.83632   0.25022   0.00000  Uiso   1.00
C463   C     0.78690   0.74743   0.04794   0.00000  Uiso   1.00
C464   C     0.85876   0.78191   0.45095   0.00000  Uiso   1.00
C465   C     0.78750   0.74584   0.09744   0.00000  Uiso   1.00
C466   C     0.86044   0.78148   0.40162   0.00000  Uiso   1.00
C467   C     0.87957   0.75583   0.10615   0.00000  Uiso   1.00
C468   C     0.80376   0.71825   0.39404   0.00000  Uiso   1.00
C469   C     0.88164   0.74833   0.05672   0.00000  Uiso   1.00
C470   C     0.80655   0.71381   0.44408   0.00000  Uiso   1.00
C471   C     0.83408   0.74750   0.02656   0.00000  Uiso   1.00
C472   C     0.83280   0.74751   0.47325   0.00000  Uiso   1.00
C473   C     0.73429   0.74743   0.23864   0.00000  Uiso   1.00
C474   C     0.93243   0.75235   0.26145   0.00000  Uiso   1.00
C475   C     0.68087   0.73747   0.23618   0.00000  Uiso   1.00
C476   C     0.98604   0.76173   0.26451   0.00000  Uiso   1.00
C477   C     0.86479   0.54860   0.29527   0.00000  Uiso   1.00
C478   C     0.81786   0.95370   0.20672   0.00000  Uiso   1.00
C479   C     0.85911   0.59479   0.29352   0.00000  Uiso   1.00
C480   C     0.81862   0.90720   0.20775   0.00000  Uiso   1.00
C481   C     0.85112   0.61638   0.24987   0.00000  Uiso   1.00
C482   C     0.82319   0.88477   0.25093   0.00000  Uiso   1.00
C483   C     0.85993   0.59202   0.20821   0.00000  Uiso   1.00
C484   C     0.81880   0.90959   0.29316   0.00000  Uiso   1.00
C485   C     0.86318   0.54565   0.21092   0.00000  Uiso   1.00
C486   C     0.82214   0.95594   0.29151   0.00000  Uiso   1.00
C487   C     0.85406   0.52382   0.25248   0.00000  Uiso   1.00
C488   C     0.83163   0.97756   0.24983   0.00000  Uiso   1.00
H489   H     0.86301   0.61390   0.32634   0.00000  Uiso   1.00
H490   H     0.81311   0.88858   0.17463   0.00000  Uiso   1.00
H491   H     0.87078   0.52664   0.17998   0.00000  Uiso   1.00
H492   H     0.81741   0.97490   0.32316   0.00000  Uiso   1.00
H493   H     0.74956   0.74695   0.02628   0.00000  Uiso   1.00
H494   H     0.87916   0.80839   0.47192   0.00000  Uiso   1.00
H495   H     0.75074   0.74304   0.11261   0.00000  Uiso   1.00
H496   H     0.88240   0.80713   0.38548   0.00000  Uiso   1.00
N497   N     0.83333   0.74999   0.12624   0.00000  Uiso   1.00
N498   N     0.83333   0.75001   0.37377   0.00000  Uiso   1.00
O499   O     0.83334   0.68453   0.28974   0.00000  Uiso   1.00
O500   O     0.83333   0.81547   0.21026   0.00000  Uiso   1.00
O501   O     0.83334   0.68453   0.21026   0.00000  Uiso   1.00
O502   O     0.83333   0.81547   0.28974   0.00000  Uiso   1.00
O503   O     0.75725   0.75000   0.28045   0.00000  Uiso   1.00
O504   O     0.90942   0.75000   0.21956   0.00000  Uiso   1.00
O505   O     0.75725   0.75000   0.20097   0.00000  Uiso   1.00
O506   O     0.90942   0.75000   0.29904   0.00000  Uiso   1.00
Zn507  Zn    0.83333   0.75000   0.30307   0.00000  Uiso   1.00
Zn508  Zn    0.83333   0.74999   0.19693   0.00000  Uiso   1.00
C509   C     0.99800   0.69291   0.21457   0.00000  Uiso   1.00
O510   O     0.96846   0.66830   0.23368   0.00000  Uiso   1.00
O511   O     0.68615   0.67809   0.17396   0.00000  Uiso   1.00
H512   H     0.67343   0.64699   0.16332   0.00000  Uiso   1.00
C513   C     0.66968   0.80529   0.28806   0.00000  Uiso   1.00
O514   O     0.69882   0.83080   0.26962   0.00000  Uiso   1.00
O515   O     0.98315   0.81794   0.33018   0.00000  Uiso   1.00
H516   H     0.99639   0.84849   0.34224   0.00000  Uiso   1.00
S517   S     0.89961   0.52690   0.34740   0.00000  Uiso   1.00
O518   O     0.92383   0.98243   0.33747   0.00000  Uiso   1.00
O519   O     0.94265   0.55917   0.36520   0.00000  Uiso   1.00
O520   O     0.85910   0.52090   0.38980   0.00000  Uiso   1.00
H521   H     0.84346   0.55092   0.39325   0.00000  Uiso   1.00
S522   S     0.78434   0.97774   0.15519   0.00000  Uiso   1.00
O523   O     0.82122   0.98257   0.11776   0.00000  Uiso   1.00
O524   O     0.74009   0.94703   0.13645   0.00000  Uiso   1.00
O525   O     0.75909   0.52795   0.16765   0.00000  Uiso   1.00
H526   H     0.74319   0.53929   0.13683   0.00000  Uiso   1.00
C527   C     0.86512   0.61200   0.16128   0.00000  Uiso   1.00
O528   O     0.89457   0.64382   0.15755   0.00000  Uiso   1.00
O529   O     0.83857   0.59228   0.12074   0.00000  Uiso   1.00
H530   H     0.84659   0.60766   0.09069   0.00000  Uiso   1.00
C531   C     0.81127   0.88977   0.33962   0.00000  Uiso   1.00
O532   O     0.77627   0.86237   0.34299   0.00000  Uiso   1.00
O533   O     0.84264   0.90446   0.38011   0.00000  Uiso   1.00
H534   H     0.83346   0.88908   0.40982   0.00000  Uiso   1.00
C535   C     0.92362   0.77983   0.13335   0.00000  Uiso   1.00
O536   O     0.96796   0.76465   0.13669   0.00000  Uiso   1.00
O537   O     0.91427   0.82105   0.15465   0.00000  Uiso   1.00
H538   H     0.94706   0.83451   0.17250   0.00000  Uiso   1.00
C539   C     0.76266   0.69315   0.36432   0.00000  Uiso   1.00
O540   O     0.71900   0.70949   0.35670   0.00000  Uiso   1.00
O541   O     0.77217   0.65008   0.34759   0.00000  Uiso   1.00
H542   H     0.74041   0.63646   0.32825   0.00000  Uiso   1.00
S543   S     0.94295   0.73798   0.03395   0.00000  Uiso   1.00
O544   O     0.97143   0.78189   0.03076   0.00000  Uiso   1.00
O545   O     0.97578   0.70747   0.06661   0.00000  Uiso   1.00
O546   O     0.93515   0.71287   0.48034   0.00000  Uiso   1.00
H547   H     0.96340   0.72522   0.46294   0.00000  Uiso   1.00
S548   S     0.77886   0.66539   0.46887   0.00000  Uiso   1.00
O549   O     0.80424   0.65641   0.01790   0.00000  Uiso   1.00
O550   O     0.72116   0.67280   0.47057   0.00000  Uiso   1.00
O551   O     0.78734   0.61966   0.43551   0.00000  Uiso   1.00
H552   H     0.76660   0.59568   0.44884   0.00000  Uiso   1.00
C553   C     0.17136   0.16392   0.74992   0.00000  Uiso   1.00
C554   C     0.16357   0.33632   0.75022   0.00000  Uiso   1.00
C555   C     0.12023   0.24743   0.54794   0.00000  Uiso   1.00
C556   C     0.19210   0.28191   0.95095   0.00000  Uiso   1.00
C557   C     0.12083   0.24584   0.59744   0.00000  Uiso   1.00
C558   C     0.19377   0.28148   0.90162   0.00000  Uiso   1.00
C559   C     0.21290   0.25583   0.60615   0.00000  Uiso   1.00
C560   C     0.13709   0.21825   0.89404   0.00000  Uiso   1.00
C561   C     0.21497   0.24833   0.55672   0.00000  Uiso   1.00
C562   C     0.13989   0.21381   0.94408   0.00000  Uiso   1.00
C563   C     0.16741   0.24750   0.52656   0.00000  Uiso   1.00
C564   C     0.16613   0.24751   0.97325   0.00000  Uiso   1.00
C565   C     0.06762   0.24743   0.73864   0.00000  Uiso   1.00
C566   C     0.26576   0.25235   0.76145   0.00000  Uiso   1.00
C567   C     0.01420   0.23747   0.73618   0.00000  Uiso   1.00
C568   C     0.31937   0.26173   0.76451   0.00000  Uiso   1.00
C569   C     0.19813   0.04860   0.79527   0.00000  Uiso   1.00
C570   C     0.15119   0.45370   0.70672   0.00000  Uiso   1.00
C571   C     0.19245   0.09479   0.79352   0.00000  Uiso   1.00
C572   C     0.15195   0.40720   0.70775   0.00000  Uiso   1.00
C573   C     0.18446   0.11638   0.74987   0.00000  Uiso   1.00
C574   C     0.15653   0.38477   0.75093   0.00000  Uiso   1.00
C575   C     0.19326   0.09202   0.70821   0.00000  Uiso   1.00
C576   C     0.15214   0.40959   0.79316   0.00000  Uiso   1.00
C577   C     0.19652   0.04565   0.71092   0.00000  Uiso   1.00
C578   C     0.15547   0.45594   0.79151   0.00000  Uiso   1.00
C579   C     0.18739   0.02382   0.75248   0.00000  Uiso   1.00
C580   C     0.16496   0.47756   0.74983   0.00000  Uiso   1.00
H581   H     0.19634   0.11390   0.82634   0.00000  Uiso   1.00
H582   H     0.14644   0.38858   0.67463   0.00000  Uiso   1.00
H583   H     0.20412   0.02664   0.67998   0.00000  Uiso   1.00
H584   H     0.15074   0.47490   0.82316   0.00000  Uiso   1.00
H585   H     0.08289   0.24695   0.52628   0.00000  Uiso   1.00
H586   H     0.21250   0.30839   0.97192   0.00000  Uiso   1.00
H587   H     0.08407   0.24304   0.61261   0.00000  Uiso   1.00
H588   H     0.21573   0.30713   0.88548   0.00000  Uiso   1.00
N589   N     0.16667   0.24999   0.62624   0.00000  Uiso   1.00
N590   N     0.16667   0.25001   0.87377   0.00000  Uiso   1.00
O591   O     0.16667   0.18453   0.78974   0.00000  Uiso   1.00
O592   O     0.16666   0.31547   0.71026   0.00000  Uiso   1.00
O593   O     0.16667   0.18453   0.71026   0.00000  Uiso   1.00
O594   O     0.16666   0.31547   0.78974   0.00000  Uiso   1.00
O595   O     0.09058   0.25000   0.78045   0.00000  Uiso   1.00
O596   O     0.24275   0.25000   0.71956   0.00000  Uiso   1.00
O597   O     0.09058   0.25000   0.70097   0.00000  Uiso   1.00
O598   O     0.24275   0.25000   0.79904   0.00000  Uiso   1.00
Zn599  Zn    0.16667   0.25000   0.80307   0.00000  Uiso   1.00
Zn600  Zn    0.16667   0.24999   0.69693   0.00000  Uiso   1.00
C601   C     0.33133   0.19291   0.71457   0.00000  Uiso   1.00
O602   O     0.30180   0.16830   0.73368   0.00000  Uiso   1.00
O603   O     0.01949   0.17809   0.67396   0.00000  Uiso   1.00
H604   H     0.00677   0.14699   0.66332   0.00000  Uiso   1.00
C605   C     0.00301   0.30529   0.78806   0.00000  Uiso   1.00
O606   O     0.03216   0.33080   0.76962   0.00000  Uiso   1.00
O607   O     0.31648   0.31794   0.83018   0.00000  Uiso   1.00
H608   H     0.32972   0.34849   0.84224   0.00000  Uiso   1.00
S609   S     0.23295   0.02690   0.84740   0.00000  Uiso   1.00
O610   O     0.25716   0.48243   0.83747   0.00000  Uiso   1.00
O611   O     0.27598   0.05917   0.86520   0.00000  Uiso   1.00
O612   O     0.19243   0.02090   0.88980   0.00000  Uiso   1.00
H613   H     0.17680   0.05092   0.89325   0.00000  Uiso   1.00
S614   S     0.11767   0.47774   0.65519   0.00000  Uiso   1.00
O615   O     0.15455   0.48257   0.61776   0.00000  Uiso   1.00
O616   O     0.07343   0.44703   0.63645   0.00000  Uiso   1.00
O617   O     0.09243   0.02795   0.66765   0.00000  Uiso   1.00
H618   H     0.07653   0.03929   0.63683   0.00000  Uiso   1.00
C619   C     0.19845   0.11200   0.66128   0.00000  Uiso   1.00
O620   O     0.22790   0.14382   0.65755   0.00000  Uiso   1.00
O621   O     0.17190   0.09228   0.62074   0.00000  Uiso   1.00
H622   H     0.17993   0.10766   0.59069   0.00000  Uiso   1.00
C623   C     0.14460   0.38977   0.83962   0.00000  Uiso   1.00
O624   O     0.10960   0.36237   0.84299   0.00000  Uiso   1.00
O625   O     0.17598   0.40446   0.88011   0.00000  Uiso   1.00
H626   H     0.16680   0.38908   0.90982   0.00000  Uiso   1.00
C627   C     0.25695   0.27983   0.63335   0.00000  Uiso   1.00
O628   O     0.30129   0.26465   0.63669   0.00000  Uiso   1.00
O629   O     0.24760   0.32105   0.65465   0.00000  Uiso   1.00
H630   H     0.28039   0.33451   0.67250   0.00000  Uiso   1.00
C631   C     0.09599   0.19315   0.86432   0.00000  Uiso   1.00
O632   O     0.05233   0.20949   0.85670   0.00000  Uiso   1.00
O633   O     0.10550   0.15008   0.84759   0.00000  Uiso   1.00
H634   H     0.07375   0.13646   0.82825   0.00000  Uiso   1.00
S635   S     0.27628   0.23798   0.53395   0.00000  Uiso   1.00
O636   O     0.30476   0.28189   0.53076   0.00000  Uiso   1.00
O637   O     0.30911   0.20747   0.56661   0.00000  Uiso   1.00
O638   O     0.26849   0.21287   0.98034   0.00000  Uiso   1.00
H639   H     0.29673   0.22522   0.96294   0.00000  Uiso   1.00
S640   S     0.11220   0.16539   0.96887   0.00000  Uiso   1.00
O641   O     0.13757   0.15641   0.51790   0.00000  Uiso   1.00
O642   O     0.05450   0.17280   0.97057   0.00000  Uiso   1.00
O643   O     0.12067   0.11966   0.93551   0.00000  Uiso   1.00
H644   H     0.09994   0.09568   0.94884   0.00000  Uiso   1.00
C645   C     0.50469   0.16392   0.74992   0.00000  Uiso   1.00
C646   C     0.49690   0.33632   0.75022   0.00000  Uiso   1.00
C647   C     0.45357   0.24743   0.54794   0.00000  Uiso   1.00
C648   C     0.52543   0.28191   0.95095   0.00000  Uiso   1.00
C649   C     0.45417   0.24584   0.59744   0.00000  Uiso   1.00
C650   C     0.52710   0.28148   0.90162   0.00000  Uiso   1.00
C651   C     0.54624   0.25583   0.60615   0.00000  Uiso   1.00
C652   C     0.47042   0.21825   0.89404   0.00000  Uiso   1.00
C653   C     0.54830   0.24833   0.55672   0.00000  Uiso   1.00
C654   C     0.47322   0.21381   0.94408   0.00000  Uiso   1.00
C655   C     0.50074   0.24750   0.52656   0.00000  Uiso   1.00
C656   C     0.49946   0.24751   0.97325   0.00000  Uiso   1.00
C657   C     0.40096   0.24743   0.73864   0.00000  Uiso   1.00
C658   C     0.59910   0.25235   0.76145   0.00000  Uiso   1.00
C659   C     0.34753   0.23747   0.73618   0.00000  Uiso   1.00
C660   C     0.65271   0.26173   0.76451   0.00000  Uiso   1.00
C661   C     0.53146   0.04860   0.79527   0.00000  Uiso   1.00
C662   C     0.48452   0.45370   0.70672   0.00000  Uiso   1.00
C663   C     0.52578   0.09479   0.79352   0.00000  Uiso   1.00
C664   C     0.48528   0.40720   0.70775   0.00000  Uiso   1.00
C665   C     0.51779   0.11638   0.74987   0.00000  Uiso   1.00
C666   C     0.48986   0.38477   0.75093   0.00000  Uiso   1.00
C667   C     0.52660   0.09202   0.70821   0.00000  Uiso   1.00
C668   C     0.48547   0.40959   0.79316   0.00000  Uiso   1.00
C669   C     0.52985   0.04565   0.71092   0.00000  Uiso   1.00
C670   C     0.48880   0.45594   0.79151   0.00000  Uiso   1.00
C671   C     0.52072   0.02382   0.75248   0.00000  Uiso   1.00
C672   C     0.49830   0.47756   0.74983   0.00000  Uiso   1.00
H673   H     0.52967   0.11390   0.82634   0.00000  Uiso   1.00
H674   H     0.47978   0.38858   0.67463   0.00000  Uiso   1.00
H675   H     0.53745   0.02664   0.67998   0.00000  Uiso   1.00
H676   H     0.48407   0.47490   0.82316   0.00000  Uiso   1.00
H677   H     0.41622   0.24695   0.52628   0.00000  Uiso   1.00
H678   H     0.54583   0.30839   0.97192   0.00000  Uiso   1.00
H679   H     0.41740   0.24304   0.61261   0.00000  Uiso   1.00
H680   H     0.54907   0.30713   0.88548   0.00000  Uiso   1.00
N681   N     0.50000   0.24999   0.62624   0.00000  Uiso   1.00
N682   N     0.50000   0.25001   0.87377   0.00000  Uiso   1.00
O683   O     0.50000   0.18453   0.78974   0.00000  Uiso   1.00
O684   O     0.50000   0.31547   0.71026   0.00000  Uiso   1.00
O685   O     0.50000   0.18453   0.71026   0.00000  Uiso   1.00
O686   O     0.50000   0.31547   0.78974   0.00000  Uiso   1.00
O687   O     0.42392   0.25000   0.78045   0.00000  Uiso   1.00
O688   O     0.57608   0.25000   0.71956   0.00000  Uiso   1.00
O689   O     0.42392   0.25000   0.70097   0.00000  Uiso   1.00
O690   O     0.57608   0.25000   0.79904   0.00000  Uiso   1.00
Zn691  Zn    0.50000   0.25000   0.80307   0.00000  Uiso   1.00
Zn692  Zn    0.50000   0.24999   0.69693   0.00000  Uiso   1.00
C693   C     0.66467   0.19291   0.71457   0.00000  Uiso   1.00
O694   O     0.63513   0.16830   0.73368   0.00000  Uiso   1.00
O695   O     0.35282   0.17809   0.67396   0.00000  Uiso   1.00
H696   H     0.34010   0.14699   0.66332   0.00000  Uiso   1.00
C697   C     0.33635   0.30529   0.78806   0.00000  Uiso   1.00
O698   O     0.36549   0.33080   0.76962   0.00000  Uiso   1.00
O699   O     0.64982   0.31794   0.83018   0.00000  Uiso   1.00
H700   H     0.66306   0.34849   0.84224   0.00000  Uiso   1.00
S701   S     0.56628   0.02690   0.84740   0.00000  Uiso   1.00
O702   O     0.59049   0.48243   0.83747   0.00000  Uiso   1.00
O703   O     0.60931   0.05917   0.86520   0.00000  Uiso   1.00
O704   O     0.52577   0.02090   0.88980   0.00000  Uiso   1.00
H705   H     0.51013   0.05092   0.89325   0.00000  Uiso   1.00
S706   S     0.45100   0.47774   0.65519   0.00000  Uiso   1.00
O707   O     0.48788   0.48257   0.61776   0.00000  Uiso   1.00
O708   O     0.40676   0.44703   0.63645   0.00000  Uiso   1.00
O709   O     0.42576   0.02795   0.66765   0.00000  Uiso   1.00
H710   H     0.40986   0.03929   0.63683   0.00000  Uiso   1.00
C711   C     0.53178   0.11200   0.66128   0.00000  Uiso   1.00
O712   O     0.56124   0.14382   0.65755   0.00000  Uiso   1.00
O713   O     0.50524   0.09228   0.62074   0.00000  Uiso   1.00
H714   H     0.51326   0.10766   0.59069   0.00000  Uiso   1.00
C715   C     0.47793   0.38977   0.83962   0.00000  Uiso   1.00
O716   O     0.44294   0.36237   0.84299   0.00000  Uiso   1.00
O717   O     0.50931   0.40446   0.88011   0.00000  Uiso   1.00
H718   H     0.50013   0.38908   0.90982   0.00000  Uiso   1.00
C719   C     0.59028   0.27983   0.63335   0.00000  Uiso   1.00
O720   O     0.63462   0.26465   0.63669   0.00000  Uiso   1.00
O721   O     0.58094   0.32105   0.65465   0.00000  Uiso   1.00
H722   H     0.61372   0.33451   0.67250   0.00000  Uiso   1.00
C723   C     0.42932   0.19315   0.86432   0.00000  Uiso   1.00
O724   O     0.38566   0.20949   0.85670   0.00000  Uiso   1.00
O725   O     0.43884   0.15008   0.84759   0.00000  Uiso   1.00
H726   H     0.40708   0.13646   0.82825   0.00000  Uiso   1.00
S727   S     0.60961   0.23798   0.53395   0.00000  Uiso   1.00
O728   O     0.63809   0.28189   0.53076   0.00000  Uiso   1.00
O729   O     0.64244   0.20747   0.56661   0.00000  Uiso   1.00
O730   O     0.60182   0.21287   0.98034   0.00000  Uiso   1.00
H731   H     0.63006   0.22522   0.96294   0.00000  Uiso   1.00
S732   S     0.44553   0.16539   0.96887   0.00000  Uiso   1.00
O733   O     0.47091   0.15641   0.51790   0.00000  Uiso   1.00
O734   O     0.38783   0.17280   0.97057   0.00000  Uiso   1.00
O735   O     0.45400   0.11966   0.93551   0.00000  Uiso   1.00
H736   H     0.43327   0.09568   0.94884   0.00000  Uiso   1.00
C737   C     0.83803   0.16392   0.74992   0.00000  Uiso   1.00
C738   C     0.83023   0.33632   0.75022   0.00000  Uiso   1.00
C739   C     0.78690   0.24743   0.54794   0.00000  Uiso   1.00
C740   C     0.85876   0.28191   0.95095   0.00000  Uiso   1.00
C741   C     0.78750   0.24584   0.59744   0.00000  Uiso   1.00
C742   C     0.86044   0.28148   0.90162   0.00000  Uiso   1.00
C743   C     0.87957   0.25583   0.60615   0.00000  Uiso   1.00
C744   C     0.80376   0.21825   0.89404   0.00000  Uiso   1.00
C745   C     0.88164   0.24833   0.55672   0.00000  Uiso   1.00
C746   C     0.80655   0.21381   0.94408   0.00000  Uiso   1.00
C747   C     0.83408   0.24750   0.52656   0.00000  Uiso   1.00
C748   C     0.83280   0.24751   0.97325   0.00000  Uiso   1.00
C749   C     0.73429   0.24743   0.73864   0.00000  Uiso   1.00
C750   C     0.93243   0.25235   0.76145   0.00000  Uiso   1.00
C751   C     0.68087   0.23747   0.73618   0.00000  Uiso   1.00
C752   C     0.98604   0.26173   0.76451   0.00000  Uiso   1.00
C753   C     0.86479   0.04860   0.79527   0.00000  Uiso   1.00
C754   C     0.81786   0.45370   0.70672   0.00000  Uiso   1.00
C755   C     0.85911   0.09479   0.79352   0.00000  Uiso   1.00
C756   C     0.81862   0.40720   0.70775   0.00000  Uiso   1.00
C757   C     0.85112   0.11638   0.74987   0.00000  Uiso   1.00
C758   C     0.82319   0.38477   0.75093   0.00000  Uiso   1.00
C759   C     0.85993   0.09202   0.70821   0.00000  Uiso   1.00
C760   C     0.81880   0.40959   0.79316   0.00000  Uiso   1.00
C761   C     0.86318   0.04565   0.71092   0.00000  Uiso   1.00
C762   C     0.82214   0.45594   0.79151   0.00000  Uiso   1.00
C763   C     0.85406   0.02382   0.75248   0.00000  Uiso   1.00
C764   C     0.83163   0.47756   0.74983   0.00000  Uiso   1.00
H765   H     0.86301   0.11390   0.82634   0.00000  Uiso   1.00
H766   H     0.81311   0.38858   0.67463   0.00000  Uiso   1.00
H767   H     0.87078   0.02664   0.67998   0.00000  Uiso   1.00
H768   H     0.81741   0.47490   0.82316   0.00000  Uiso   1.00
H769   H     0.74956   0.24695   0.52628   0.00000  Uiso   1.00
H770   H     0.87916   0.30839   0.97192   0.00000  Uiso   1.00
H771   H     0.75074   0.24304   0.61261   0.00000  Uiso   1.00
H772   H     0.88240   0.30713   0.88548   0.00000  Uiso   1.00
N773   N     0.83333   0.24999   0.62624   0.00000  Uiso   1.00
N774   N     0.83333   0.25001   0.87377   0.00000  Uiso   1.00
O775   O     0.83334   0.18453   0.78974   0.00000  Uiso   1.00
O776   O     0.83333   0.31547   0.71026   0.00000  Uiso   1.00
O777   O     0.83334   0.18453   0.71026   0.00000  Uiso   1.00
O778   O     0.83333   0.31547   0.78974   0.00000  Uiso   1.00
O779   O     0.75725   0.25000   0.78045   0.00000  Uiso   1.00
O780   O     0.90942   0.25000   0.71956   0.00000  Uiso   1.00
O781   O     0.75725   0.25000   0.70097   0.00000  Uiso   1.00
O782   O     0.90942   0.25000   0.79904   0.00000  Uiso   1.00
Zn783  Zn    0.83333   0.25000   0.80307   0.00000  Uiso   1.00
Zn784  Zn    0.83333   0.24999   0.69693   0.00000  Uiso   1.00
C785   C     0.99800   0.19291   0.71457   0.00000  Uiso   1.00
O786   O     0.96846   0.16830   0.73368   0.00000  Uiso   1.00
O787   O     0.68615   0.17809   0.67396   0.00000  Uiso   1.00
H788   H     0.67343   0.14699   0.66332   0.00000  Uiso   1.00
C789   C     0.66968   0.30529   0.78806   0.00000  Uiso   1.00
O790   O     0.69882   0.33080   0.76962   0.00000  Uiso   1.00
O791   O     0.98315   0.31794   0.83018   0.00000  Uiso   1.00
H792   H     0.99639   0.34849   0.84224   0.00000  Uiso   1.00
S793   S     0.89961   0.02690   0.84740   0.00000  Uiso   1.00
O794   O     0.92383   0.48243   0.83747   0.00000  Uiso   1.00
O795   O     0.94265   0.05917   0.86520   0.00000  Uiso   1.00
O796   O     0.85910   0.02090   0.88980   0.00000  Uiso   1.00
H797   H     0.84346   0.05092   0.89325   0.00000  Uiso   1.00
S798   S     0.78434   0.47774   0.65519   0.00000  Uiso   1.00
O799   O     0.82122   0.48257   0.61776   0.00000  Uiso   1.00
O800   O     0.74009   0.44703   0.63645   0.00000  Uiso   1.00
O801   O     0.75909   0.02795   0.66765   0.00000  Uiso   1.00
H802   H     0.74319   0.03929   0.63683   0.00000  Uiso   1.00
C803   C     0.86512   0.11200   0.66128   0.00000  Uiso   1.00
O804   O     0.89457   0.14382   0.65755   0.00000  Uiso   1.00
O805   O     0.83857   0.09228   0.62074   0.00000  Uiso   1.00
H806   H     0.84659   0.10766   0.59069   0.00000  Uiso   1.00
C807   C     0.81127   0.38977   0.83962   0.00000  Uiso   1.00
O808   O     0.77627   0.36237   0.84299   0.00000  Uiso   1.00
O809   O     0.84264   0.40446   0.88011   0.00000  Uiso   1.00
H810   H     0.83346   0.38908   0.90982   0.00000  Uiso   1.00
C811   C     0.92362   0.27983   0.63335   0.00000  Uiso   1.00
O812   O     0.96796   0.26465   0.63669   0.00000  Uiso   1.00
O813   O     0.91427   0.32105   0.65465   0.00000  Uiso   1.00
H814   H     0.94706   0.33451   0.67250   0.00000  Uiso   1.00
C815   C     0.76266   0.19315   0.86432   0.00000  Uiso   1.00
O816   O     0.71900   0.20949   0.85670   0.00000  Uiso   1.00
O817   O     0.77217   0.15008   0.84759   0.00000  Uiso   1.00
H818   H     0.74041   0.13646   0.82825   0.00000  Uiso   1.00
S819   S     0.94295   0.23798   0.53395   0.00000  Uiso   1.00
O820   O     0.97143   0.28189   0.53076   0.00000  Uiso   1.00
O821   O     0.97578   0.20747   0.56661   0.00000  Uiso   1.00
O822   O     0.93515   0.21287   0.98034   0.00000  Uiso   1.00
H823   H     0.96340   0.22522   0.96294   0.00000  Uiso   1.00
S824   S     0.77886   0.16539   0.96887   0.00000  Uiso   1.00
O825   O     0.80424   0.15641   0.51790   0.00000  Uiso   1.00
O826   O     0.72116   0.17280   0.97057   0.00000  Uiso   1.00
O827   O     0.78734   0.11966   0.93551   0.00000  Uiso   1.00
H828   H     0.76660   0.09568   0.94884   0.00000  Uiso   1.00
C829   C     0.17136   0.66392   0.74992   0.00000  Uiso   1.00
C830   C     0.16357   0.83632   0.75022   0.00000  Uiso   1.00
C831   C     0.12023   0.74743   0.54794   0.00000  Uiso   1.00
C832   C     0.19210   0.78191   0.95095   0.00000  Uiso   1.00
C833   C     0.12083   0.74584   0.59744   0.00000  Uiso   1.00
C834   C     0.19377   0.78148   0.90162   0.00000  Uiso   1.00
C835   C     0.21290   0.75583   0.60615   0.00000  Uiso   1.00
C836   C     0.13709   0.71825   0.89404   0.00000  Uiso   1.00
C837   C     0.21497   0.74833   0.55672   0.00000  Uiso   1.00
C838   C     0.13989   0.71381   0.94408   0.00000  Uiso   1.00
C839   C     0.16741   0.74750   0.52656   0.00000  Uiso   1.00
C840   C     0.16613   0.74751   0.97325   0.00000  Uiso   1.00
C841   C     0.06762   0.74743   0.73864   0.00000  Uiso   1.00
C842   C     0.26576   0.75235   0.76145   0.00000  Uiso   1.00
C843   C     0.01420   0.73747   0.73618   0.00000  Uiso   1.00
C844   C     0.31937   0.76173   0.76451   0.00000  Uiso   1.00
C845   C     0.19813   0.54860   0.79527   0.00000  Uiso   1.00
C846   C     0.15119   0.95370   0.70672   0.00000  Uiso   1.00
C847   C     0.19245   0.59479   0.79352   0.00000  Uiso   1.00
C848   C     0.15195   0.90720   0.70775   0.00000  Uiso   1.00
C849   C     0.18446   0.61638   0.74987   0.00000  Uiso   1.00
C850   C     0.15653   0.88477   0.75093   0.00000  Uiso   1.00
C851   C     0.19326   0.59202   0.70821   0.00000  Uiso   1.00
C852   C     0.15214   0.90959   0.79316   0.00000  Uiso   1.00
C853   C     0.19652   0.54565   0.71092   0.00000  Uiso   1.00
C854   C     0.15547   0.95594   0.79151   0.00000  Uiso   1.00
C855   C     0.18739   0.52382   0.75248   0.00000  Uiso   1.00
C856   C     0.16496   0.97756   0.74983   0.00000  Uiso   1.00
H857   H     0.19634   0.61390   0.82634   0.00000  Uiso   1.00
H858   H     0.14644   0.88858   0.67463   0.00000  Uiso   1.00
H859   H     0.20412   0.52664   0.67998   0.00000  Uiso   1.00
H860   H     0.15074   0.97490   0.82316   0.00000  Uiso   1.00
H861   H     0.08289   0.74695   0.52628   0.00000  Uiso   1.00
H862   H     0.21250   0.80839   0.97192   0.00000  Uiso   1.00
H863   H     0.08407   0.74304   0.61261   0.00000  Uiso   1.00
H864   H     0.21573   0.80713   0.88548   0.00000  Uiso   1.00
N865   N     0.16667   0.74999   0.62624   0.00000  Uiso   1.00
N866   N     0.16667   0.75001   0.87377   0.00000  Uiso   1.00
O867   O     0.16667   0.68453   0.78974   0.00000  Uiso   1.00
O868   O     0.16666   0.81547   0.71026   0.00000  Uiso   1.00
O869   O     0.16667   0.68453   0.71026   0.00000  Uiso   1.00
O870   O     0.16666   0.81547   0.78974   0.00000  Uiso   1.00
O871   O     0.09058   0.75000   0.78045   0.00000  Uiso   1.00
O872   O     0.24275   0.75000   0.71956   0.00000  Uiso   1.00
O873   O     0.09058   0.75000   0.70097   0.00000  Uiso   1.00
O874   O     0.24275   0.75000   0.79904   0.00000  Uiso   1.00
Zn875  Zn    0.16667   0.75000   0.80307   0.00000  Uiso   1.00
Zn876  Zn    0.16667   0.74999   0.69693   0.00000  Uiso   1.00
C877   C     0.33133   0.69291   0.71457   0.00000  Uiso   1.00
O878   O     0.30180   0.66830   0.73368   0.00000  Uiso   1.00
O879   O     0.01949   0.67809   0.67396   0.00000  Uiso   1.00
H880   H     0.00677   0.64699   0.66332   0.00000  Uiso   1.00
C881   C     0.00301   0.80529   0.78806   0.00000  Uiso   1.00
O882   O     0.03216   0.83080   0.76962   0.00000  Uiso   1.00
O883   O     0.31648   0.81794   0.83018   0.00000  Uiso   1.00
H884   H     0.32972   0.84849   0.84224   0.00000  Uiso   1.00
S885   S     0.23295   0.52690   0.84740   0.00000  Uiso   1.00
O886   O     0.25716   0.98243   0.83747   0.00000  Uiso   1.00
O887   O     0.27598   0.55917   0.86520   0.00000  Uiso   1.00
O888   O     0.19243   0.52090   0.88980   0.00000  Uiso   1.00
H889   H     0.17680   0.55092   0.89325   0.00000  Uiso   1.00
S890   S     0.11767   0.97774   0.65519   0.00000  Uiso   1.00
O891   O     0.15455   0.98257   0.61776   0.00000  Uiso   1.00
O892   O     0.07343   0.94703   0.63645   0.00000  Uiso   1.00
O893   O     0.09243   0.52795   0.66765   0.00000  Uiso   1.00
H894   H     0.07653   0.53929   0.63683   0.00000  Uiso   1.00
C895   C     0.19845   0.61200   0.66128   0.00000  Uiso   1.00
O896   O     0.22790   0.64382   0.65755   0.00000  Uiso   1.00
O897   O     0.17190   0.59228   0.62074   0.00000  Uiso   1.00
H898   H     0.17993   0.60766   0.59069   0.00000  Uiso   1.00
C899   C     0.14460   0.88977   0.83962   0.00000  Uiso   1.00
O900   O     0.10960   0.86237   0.84299   0.00000  Uiso   1.00
O901   O     0.17598   0.90446   0.88011   0.00000  Uiso   1.00
H902   H     0.16680   0.88908   0.90982   0.00000  Uiso   1.00
C903   C     0.25695   0.77983   0.63335   0.00000  Uiso   1.00
O904   O     0.30129   0.76465   0.63669   0.00000  Uiso   1.00
O905   O     0.24760   0.82105   0.65465   0.00000  Uiso   1.00
H906   H     0.28039   0.83451   0.67250   0.00000  Uiso   1.00
C907   C     0.09599   0.69315   0.86432   0.00000  Uiso   1.00
O908   O     0.05233   0.70949   0.85670   0.00000  Uiso   1.00
O909   O     0.10550   0.65008   0.84759   0.00000  Uiso   1.00
H910   H     0.07375   0.63646   0.82825   0.00000  Uiso   1.00
S911   S     0.27628   0.73798   0.53395   0.00000  Uiso   1.00
O912   O     0.30476   0.78189   0.53076   0.00000  Uiso   1.00
O913   O     0.30911   0.70747   0.56661   0.00000  Uiso   1.00
O914   O     0.26849   0.71287   0.98034   0.00000  Uiso   1.00
H915   H     0.29673   0.72522   0.96294   0.00000  Uiso   1.00
S916   S     0.11220   0.66539   0.96887   0.00000  Uiso   1.00
O917   O     0.13757   0.65641   0.51790   0.00000  Uiso   1.00
O918   O     0.05450   0.67280   0.97057   0.00000  Uiso   1.00
O919   O     0.12067   0.61966   0.93551   0.00000  Uiso   1.00
H920   H     0.09994   0.59568   0.94884   0.00000  Uiso   1.00
C921   C     0.50469   0.66392   0.74992   0.00000  Uiso   1.00
C922   C     0.49690   0.83632   0.75022   0.00000  Uiso   1.00
C923   C     0.45357   0.74743   0.54794   0.00000  Uiso   1.00
C924   C     0.52543   0.78191   0.95095   0.00000  Uiso   1.00
C925   C     0.45417   0.74584   0.59744   0.00000  Uiso   1.00
C926   C     0.52710   0.78148   0.90162   0.00000  Uiso   1.00
C927   C     0.54624   0.75583   0.60615   0.00000  Uiso   1.00
C928   C     0.47042   0.71825   0.89404   0.00000  Uiso   1.00
C929   C     0.54830   0.74833   0.55672   0.00000  Uiso   1.00
C930   C     0.47322   0.71381   0.94408   0.00000  Uiso   1.00
C931   C     0.50074   0.74750   0.52656   0.00000  Uiso   1.00
C932   C     0.49946   0.74751   0.97325   0.00000  Uiso   1.00
C933   C     0.40096   0.74743   0.73864   0.00000  Uiso   1.00
C934   C     0.59910   0.75235   0.76145   0.00000  Uiso   1.00
C935   C     0.34753   0.73747   0.73618   0.00000  Uiso   1.00
C936   C     0.65271   0.76173   0.76451   0.00000  Uiso   1.00
C937   C     0.53146   0.54860   0.79527   0.00000  Uiso   1.00
C938   C     0.48452   0.95370   0.70672   0.00000  Uiso   1.00
C939   C     0.52578   0.59479   0.79352   0.00000  Uiso   1.00
C940   C     0.48528   0.90720   0.70775   0.00000  Uiso   1.00
C941   C     0.51779   0.61638   0.74987   0.00000  Uiso   1.00
C942   C     0.48986   0.88477   0.75093   0.00000  Uiso   1.00
C943   C     0.52660   0.59202   0.70821   0.00000  Uiso   1.00
C944   C     0.48547   0.90959   0.79316   0.00000  Uiso   1.00
C945   C     0.52985   0.54565   0.71092   0.00000  Uiso   1.00
C946   C     0.48880   0.95594   0.79151   0.00000  Uiso   1.00
C947   C     0.52072   0.52382   0.75248   0.00000  Uiso   1.00
C948   C     0.49830   0.97756   0.74983   0.00000  Uiso   1.00
H949   H     0.52967   0.61390   0.82634   0.00000  Uiso   1.00
H950   H     0.47978   0.88858   0.67463   0.00000  Uiso   1.00
H951   H     0.53745   0.52664   0.67998   0.00000  Uiso   1.00
H952   H     0.48407   0.97490   0.82316   0.00000  Uiso   1.00
H953   H     0.41622   0.74695   0.52628   0.00000  Uiso   1.00
H954   H     0.54583   0.80839   0.97192   0.00000  Uiso   1.00
H955   H     0.41740   0.74304   0.61261   0.00000  Uiso   1.00
H956   H     0.54907   0.80713   0.88548   0.00000  Uiso   1.00
N957   N     0.50000   0.74999   0.62624   0.00000  Uiso   1.00
N958   N     0.50000   0.75001   0.87377   0.00000  Uiso   1.00
O959   O     0.50000   0.68453   0.78974   0.00000  Uiso   1.00
O960   O     0.50000   0.81547   0.71026   0.00000  Uiso   1.00
O961   O     0.50000   0.68453   0.71026   0.00000  Uiso   1.00
O962   O     0.50000   0.81547   0.78974   0.00000  Uiso   1.00
O963   O     0.42392   0.75000   0.78045   0.00000  Uiso   1.00
O964   O     0.57608   0.75000   0.71956   0.00000  Uiso   1.00
O965   O     0.42392   0.75000   0.70097   0.00000  Uiso   1.00
O966   O     0.57608   0.75000   0.79904   0.00000  Uiso   1.00
Zn967  Zn    0.50000   0.75000   0.80307   0.00000  Uiso   1.00
Zn968  Zn    0.50000   0.74999   0.69693   0.00000  Uiso   1.00
C969   C     0.66467   0.69291   0.71457   0.00000  Uiso   1.00
O970   O     0.63513   0.66830   0.73368   0.00000  Uiso   1.00
O971   O     0.35282   0.67809   0.67396   0.00000  Uiso   1.00
H972   H     0.34010   0.64699   0.66332   0.00000  Uiso   1.00
C973   C     0.33635   0.80529   0.78806   0.00000  Uiso   1.00
O974   O     0.36549   0.83080   0.76962   0.00000  Uiso   1.00
O975   O     0.64982   0.81794   0.83018   0.00000  Uiso   1.00
H976   H     0.66306   0.84849   0.84224   0.00000  Uiso   1.00
S977   S     0.56628   0.52690   0.84740   0.00000  Uiso   1.00
O978   O     0.59049   0.98243   0.83747   0.00000  Uiso   1.00
O979   O     0.60931   0.55917   0.86520   0.00000  Uiso   1.00
O980   O     0.52577   0.52090   0.88980   0.00000  Uiso   1.00
H981   H     0.51013   0.55092   0.89325   0.00000  Uiso   1.00
S982   S     0.45100   0.97774   0.65519   0.00000  Uiso   1.00
O983   O     0.48788   0.98257   0.61776   0.00000  Uiso   1.00
O984   O     0.40676   0.94703   0.63645   0.00000  Uiso   1.00
O985   O     0.42576   0.52795   0.66765   0.00000  Uiso   1.00
H986   H     0.40986   0.53929   0.63683   0.00000  Uiso   1.00
C987   C     0.53178   0.61200   0.66128   0.00000  Uiso   1.00
O988   O     0.56124   0.64382   0.65755   0.00000  Uiso   1.00
O989   O     0.50524   0.59228   0.62074   0.00000  Uiso   1.00
H990   H     0.51326   0.60766   0.59069   0.00000  Uiso   1.00
C991   C     0.47793   0.88977   0.83962   0.00000  Uiso   1.00
O992   O     0.44294   0.86237   0.84299   0.00000  Uiso   1.00
O993   O     0.50931   0.90446   0.88011   0.00000  Uiso   1.00
H994   H     0.50013   0.88908   0.90982   0.00000  Uiso   1.00
C995   C     0.59028   0.77983   0.63335   0.00000  Uiso   1.00
O996   O     0.63462   0.76465   0.63669   0.00000  Uiso   1.00
O997   O     0.58094   0.82105   0.65465   0.00000  Uiso   1.00
H998   H     0.61372   0.83451   0.67250   0.00000  Uiso   1.00
C999   C     0.42932   0.69315   0.86432   0.00000  Uiso   1.00
O1000  O     0.38566   0.70949   0.85670   0.00000  Uiso   1.00
O1001  O     0.43884   0.65008   0.84759   0.00000  Uiso   1.00
H1002  H     0.40708   0.63646   0.82825   0.00000  Uiso   1.00
S1003  S     0.60961   0.73798   0.53395   0.00000  Uiso   1.00
O1004  O     0.63809   0.78189   0.53076   0.00000  Uiso   1.00
O1005  O     0.64244   0.70747   0.56661   0.00000  Uiso   1.00
O1006  O     0.60182   0.71287   0.98034   0.00000  Uiso   1.00
H1007  H     0.63006   0.72522   0.96294   0.00000  Uiso   1.00
S1008  S     0.44553   0.66539   0.96887   0.00000  Uiso   1.00
O1009  O     0.47091   0.65641   0.51790   0.00000  Uiso   1.00
O1010  O     0.38783   0.67280   0.97057   0.00000  Uiso   1.00
O1011  O     0.45400   0.61966   0.93551   0.00000  Uiso   1.00
H1012  H     0.43327   0.59568   0.94884   0.00000  Uiso   1.00
C1013  C     0.83803   0.66392   0.74992   0.00000  Uiso   1.00
C1014  C     0.83023   0.83632   0.75022   0.00000  Uiso   1.00
C1015  C     0.78690   0.74743   0.54794   0.00000  Uiso   1.00
C1016  C     0.85876   0.78191   0.95095   0.00000  Uiso   1.00
C1017  C     0.78750   0.74584   0.59744   0.00000  Uiso   1.00
C1018  C     0.86044   0.78148   0.90162   0.00000  Uiso   1.00
C1019  C     0.87957   0.75583   0.60615   0.00000  Uiso   1.00
C1020  C     0.80376   0.71825   0.89404   0.00000  Uiso   1.00
C1021  C     0.88164   0.74833   0.55672   0.00000  Uiso   1.00
C1022  C     0.80655   0.71381   0.94408   0.00000  Uiso   1.00
C1023  C     0.83408   0.74750   0.52656   0.00000  Uiso   1.00
C1024  C     0.83280   0.74751   0.97325   0.00000  Uiso   1.00
C1025  C     0.73429   0.74743   0.73864   0.00000  Uiso   1.00
C1026  C     0.93243   0.75235   0.76145   0.00000  Uiso   1.00
C1027  C     0.68087   0.73747   0.73618   0.00000  Uiso   1.00
C1028  C     0.98604   0.76173   0.76451   0.00000  Uiso   1.00
C1029  C     0.86479   0.54860   0.79527   0.00000  Uiso   1.00
C1030  C     0.81786   0.95370   0.70672   0.00000  Uiso   1.00
C1031  C     0.85911   0.59479   0.79352   0.00000  Uiso   1.00
C1032  C     0.81862   0.90720   0.70775   0.00000  Uiso   1.00
C1033  C     0.85112   0.61638   0.74987   0.00000  Uiso   1.00
C1034  C     0.82319   0.88477   0.75093   0.00000  Uiso   1.00
C1035  C     0.85993   0.59202   0.70821   0.00000  Uiso   1.00
C1036  C     0.81880   0.90959   0.79316   0.00000  Uiso   1.00
C1037  C     0.86318   0.54565   0.71092   0.00000  Uiso   1.00
C1038  C     0.82214   0.95594   0.79151   0.00000  Uiso   1.00
C1039  C     0.85406   0.52382   0.75248   0.00000  Uiso   1.00
C1040  C     0.83163   0.97756   0.74983   0.00000  Uiso   1.00
H1041  H     0.86301   0.61390   0.82634   0.00000  Uiso   1.00
H1042  H     0.81311   0.88858   0.67463   0.00000  Uiso   1.00
H1043  H     0.87078   0.52664   0.67998   0.00000  Uiso   1.00
H1044  H     0.81741   0.97490   0.82316   0.00000  Uiso   1.00
H1045  H     0.74956   0.74695   0.52628   0.00000  Uiso   1.00
H1046  H     0.87916   0.80839   0.97192   0.00000  Uiso   1.00
H1047  H     0.75074   0.74304   0.61261   0.00000  Uiso   1.00
H1048  H     0.88240   0.80713   0.88548   0.00000  Uiso   1.00
N1049  N     0.83333   0.74999   0.62624   0.00000  Uiso   1.00
N1050  N     0.83333   0.75001   0.87377   0.00000  Uiso   1.00
O1051  O     0.83334   0.68453   0.78974   0.00000  Uiso   1.00
O1052  O     0.83333   0.81547   0.71026   0.00000  Uiso   1.00
O1053  O     0.83334   0.68453   0.71026   0.00000  Uiso   1.00
O1054  O     0.83333   0.81547   0.78974   0.00000  Uiso   1.00
O1055  O     0.75725   0.75000   0.78045   0.00000  Uiso   1.00
O1056  O     0.90942   0.75000   0.71956   0.00000  Uiso   1.00
O1057  O     0.75725   0.75000   0.70097   0.00000  Uiso   1.00
O1058  O     0.90942   0.75000   0.79904   0.00000  Uiso   1.00
Zn1059 Zn    0.83333   0.75000   0.80307   0.00000  Uiso   1.00
Zn1060 Zn    0.83333   0.74999   0.69693   0.00000  Uiso   1.00
C1061  C     0.99800   0.69291   0.71457   0.00000  Uiso   1.00
O1062  O     0.96846   0.66830   0.73368   0.00000  Uiso   1.00
O1063  O     0.68615   0.67809   0.67396   0.00000  Uiso   1.00
H1064  H     0.67343   0.64699   0.66332   0.00000  Uiso   1.00
C1065  C     0.66968   0.80529   0.78806   0.00000  Uiso   1.00
O1066  O     0.69882   0.83080   0.76962   0.00000  Uiso   1.00
O1067  O     0.98315   0.81794   0.83018   0.00000  Uiso   1.00
H1068  H     0.99639   0.84849   0.84224   0.00000  Uiso   1.00
S1069  S     0.89961   0.52690   0.84740   0.00000  Uiso   1.00
O1070  O     0.92383   0.98243   0.83747   0.00000  Uiso   1.00
O1071  O     0.94265   0.55917   0.86520   0.00000  Uiso   1.00
O1072  O     0.85910   0.52090   0.88980   0.00000  Uiso   1.00
H1073  H     0.84346   0.55092   0.89325   0.00000  Uiso   1.00
S1074  S     0.78434   0.97774   0.65519   0.00000  Uiso   1.00
O1075  O     0.82122   0.98257   0.61776   0.00000  Uiso   1.00
O1076  O     0.74009   0.94703   0.63645   0.00000  Uiso   1.00
O1077  O     0.75909   0.52795   0.66765   0.00000  Uiso   1.00
H1078  H     0.74319   0.53929   0.63683   0.00000  Uiso   1.00
C1079  C     0.86512   0.61200   0.66128   0.00000  Uiso   1.00
O1080  O     0.89457   0.64382   0.65755   0.00000  Uiso   1.00
O1081  O     0.83857   0.59228   0.62074   0.00000  Uiso   1.00
H1082  H     0.84659   0.60766   0.59069   0.00000  Uiso   1.00
C1083  C     0.81127   0.88977   0.83962   0.00000  Uiso   1.00
O1084  O     0.77627   0.86237   0.84299   0.00000  Uiso   1.00
O1085  O     0.84264   0.90446   0.88011   0.00000  Uiso   1.00
H1086  H     0.83346   0.88908   0.90982   0.00000  Uiso   1.00
C1087  C     0.92362   0.77983   0.63335   0.00000  Uiso   1.00
O1088  O     0.96796   0.76465   0.63669   0.00000  Uiso   1.00
O1089  O     0.91427   0.82105   0.65465   0.00000  Uiso   1.00
H1090  H     0.94706   0.83451   0.67250   0.00000  Uiso   1.00
C1091  C     0.76266   0.69315   0.86432   0.00000  Uiso   1.00
O1092  O     0.71900   0.70949   0.85670   0.00000  Uiso   1.00
O1093  O     0.77217   0.65008   0.84759   0.00000  Uiso   1.00
H1094  H     0.74041   0.63646   0.82825   0.00000  Uiso   1.00
S1095  S     0.94295   0.73798   0.53395   0.00000  Uiso   1.00
O1096  O     0.97143   0.78189   0.53076   0.00000  Uiso   1.00
O1097  O     0.97578   0.70747   0.56661   0.00000  Uiso   1.00
O1098  O     0.93515   0.71287   0.98034   0.00000  Uiso   1.00
H1099  H     0.96340   0.72522   0.96294   0.00000  Uiso   1.00
S1100  S     0.77886   0.66539   0.96887   0.00000  Uiso   1.00
O1101  O     0.80424   0.65641   0.51790   0.00000  Uiso   1.00
O1102  O     0.72116   0.67280   0.97057   0.00000  Uiso   1.00
O1103  O     0.78734   0.61966   0.93551   0.00000  Uiso   1.00
H1104  H     0.76660   0.59568   0.94884   0.00000  Uiso   1.00
loop_
_geom_bond_atom_site_label_1
_geom_bond_atom_site_label_2
_geom_bond_distance
_geom_bond_site_symmetry_2
_ccdc_geom_bond_type
C1     C21     1.458   .     S
C1     O41     1.284   .     A
C1     O39     1.299   .     A
C2     C22     1.457   .     S
C2     O42     1.285   .     A
C2     O40     1.299   .     A
C3     H33     1.083   .     S
C3     C5      1.407   .     A
C3     C11     1.410   .     A
C4     C12     1.412   .     A
C4     H34     1.083   .     S
C4     C6      1.407   .     A
C5     N37     1.364   .     A
C5     H35     1.080   .     S
C6     N38     1.361   .     A
C6     H36     1.082   .     S
C7     C75     1.477   .     S
C7     N37     1.380   .     A
C7     C9      1.427   .     A
C8     C79     1.475   .     S
C8     N38     1.378   .     A
C8     C10     1.424   .     A
C9     C11     1.415   .     A
C9     S83     1.789   .     S
C10    S88     1.789   .     S
C10    C12     1.417   .     A
C11    C564    1.512   1_554 S
C12    C563    1.512   .     S
C13    C15     1.395   .     S
C13    O43     1.271   .     A
C13    O45     1.278   .     A
C14    O46     1.276   .     A
C14    C16     1.395   .     S
C14    O44     1.274   .     A
C15    C200    1.345   1_455 S
C15    C233    1.496   1_455 S
C16    C107    1.345   .     S
C16    C145    1.496   .     S
C17    C27     1.418   .     A
C17    C19     1.386   .     A
C17    S57     1.777   .     S
C18    C20     1.387   .     A
C18    C28     1.422   .     A
C18    S62     1.778   .     S
C19    C21     1.400   .     A
C19    H29     1.083   .     S
C20    H30     1.084   .     S
C20    C22     1.398   .     A
C21    C23     1.422   .     A
C22    C24     1.418   .     A
C23    C67     1.485   .     S
C23    C25     1.388   .     A
C24    C26     1.385   .     A
C24    C71     1.483   .     S
C25    H31     1.077   .     S
C25    C27     1.395   .     A
C26    H32     1.076   .     S
C26    C28     1.398   .     A
C27    C304    1.489   1_545 S
C28    C303    1.489   .     S
N37    Zn48    2.010   .     S
N38    Zn47    2.010   .     S
O39    Zn47    1.984   .     S
O40    Zn48    1.984   .     S
O41    Zn48    1.992   .     S
O42    Zn47    1.992   .     S
O43    Zn47    1.989   .     S
O44    Zn48    1.989   .     S
O45    Zn48    1.966   .     S
O46    Zn47    1.966   .     S
C49    O50     1.223   .     D
C49    C107    1.496   .     S
C49    O143    1.399   .     S
O51    H52     1.014   .     S
O51    C233    1.399   1_455 S
C53    O54     1.223   .     D
C53    C200    1.496   1_455 S
C53    O239    1.398   1_455 S
O55    H56     1.014   .     S
O55    C145    1.398   .     S
S57    O59     1.504   .     D
S57    O60     1.682   .     S
S57    O334    1.503   1_545 S
O58    S333    1.503   .     S
O60    H61     0.990   .     S
S62    O64     1.504   .     D
S62    O63     1.503   .     D
S62    O341    1.682   .     S
O65    H66     0.990   .     S
O65    S338    1.682   1_545 S
C67    O68     1.222   .     D
C67    O69     1.398   .     S
O69    H70     1.013   .     S
C71    O72     1.222   .     D
C71    O73     1.398   .     S
O73    H74     1.014   .     S
C75    O76     1.220   .     D
C75    O77     1.397   .     S
O77    H78     1.014   .     S
C79    O81     1.396   .     S
C79    O80     1.222   .     D
O81    H82     1.014   .     S
S83    O84     1.504   .     D
S83    O85     1.503   .     D
S83    O638    1.683   1_554 S
O86    H87     0.990   .     S
O86    S635    1.683   .     S
S88    O91     1.680   .     S
S88    O90     1.503   .     D
S88    O641    1.502   .     S
O89    S640    1.502   1_554 S
O91    H92     0.991   .     S
C93    C113    1.458   .     S
C93    O133    1.284   .     A
C93    O131    1.299   .     A
C94    C114    1.457   .     S
C94    O134    1.285   .     A
C94    O132    1.299   .     A
C95    H125    1.083   .     S
C95    C97     1.407   .     A
C95    C103    1.410   .     A
C96    C104    1.412   .     A
C96    H126    1.083   .     S
C96    C98     1.407   .     A
C97    N129    1.364   .     A
C97    H127    1.080   .     S
C98    N130    1.361   .     A
C98    H128    1.082   .     S
C99    C167    1.477   .     S
C99    N129    1.380   .     A
C99    C101    1.427   .     A
C100   C171    1.475   .     S
C100   N130    1.378   .     A
C100   C102    1.424   .     A
C101   C103    1.415   .     A
C101   S175    1.789   .     S
C102   S180    1.789   .     S
C102   C104    1.417   .     A
C103   C656    1.512   1_554 S
C104   C655    1.512   .     S
C105   C107    1.395   .     S
C105   O135    1.271   .     A
C105   O137    1.278   .     A
C106   O138    1.276   .     A
C106   C108    1.395   .     S
C106   O136    1.274   .     A
C108   C199    1.345   .     S
C108   C237    1.496   .     S
C109   C119    1.418   .     A
C109   C111    1.386   .     A
C109   S149    1.777   .     S
C110   C112    1.387   .     A
C110   C120    1.422   .     A
C110   S154    1.778   .     S
C111   C113    1.400   .     A
C111   H121    1.083   .     S
C112   H122    1.084   .     S
C112   C114    1.398   .     A
C113   C115    1.422   .     A
C114   C116    1.418   .     A
C115   C159    1.485   .     S
C115   C117    1.388   .     A
C116   C118    1.385   .     A
C116   C163    1.483   .     S
C117   H123    1.077   .     S
C117   C119    1.395   .     A
C118   H124    1.076   .     S
C118   C120    1.398   .     A
C119   C396    1.489   1_545 S
C120   C395    1.489   .     S
N129   Zn140   2.010   .     S
N130   Zn139   2.010   .     S
O131   Zn139   1.984   .     S
O132   Zn140   1.984   .     S
O133   Zn140   1.992   .     S
O134   Zn139   1.992   .     S
O135   Zn139   1.989   .     S
O136   Zn140   1.989   .     S
O137   Zn140   1.966   .     S
O138   Zn139   1.966   .     S
C141   O142    1.223   .     D
C141   C199    1.496   .     S
C141   O235    1.399   .     S
O143   H144    1.014   .     S
C145   O146    1.223   .     D
O147   H148    1.014   .     S
O147   C237    1.398   .     S
S149   O151    1.504   .     D
S149   O152    1.682   .     S
S149   O426    1.503   1_545 S
O150   S425    1.503   .     S
O152   H153    0.990   .     S
S154   O156    1.504   .     D
S154   O155    1.503   .     D
S154   O433    1.682   .     S
O157   H158    0.990   .     S
O157   S430    1.682   1_545 S
C159   O160    1.222   .     D
C159   O161    1.398   .     S
O161   H162    1.013   .     S
C163   O164    1.222   .     D
C163   O165    1.398   .     S
O165   H166    1.014   .     S
C167   O168    1.220   .     D
C167   O169    1.397   .     S
O169   H170    1.014   .     S
C171   O173    1.396   .     S
C171   O172    1.222   .     D
O173   H174    1.014   .     S
S175   O176    1.504   .     D
S175   O177    1.503   .     D
S175   O730    1.683   1_554 S
O178   H179    0.990   .     S
O178   S727    1.683   .     S
S180   O183    1.680   .     S
S180   O182    1.503   .     D
S180   O733    1.502   .     S
O181   S732    1.502   1_554 S
O183   H184    0.991   .     S
C185   C205    1.458   .     S
C185   O225    1.284   .     A
C185   O223    1.299   .     A
C186   C206    1.457   .     S
C186   O226    1.285   .     A
C186   O224    1.299   .     A
C187   H217    1.083   .     S
C187   C189    1.407   .     A
C187   C195    1.410   .     A
C188   C196    1.412   .     A
C188   H218    1.083   .     S
C188   C190    1.407   .     A
C189   N221    1.364   .     A
C189   H219    1.080   .     S
C190   N222    1.361   .     A
C190   H220    1.082   .     S
C191   C259    1.477   .     S
C191   N221    1.380   .     A
C191   C193    1.427   .     A
C192   C263    1.475   .     S
C192   N222    1.378   .     A
C192   C194    1.424   .     A
C193   C195    1.415   .     A
C193   S267    1.789   .     S
C194   S272    1.789   .     S
C194   C196    1.417   .     A
C195   C748    1.512   1_554 S
C196   C747    1.512   .     S
C197   C199    1.395   .     S
C197   O227    1.271   .     A
C197   O229    1.278   .     A
C198   O230    1.276   .     A
C198   C200    1.395   .     S
C198   O228    1.274   .     A
C200   C15     1.345   1_655 S
C200   C53     1.496   1_655 S
C201   C211    1.418   .     A
C201   C203    1.386   .     A
C201   S241    1.777   .     S
C202   C204    1.387   .     A
C202   C212    1.422   .     A
C202   S246    1.778   .     S
C203   C205    1.400   .     A
C203   H213    1.083   .     S
C204   H214    1.084   .     S
C204   C206    1.398   .     A
C205   C207    1.422   .     A
C206   C208    1.418   .     A
C207   C251    1.485   .     S
C207   C209    1.388   .     A
C208   C210    1.385   .     A
C208   C255    1.483   .     S
C209   H215    1.077   .     S
C209   C211    1.395   .     A
C210   H216    1.076   .     S
C210   C212    1.398   .     A
C211   C488    1.489   1_545 S
C212   C487    1.489   .     S
N221   Zn232   2.010   .     S
N222   Zn231   2.010   .     S
O223   Zn231   1.984   .     S
O224   Zn232   1.984   .     S
O225   Zn232   1.992   .     S
O226   Zn231   1.992   .     S
O227   Zn231   1.989   .     S
O228   Zn232   1.989   .     S
O229   Zn232   1.966   .     S
O230   Zn231   1.966   .     S
C233   O234    1.223   .     D
C233   C15     1.496   1_655 S
C233   O51     1.399   1_655 S
O235   H236    1.014   .     S
C237   O238    1.223   .     D
O239   H240    1.014   .     S
O239   C53     1.398   1_655 S
S241   O243    1.504   .     D
S241   O244    1.682   .     S
S241   O518    1.503   1_545 S
O242   S517    1.503   .     S
O244   H245    0.990   .     S
S246   O248    1.504   .     D
S246   O247    1.503   .     D
S246   O525    1.682   .     S
O249   H250    0.990   .     S
O249   S522    1.682   1_545 S
C251   O252    1.222   .     D
C251   O253    1.398   .     S
O253   H254    1.013   .     S
C255   O256    1.222   .     D
C255   O257    1.398   .     S
O257   H258    1.014   .     S
C259   O260    1.220   .     D
C259   O261    1.397   .     S
O261   H262    1.014   .     S
C263   O265    1.396   .     S
C263   O264    1.222   .     D
O265   H266    1.014   .     S
S267   O268    1.504   .     D
S267   O269    1.503   .     D
S267   O822    1.683   1_554 S
O270   H271    0.990   .     S
O270   S819    1.683   .     S
S272   O275    1.680   .     S
S272   O274    1.503   .     D
S272   O825    1.502   .     S
O273   S824    1.502   1_554 S
O275   H276    0.991   .     S
C277   C297    1.458   .     S
C277   O317    1.284   .     A
C277   O315    1.299   .     A
C278   C298    1.457   .     S
C278   O318    1.285   .     A
C278   O316    1.299   .     A
C279   H309    1.083   .     S
C279   C281    1.407   .     A
C279   C287    1.410   .     A
C280   C288    1.412   .     A
C280   H310    1.083   .     S
C280   C282    1.407   .     A
C281   N313    1.364   .     A
C281   H311    1.080   .     S
C282   N314    1.361   .     A
C282   H312    1.082   .     S
C283   C351    1.477   .     S
C283   N313    1.380   .     A
C283   C285    1.427   .     A
C284   C355    1.475   .     S
C284   N314    1.378   .     A
C284   C286    1.424   .     A
C285   C287    1.415   .     A
C285   S359    1.789   .     S
C286   S364    1.789   .     S
C286   C288    1.417   .     A
C287   C840    1.512   1_554 S
C288   C839    1.512   .     S
C289   C291    1.395   .     S
C289   O319    1.271   .     A
C289   O321    1.278   .     A
C290   O322    1.276   .     A
C290   C292    1.395   .     S
C290   O320    1.274   .     A
C291   C476    1.345   1_455 S
C291   C509    1.496   1_455 S
C292   C383    1.345   .     S
C292   C421    1.496   .     S
C293   C303    1.418   .     A
C293   C295    1.386   .     A
C293   S333    1.777   .     S
C294   C296    1.387   .     A
C294   C304    1.422   .     A
C294   S338    1.778   .     S
C295   C297    1.400   .     A
C295   H305    1.083   .     S
C296   H306    1.084   .     S
C296   C298    1.398   .     A
C297   C299    1.422   .     A
C298   C300    1.418   .     A
C299   C343    1.485   .     S
C299   C301    1.388   .     A
C300   C302    1.385   .     A
C300   C347    1.483   .     S
C301   H307    1.077   .     S
C301   C303    1.395   .     A
C302   H308    1.076   .     S
C302   C304    1.398   .     A
C304   C27     1.489   1_565 S
N313   Zn324   2.010   .     S
N314   Zn323   2.010   .     S
O315   Zn323   1.984   .     S
O316   Zn324   1.984   .     S
O317   Zn324   1.992   .     S
O318   Zn323   1.992   .     S
O319   Zn323   1.989   .     S
O320   Zn324   1.989   .     S
O321   Zn324   1.966   .     S
O322   Zn323   1.966   .     S
C325   O326    1.223   .     D
C325   C383    1.496   .     S
C325   O419    1.399   .     S
O327   H328    1.014   .     S
O327   C509    1.399   1_455 S
C329   O330    1.223   .     D
C329   C476    1.496   1_455 S
C329   O515    1.398   1_455 S
O331   H332    1.014   .     S
O331   C421    1.398   .     S
S333   O335    1.504   .     D
S333   O336    1.682   .     S
O334   S57     1.503   1_565 S
O336   H337    0.990   .     S
S338   O340    1.504   .     D
S338   O339    1.503   .     D
S338   O65     1.682   1_565 S
O341   H342    0.990   .     S
C343   O344    1.222   .     D
C343   O345    1.398   .     S
O345   H346    1.013   .     S
C347   O348    1.222   .     D
C347   O349    1.398   .     S
O349   H350    1.014   .     S
C351   O352    1.220   .     D
C351   O353    1.397   .     S
O353   H354    1.014   .     S
C355   O357    1.396   .     S
C355   O356    1.222   .     D
O357   H358    1.014   .     S
S359   O360    1.504   .     D
S359   O361    1.503   .     D
S359   O914    1.683   1_554 S
O362   H363    0.990   .     S
O362   S911    1.683   .     S
S364   O367    1.680   .     S
S364   O366    1.503   .     D
S364   O917    1.502   .     S
O365   S916    1.502   1_554 S
O367   H368    0.991   .     S
C369   C389    1.458   .     S
C369   O409    1.284   .     A
C369   O407    1.299   .     A
C370   C390    1.457   .     S
C370   O410    1.285   .     A
C370   O408    1.299   .     A
C371   H401    1.083   .     S
C371   C373    1.407   .     A
C371   C379    1.410   .     A
C372   C380    1.412   .     A
C372   H402    1.083   .     S
C372   C374    1.407   .     A
C373   N405    1.364   .     A
C373   H403    1.080   .     S
C374   N406    1.361   .     A
C374   H404    1.082   .     S
C375   C443    1.477   .     S
C375   N405    1.380   .     A
C375   C377    1.427   .     A
C376   C447    1.475   .     S
C376   N406    1.378   .     A
C376   C378    1.424   .     A
C377   C379    1.415   .     A
C377   S451    1.789   .     S
C378   S456    1.789   .     S
C378   C380    1.417   .     A
C379   C932    1.512   1_554 S
C380   C931    1.512   .     S
C381   C383    1.395   .     S
C381   O411    1.271   .     A
C381   O413    1.278   .     A
C382   O414    1.276   .     A
C382   C384    1.395   .     S
C382   O412    1.274   .     A
C384   C475    1.345   .     S
C384   C513    1.496   .     S
C385   C395    1.418   .     A
C385   C387    1.386   .     A
C385   S425    1.777   .     S
C386   C388    1.387   .     A
C386   C396    1.422   .     A
C386   S430    1.778   .     S
C387   C389    1.400   .     A
C387   H397    1.083   .     S
C388   H398    1.084   .     S
C388   C390    1.398   .     A
C389   C391    1.422   .     A
C390   C392    1.418   .     A
C391   C435    1.485   .     S
C391   C393    1.388   .     A
C392   C394    1.385   .     A
C392   C439    1.483   .     S
C393   H399    1.077   .     S
C393   C395    1.395   .     A
C394   H400    1.076   .     S
C394   C396    1.398   .     A
C396   C119    1.489   1_565 S
N405   Zn416   2.010   .     S
N406   Zn415   2.010   .     S
O407   Zn415   1.984   .     S
O408   Zn416   1.984   .     S
O409   Zn416   1.992   .     S
O410   Zn415   1.992   .     S
O411   Zn415   1.989   .     S
O412   Zn416   1.989   .     S
O413   Zn416   1.966   .     S
O414   Zn415   1.966   .     S
C417   O418    1.223   .     D
C417   C475    1.496   .     S
C417   O511    1.399   .     S
O419   H420    1.014   .     S
C421   O422    1.223   .     D
O423   H424    1.014   .     S
O423   C513    1.398   .     S
S425   O427    1.504   .     D
S425   O428    1.682   .     S
O426   S149    1.503   1_565 S
O428   H429    0.990   .     S
S430   O432    1.504   .     D
S430   O431    1.503   .     D
S430   O157    1.682   1_565 S
O433   H434    0.990   .     S
C435   O436    1.222   .     D
C435   O437    1.398   .     S
O437   H438    1.013   .     S
C439   O440    1.222   .     D
C439   O441    1.398   .     S
O441   H442    1.014   .     S
C443   O444    1.220   .     D
C443   O445    1.397   .     S
O445   H446    1.014   .     S
C447   O449    1.396   .     S
C447   O448    1.222   .     D
O449   H450    1.014   .     S
S451   O452    1.504   .     D
S451   O453    1.503   .     D
S451   O1006   1.683   1_554 S
O454   H455    0.990   .     S
O454   S1003   1.683   .     S
S456   O459    1.680   .     S
S456   O458    1.503   .     D
S456   O1009   1.502   .     S
O457   S1008   1.502   1_554 S
O459   H460    0.991   .     S
C461   C481    1.458   .     S
C461   O501    1.284   .     A
C461   O499    1.299   .     A
C462   C482    1.457   .     S
C462   O502    1.285   .     A
C462   O500    1.299   .     A
C463   H493    1.083   .     S
C463   C465    1.407   .     A
C463   C471    1.410   .     A
C464   C472    1.412   .     A
C464   H494    1.083   .     S
C464   C466    1.407   .     A
C465   N497    1.364   .     A
C465   H495    1.080   .     S
C466   N498    1.361   .     A
C466   H496    1.082   .     S
C467   C535    1.477   .     S
C467   N497    1.380   .     A
C467   C469    1.427   .     A
C468   C539    1.475   .     S
C468   N498    1.378   .     A
C468   C470    1.424   .     A
C469   C471    1.415   .     A
C469   S543    1.789   .     S
C470   S548    1.789   .     S
C470   C472    1.417   .     A
C471   C1024   1.512   1_554 S
C472   C1023   1.512   .     S
C473   C475    1.395   .     S
C473   O503    1.271   .     A
C473   O505    1.278   .     A
C474   O506    1.276   .     A
C474   C476    1.395   .     S
C474   O504    1.274   .     A
C476   C291    1.345   1_655 S
C476   C329    1.496   1_655 S
C477   C487    1.418   .     A
C477   C479    1.386   .     A
C477   S517    1.777   .     S
C478   C480    1.387   .     A
C478   C488    1.422   .     A
C478   S522    1.778   .     S
C479   C481    1.400   .     A
C479   H489    1.083   .     S
C480   H490    1.084   .     S
C480   C482    1.398   .     A
C481   C483    1.422   .     A
C482   C484    1.418   .     A
C483   C527    1.485   .     S
C483   C485    1.388   .     A
C484   C486    1.385   .     A
C484   C531    1.483   .     S
C485   H491    1.077   .     S
C485   C487    1.395   .     A
C486   H492    1.076   .     S
C486   C488    1.398   .     A
C488   C211    1.489   1_565 S
N497   Zn508   2.010   .     S
N498   Zn507   2.010   .     S
O499   Zn507   1.984   .     S
O500   Zn508   1.984   .     S
O501   Zn508   1.992   .     S
O502   Zn507   1.992   .     S
O503   Zn507   1.989   .     S
O504   Zn508   1.989   .     S
O505   Zn508   1.966   .     S
O506   Zn507   1.966   .     S
C509   O510    1.223   .     D
C509   C291    1.496   1_655 S
C509   O327    1.399   1_655 S
O511   H512    1.014   .     S
C513   O514    1.223   .     D
O515   H516    1.014   .     S
O515   C329    1.398   1_655 S
S517   O519    1.504   .     D
S517   O520    1.682   .     S
O518   S241    1.503   1_565 S
O520   H521    0.990   .     S
S522   O524    1.504   .     D
S522   O523    1.503   .     D
S522   O249    1.682   1_565 S
O525   H526    0.990   .     S
C527   O528    1.222   .     D
C527   O529    1.398   .     S
O529   H530    1.013   .     S
C531   O532    1.222   .     D
C531   O533    1.398   .     S
O533   H534    1.014   .     S
C535   O536    1.220   .     D
C535   O537    1.397   .     S
O537   H538    1.014   .     S
C539   O541    1.396   .     S
C539   O540    1.222   .     D
O541   H542    1.014   .     S
S543   O544    1.504   .     D
S543   O545    1.503   .     D
S543   O1098   1.683   1_554 S
O546   H547    0.990   .     S
O546   S1095   1.683   .     S
S548   O551    1.680   .     S
S548   O550    1.503   .     D
S548   O1101   1.502   .     S
O549   S1100   1.502   1_554 S
O551   H552    0.991   .     S
C553   C573    1.458   .     S
C553   O593    1.284   .     A
C553   O591    1.299   .     A
C554   C574    1.457   .     S
C554   O594    1.285   .     A
C554   O592    1.299   .     A
C555   H585    1.083   .     S
C555   C557    1.407   .     A
C555   C563    1.410   .     A
C556   C564    1.412   .     A
C556   H586    1.083   .     S
C556   C558    1.407   .     A
C557   N589    1.364   .     A
C557   H587    1.080   .     S
C558   N590    1.361   .     A
C558   H588    1.082   .     S
C559   C627    1.477   .     S
C559   N589    1.380   .     A
C559   C561    1.427   .     A
C560   C631    1.475   .     S
C560   N590    1.378   .     A
C560   C562    1.424   .     A
C561   C563    1.415   .     A
C561   S635    1.789   .     S
C562   S640    1.789   .     S
C562   C564    1.417   .     A
C564   C11     1.512   1_556 S
C565   C567    1.395   .     S
C565   O595    1.271   .     A
C565   O597    1.278   .     A
C566   O598    1.276   .     A
C566   C568    1.395   .     S
C566   O596    1.274   .     A
C567   C752    1.345   1_455 S
C567   C785    1.496   1_455 S
C568   C659    1.345   .     S
C568   C697    1.496   .     S
C569   C579    1.418   .     A
C569   C571    1.386   .     A
C569   S609    1.777   .     S
C570   C572    1.387   .     A
C570   C580    1.422   .     A
C570   S614    1.778   .     S
C571   C573    1.400   .     A
C571   H581    1.083   .     S
C572   H582    1.084   .     S
C572   C574    1.398   .     A
C573   C575    1.422   .     A
C574   C576    1.418   .     A
C575   C619    1.485   .     S
C575   C577    1.388   .     A
C576   C578    1.385   .     A
C576   C623    1.483   .     S
C577   H583    1.077   .     S
C577   C579    1.395   .     A
C578   H584    1.076   .     S
C578   C580    1.398   .     A
C579   C856    1.489   1_545 S
C580   C855    1.489   .     S
N589   Zn600   2.010   .     S
N590   Zn599   2.010   .     S
O591   Zn599   1.984   .     S
O592   Zn600   1.984   .     S
O593   Zn600   1.992   .     S
O594   Zn599   1.992   .     S
O595   Zn599   1.989   .     S
O596   Zn600   1.989   .     S
O597   Zn600   1.966   .     S
O598   Zn599   1.966   .     S
C601   O602    1.223   .     D
C601   C659    1.496   .     S
C601   O695    1.399   .     S
O603   H604    1.014   .     S
O603   C785    1.399   1_455 S
C605   O606    1.223   .     D
C605   C752    1.496   1_455 S
C605   O791    1.398   1_455 S
O607   H608    1.014   .     S
O607   C697    1.398   .     S
S609   O611    1.504   .     D
S609   O612    1.682   .     S
S609   O886    1.503   1_545 S
O610   S885    1.503   .     S
O612   H613    0.990   .     S
S614   O616    1.504   .     D
S614   O615    1.503   .     D
S614   O893    1.682   .     S
O617   H618    0.990   .     S
O617   S890    1.682   1_545 S
C619   O620    1.222   .     D
C619   O621    1.398   .     S
O621   H622    1.013   .     S
C623   O624    1.222   .     D
C623   O625    1.398   .     S
O625   H626    1.014   .     S
C627   O628    1.220   .     D
C627   O629    1.397   .     S
O629   H630    1.014   .     S
C631   O633    1.396   .     S
C631   O632    1.222   .     D
O633   H634    1.014   .     S
S635   O636    1.504   .     D
S635   O637    1.503   .     D
O638   H639    0.990   .     S
O638   S83     1.683   1_556 S
S640   O643    1.680   .     S
S640   O642    1.503   .     D
S640   O89     1.502   1_556 S
O643   H644    0.991   .     S
C645   C665    1.458   .     S
C645   O685    1.284   .     A
C645   O683    1.299   .     A
C646   C666    1.457   .     S
C646   O686    1.285   .     A
C646   O684    1.299   .     A
C647   H677    1.083   .     S
C647   C649    1.407   .     A
C647   C655    1.410   .     A
C648   C656    1.412   .     A
C648   H678    1.083   .     S
C648   C650    1.407   .     A
C649   N681    1.364   .     A
C649   H679    1.080   .     S
C650   N682    1.361   .     A
C650   H680    1.082   .     S
C651   C719    1.477   .     S
C651   N681    1.380   .     A
C651   C653    1.427   .     A
C652   C723    1.475   .     S
C652   N682    1.378   .     A
C652   C654    1.424   .     A
C653   C655    1.415   .     A
C653   S727    1.789   .     S
C654   S732    1.789   .     S
C654   C656    1.417   .     A
C656   C103    1.512   1_556 S
C657   C659    1.395   .     S
C657   O687    1.271   .     A
C657   O689    1.278   .     A
C658   O690    1.276   .     A
C658   C660    1.395   .     S
C658   O688    1.274   .     A
C660   C751    1.345   .     S
C660   C789    1.496   .     S
C661   C671    1.418   .     A
C661   C663    1.386   .     A
C661   S701    1.777   .     S
C662   C664    1.387   .     A
C662   C672    1.422   .     A
C662   S706    1.778   .     S
C663   C665    1.400   .     A
C663   H673    1.083   .     S
C664   H674    1.084   .     S
C664   C666    1.398   .     A
C665   C667    1.422   .     A
C666   C668    1.418   .     A
C667   C711    1.485   .     S
C667   C669    1.388   .     A
C668   C670    1.385   .     A
C668   C715    1.483   .     S
C669   H675    1.077   .     S
C669   C671    1.395   .     A
C670   H676    1.076   .     S
C670   C672    1.398   .     A
C671   C948    1.489   1_545 S
C672   C947    1.489   .     S
N681   Zn692   2.010   .     S
N682   Zn691   2.010   .     S
O683   Zn691   1.984   .     S
O684   Zn692   1.984   .     S
O685   Zn692   1.992   .     S
O686   Zn691   1.992   .     S
O687   Zn691   1.989   .     S
O688   Zn692   1.989   .     S
O689   Zn692   1.966   .     S
O690   Zn691   1.966   .     S
C693   O694    1.223   .     D
C693   C751    1.496   .     S
C693   O787    1.399   .     S
O695   H696    1.014   .     S
C697   O698    1.223   .     D
O699   H700    1.014   .     S
O699   C789    1.398   .     S
S701   O703    1.504   .     D
S701   O704    1.682   .     S
S701   O978    1.503   1_545 S
O702   S977    1.503   .     S
O704   H705    0.990   .     S
S706   O708    1.504   .     D
S706   O707    1.503   .     D
S706   O985    1.682   .     S
O709   H710    0.990   .     S
O709   S982    1.682   1_545 S
C711   O712    1.222   .     D
C711   O713    1.398   .     S
O713   H714    1.013   .     S
C715   O716    1.222   .     D
C715   O717    1.398   .     S
O717   H718    1.014   .     S
C719   O720    1.220   .     D
C719   O721    1.397   .     S
O721   H722    1.014   .     S
C723   O725    1.396   .     S
C723   O724    1.222   .     D
O725   H726    1.014   .     S
S727   O728    1.504   .     D
S727   O729    1.503   .     D
O730   H731    0.990   .     S
O730   S175    1.683   1_556 S
S732   O735    1.680   .     S
S732   O734    1.503   .     D
S732   O181    1.502   1_556 S
O735   H736    0.991   .     S
C737   C757    1.458   .     S
C737   O777    1.284   .     A
C737   O775    1.299   .     A
C738   C758    1.457   .     S
C738   O778    1.285   .     A
C738   O776    1.299   .     A
C739   H769    1.083   .     S
C739   C741    1.407   .     A
C739   C747    1.410   .     A
C740   C748    1.412   .     A
C740   H770    1.083   .     S
C740   C742    1.407   .     A
C741   N773    1.364   .     A
C741   H771    1.080   .     S
C742   N774    1.361   .     A
C742   H772    1.082   .     S
C743   C811    1.477   .     S
C743   N773    1.380   .     A
C743   C745    1.427   .     A
C744   C815    1.475   .     S
C744   N774    1.378   .     A
C744   C746    1.424   .     A
C745   C747    1.415   .     A
C745   S819    1.789   .     S
C746   S824    1.789   .     S
C746   C748    1.417   .     A
C748   C195    1.512   1_556 S
C749   C751    1.395   .     S
C749   O779    1.271   .     A
C749   O781    1.278   .     A
C750   O782    1.276   .     A
C750   C752    1.395   .     S
C750   O780    1.274   .     A
C752   C567    1.345   1_655 S
C752   C605    1.496   1_655 S
C753   C763    1.418   .     A
C753   C755    1.386   .     A
C753   S793    1.777   .     S
C754   C756    1.387   .     A
C754   C764    1.422   .     A
C754   S798    1.778   .     S
C755   C757    1.400   .     A
C755   H765    1.083   .     S
C756   H766    1.084   .     S
C756   C758    1.398   .     A
C757   C759    1.422   .     A
C758   C760    1.418   .     A
C759   C803    1.485   .     S
C759   C761    1.388   .     A
C760   C762    1.385   .     A
C760   C807    1.483   .     S
C761   H767    1.077   .     S
C761   C763    1.395   .     A
C762   H768    1.076   .     S
C762   C764    1.398   .     A
C763   C1040   1.489   1_545 S
C764   C1039   1.489   .     S
N773   Zn784   2.010   .     S
N774   Zn783   2.010   .     S
O775   Zn783   1.984   .     S
O776   Zn784   1.984   .     S
O777   Zn784   1.992   .     S
O778   Zn783   1.992   .     S
O779   Zn783   1.989   .     S
O780   Zn784   1.989   .     S
O781   Zn784   1.966   .     S
O782   Zn783   1.966   .     S
C785   O786    1.223   .     D
C785   C567    1.496   1_655 S
C785   O603    1.399   1_655 S
O787   H788    1.014   .     S
C789   O790    1.223   .     D
O791   H792    1.014   .     S
O791   C605    1.398   1_655 S
S793   O795    1.504   .     D
S793   O796    1.682   .     S
S793   O1070   1.503   1_545 S
O794   S1069   1.503   .     S
O796   H797    0.990   .     S
S798   O800    1.504   .     D
S798   O799    1.503   .     D
S798   O1077   1.682   .     S
O801   H802    0.990   .     S
O801   S1074   1.682   1_545 S
C803   O804    1.222   .     D
C803   O805    1.398   .     S
O805   H806    1.013   .     S
C807   O808    1.222   .     D
C807   O809    1.398   .     S
O809   H810    1.014   .     S
C811   O812    1.220   .     D
C811   O813    1.397   .     S
O813   H814    1.014   .     S
C815   O817    1.396   .     S
C815   O816    1.222   .     D
O817   H818    1.014   .     S
S819   O820    1.504   .     D
S819   O821    1.503   .     D
O822   H823    0.990   .     S
O822   S267    1.683   1_556 S
S824   O827    1.680   .     S
S824   O826    1.503   .     D
S824   O273    1.502   1_556 S
O827   H828    0.991   .     S
C829   C849    1.458   .     S
C829   O869    1.284   .     A
C829   O867    1.299   .     A
C830   C850    1.457   .     S
C830   O870    1.285   .     A
C830   O868    1.299   .     A
C831   H861    1.083   .     S
C831   C833    1.407   .     A
C831   C839    1.410   .     A
C832   C840    1.412   .     A
C832   H862    1.083   .     S
C832   C834    1.407   .     A
C833   N865    1.364   .     A
C833   H863    1.080   .     S
C834   N866    1.361   .     A
C834   H864    1.082   .     S
C835   C903    1.477   .     S
C835   N865    1.380   .     A
C835   C837    1.427   .     A
C836   C907    1.475   .     S
C836   N866    1.378   .     A
C836   C838    1.424   .     A
C837   C839    1.415   .     A
C837   S911    1.789   .     S
C838   S916    1.789   .     S
C838   C840    1.417   .     A
C840   C287    1.512   1_556 S
C841   C843    1.395   .     S
C841   O871    1.271   .     A
C841   O873    1.278   .     A
C842   O874    1.276   .     A
C842   C844    1.395   .     S
C842   O872    1.274   .     A
C843   C1028   1.345   1_455 S
C843   C1061   1.496   1_455 S
C844   C935    1.345   .     S
C844   C973    1.496   .     S
C845   C855    1.418   .     A
C845   C847    1.386   .     A
C845   S885    1.777   .     S
C846   C848    1.387   .     A
C846   C856    1.422   .     A
C846   S890    1.778   .     S
C847   C849    1.400   .     A
C847   H857    1.083   .     S
C848   H858    1.084   .     S
C848   C850    1.398   .     A
C849   C851    1.422   .     A
C850   C852    1.418   .     A
C851   C895    1.485   .     S
C851   C853    1.388   .     A
C852   C854    1.385   .     A
C852   C899    1.483   .     S
C853   H859    1.077   .     S
C853   C855    1.395   .     A
C854   H860    1.076   .     S
C854   C856    1.398   .     A
C856   C579    1.489   1_565 S
N865   Zn876   2.010   .     S
N866   Zn875   2.010   .     S
O867   Zn875   1.984   .     S
O868   Zn876   1.984   .     S
O869   Zn876   1.992   .     S
O870   Zn875   1.992   .     S
O871   Zn875   1.989   .     S
O872   Zn876   1.989   .     S
O873   Zn876   1.966   .     S
O874   Zn875   1.966   .     S
C877   O878    1.223   .     D
C877   C935    1.496   .     S
C877   O971    1.399   .     S
O879   H880    1.014   .     S
O879   C1061   1.399   1_455 S
C881   O882    1.223   .     D
C881   C1028   1.496   1_455 S
C881   O1067   1.398   1_455 S
O883   H884    1.014   .     S
O883   C973    1.398   .     S
S885   O887    1.504   .     D
S885   O888    1.682   .     S
O886   S609    1.503   1_565 S
O888   H889    0.990   .     S
S890   O892    1.504   .     D
S890   O891    1.503   .     D
S890   O617    1.682   1_565 S
O893   H894    0.990   .     S
C895   O896    1.222   .     D
C895   O897    1.398   .     S
O897   H898    1.013   .     S
C899   O900    1.222   .     D
C899   O901    1.398   .     S
O901   H902    1.014   .     S
C903   O904    1.220   .     D
C903   O905    1.397   .     S
O905   H906    1.014   .     S
C907   O909    1.396   .     S
C907   O908    1.222   .     D
O909   H910    1.014   .     S
S911   O912    1.504   .     D
S911   O913    1.503   .     D
O914   H915    0.990   .     S
O914   S359    1.683   1_556 S
S916   O919    1.680   .     S
S916   O918    1.503   .     D
S916   O365    1.502   1_556 S
O919   H920    0.991   .     S
C921   C941    1.458   .     S
C921   O961    1.284   .     A
C921   O959    1.299   .     A
C922   C942    1.457   .     S
C922   O962    1.285   .     A
C922   O960    1.299   .     A
C923   H953    1.083   .     S
C923   C925    1.407   .     A
C923   C931    1.410   .     A
C924   C932    1.412   .     A
C924   H954    1.083   .     S
C924   C926    1.407   .     A
C925   N957    1.364   .     A
C925   H955    1.080   .     S
C926   N958    1.361   .     A
C926   H956    1.082   .     S
C927   C995    1.477   .     S
C927   N957    1.380   .     A
C927   C929    1.427   .     A
C928   C999    1.475   .     S
C928   N958    1.378   .     A
C928   C930    1.424   .     A
C929   C931    1.415   .     A
C929   S1003   1.789   .     S
C930   S1008   1.789   .     S
C930   C932    1.417   .     A
C932   C379    1.512   1_556 S
C933   C935    1.395   .     S
C933   O963    1.271   .     A
C933   O965    1.278   .     A
C934   O966    1.276   .     A
C934   C936    1.395   .     S
C934   O964    1.274   .     A
C936   C1027   1.345   .     S
C936   C1065   1.496   .     S
C937   C947    1.418   .     A
C937   C939    1.386   .     A
C937   S977    1.777   .     S
C938   C940    1.387   .     A
C938   C948    1.422   .     A
C938   S982    1.778   .     S
C939   C941    1.400   .     A
C939   H949    1.083   .     S
C940   H950    1.084   .     S
C940   C942    1.398   .     A
C941   C943    1.422   .     A
C942   C944    1.418   .     A
C943   C987    1.485   .     S
C943   C945    1.388   .     A
C944   C946    1.385   .     A
C944   C991    1.483   .     S
C945   H951    1.077   .     S
C945   C947    1.395   .     A
C946   H952    1.076   .     S
C946   C948    1.398   .     A
C948   C671    1.489   1_565 S
N957   Zn968   2.010   .     S
N958   Zn967   2.010   .     S
O959   Zn967   1.984   .     S
O960   Zn968   1.984   .     S
O961   Zn968   1.992   .     S
O962   Zn967   1.992   .     S
O963   Zn967   1.989   .     S
O964   Zn968   1.989   .     S
O965   Zn968   1.966   .     S
O966   Zn967   1.966   .     S
C969   O970    1.223   .     D
C969   C1027   1.496   .     S
C969   O1063   1.399   .     S
O971   H972    1.014   .     S
C973   O974    1.223   .     D
O975   H976    1.014   .     S
O975   C1065   1.398   .     S
S977   O979    1.504   .     D
S977   O980    1.682   .     S
O978   S701    1.503   1_565 S
O980   H981    0.990   .     S
S982   O984    1.504   .     D
S982   O983    1.503   .     D
S982   O709    1.682   1_565 S
O985   H986    0.990   .     S
C987   O988    1.222   .     D
C987   O989    1.398   .     S
O989   H990    1.013   .     S
C991   O992    1.222   .     D
C991   O993    1.398   .     S
O993   H994    1.014   .     S
C995   O996    1.220   .     D
C995   O997    1.397   .     S
O997   H998    1.014   .     S
C999   O1001   1.396   .     S
C999   O1000   1.222   .     D
O1001  H1002   1.014   .     S
S1003  O1004   1.504   .     D
S1003  O1005   1.503   .     D
O1006  H1007   0.990   .     S
O1006  S451    1.683   1_556 S
S1008  O1011   1.680   .     S
S1008  O1010   1.503   .     D
S1008  O457    1.502   1_556 S
O1011  H1012   0.991   .     S
C1013  C1033   1.458   .     S
C1013  O1053   1.284   .     A
C1013  O1051   1.299   .     A
C1014  C1034   1.457   .     S
C1014  O1054   1.285   .     A
C1014  O1052   1.299   .     A
C1015  H1045   1.083   .     S
C1015  C1017   1.407   .     A
C1015  C1023   1.410   .     A
C1016  C1024   1.412   .     A
C1016  H1046   1.083   .     S
C1016  C1018   1.407   .     A
C1017  N1049   1.364   .     A
C1017  H1047   1.080   .     S
C1018  N1050   1.361   .     A
C1018  H1048   1.082   .     S
C1019  C1087   1.477   .     S
C1019  N1049   1.380   .     A
C1019  C1021   1.427   .     A
C1020  C1091   1.475   .     S
C1020  N1050   1.378   .     A
C1020  C1022   1.424   .     A
C1021  C1023   1.415   .     A
C1021  S1095   1.789   .     S
C1022  S1100   1.789   .     S
C1022  C1024   1.417   .     A
C1024  C471    1.512   1_556 S
C1025  C1027   1.395   .     S
C1025  O1055   1.271   .     A
C1025  O1057   1.278   .     A
C1026  O1058   1.276   .     A
C1026  C1028   1.395   .     S
C1026  O1056   1.274   .     A
C1028  C843    1.345   1_655 S
C1028  C881    1.496   1_655 S
C1029  C1039   1.418   .     A
C1029  C1031   1.386   .     A
C1029  S1069   1.777   .     S
C1030  C1032   1.387   .     A
C1030  C1040   1.422   .     A
C1030  S1074   1.778   .     S
C1031  C1033   1.400   .     A
C1031  H1041   1.083   .     S
C1032  H1042   1.084   .     S
C1032  C1034   1.398   .     A
C1033  C1035   1.422   .     A
C1034  C1036   1.418   .     A
C1035  C1079   1.485   .     S
C1035  C1037   1.388   .     A
C1036  C1038   1.385   .     A
C1036  C1083   1.483   .     S
C1037  H1043   1.077   .     S
C1037  C1039   1.395   .     A
C1038  H1044   1.076   .     S
C1038  C1040   1.398   .     A
C1040  C763    1.489   1_565 S
N1049  Zn1060  2.010   .     S
N1050  Zn1059  2.010   .     S
O1051  Zn1059  1.984   .     S
O1052  Zn1060  1.984   .     S
O1053  Zn1060  1.992   .     S
O1054  Zn1059  1.992   .     S
O1055  Zn1059  1.989   .     S
O1056  Zn1060  1.989   .     S
O1057  Zn1060  1.966   .     S
O1058  Zn1059  1.966   .     S
C1061  O1062   1.223   .     D
C1061  C843    1.496   1_655 S
C1061  O879    1.399   1_655 S
O1063  H1064   1.014   .     S
C1065  O1066   1.223   .     D
O1067  H1068   1.014   .     S
O1067  C881    1.398   1_655 S
S1069  O1071   1.504   .     D
S1069  O1072   1.682   .     S
O1070  S793    1.503   1_565 S
O1072  H1073   0.990   .     S
S1074  O1076   1.504   .     D
S1074  O1075   1.503   .     D
S1074  O801    1.682   1_565 S
O1077  H1078   0.990   .     S
C1079  O1080   1.222   .     D
C1079  O1081   1.398   .     S
O1081  H1082   1.013   .     S
C1083  O1084   1.222   .     D
C1083  O1085   1.398   .     S
O1085  H1086   1.014   .     S
C1087  O1088   1.220   .     D
C1087  O1089   1.397   .     S
O1089  H1090   1.014   .     S
C1091  O1093   1.396   .     S
C1091  O1092   1.222   .     D
O1093  H1094   1.014   .     S
S1095  O1096   1.504   .     D
S1095  O1097   1.503   .     D
O1098  H1099   0.990   .     S
O1098  S543    1.683   1_556 S
S1100  O1103   1.680   .     S
S1100  O1102   1.503   .     D
S1100  O549    1.502   1_556 S
O1103  H1104   0.991   .     S
