data_str_m3_o10_o16_pcu_sym.65
_audit_creation_date              2020-01-03
_audit_creation_method            'Materials Studio'
_symmetry_space_group_name_H-M    'P1'
_symmetry_Int_Tables_number       1
_symmetry_cell_setting            triclinic
loop_
_symmetry_equiv_pos_as_xyz
  x,y,z
_cell_length_a                    24.0678
_cell_length_b                    25.6542
_cell_length_c                    26.0098
_cell_angle_alpha                 98.0060
_cell_angle_beta                  104.6410
_cell_angle_gamma                 92.6605
loop_
_atom_site_label
_atom_site_type_symbol
_atom_site_fract_x
_atom_site_fract_y
_atom_site_fract_z
_atom_site_U_iso_or_equiv
_atom_site_adp_type
_atom_site_occupancy
C1     C     0.01470   0.26474   0.25085   0.00000  Uiso   1.00
C2     C     0.06387   0.17825   0.41024   0.00000  Uiso   1.00
C3     C     0.02345   0.32009   0.25721   0.00000  Uiso   1.00
C4     C     0.03741   0.16832   0.35308   0.00000  Uiso   1.00
C5     C     0.31102   0.01432   0.25069   0.00000  Uiso   1.00
C6     C     0.31915   0.06892   0.25131   0.00000  Uiso   1.00
C7     C     0.29661   0.16484   0.14678   0.00000  Uiso   1.00
C8     C     0.29641   0.15671   0.00277   0.00000  Uiso   1.00
C9     C     0.27648   0.16737   0.08971   0.00000  Uiso   1.00
C10    C     0.04136   0.21788   0.43979   0.00000  Uiso   1.00
C11    C     0.07204   0.24046   0.49090   0.00000  Uiso   1.00
C12    C     0.14578   0.18020   0.48706   0.00000  Uiso   1.00
C13    C     0.12323   0.22068   0.01502   0.00000  Uiso   1.00
C14    C     0.03873   0.24961   0.10840   0.00000  Uiso   1.00
C15    C     0.10039   0.27697   0.12777   0.00000  Uiso   1.00
C16    C     0.11048   0.31934   0.17701   0.00000  Uiso   1.00
C17    C     0.19153   0.22787   0.30880   0.00000  Uiso   1.00
C18    C     0.24563   0.25735   0.33623   0.00000  Uiso   1.00
C19    C     0.25437   0.30137   0.37674   0.00000  Uiso   1.00
C20    C     0.20919   0.31929   0.39528   0.00000  Uiso   1.00
C21    C     0.15566   0.29340   0.37245   0.00000  Uiso   1.00
C22    C     0.14774   0.25000   0.33118   0.00000  Uiso   1.00
C23    C     0.11936   0.16130   0.43283   0.00000  Uiso   1.00
C24    C     0.17588   0.09050   0.09105   0.00000  Uiso   1.00
C25    C     0.14089   0.05718   0.03795   0.00000  Uiso   1.00
C26    C     0.07719   0.06666   0.02594   0.00000  Uiso   1.00
C27    C     0.19993   0.16525   0.01035   0.00000  Uiso   1.00
C28    C     0.23692   0.15077   0.47835   0.00000  Uiso   1.00
C29    C     0.21230   0.13071   0.42415   0.00000  Uiso   1.00
C30    C     0.15229   0.13017   0.40341   0.00000  Uiso   1.00
C31    C     0.21726   0.16092   0.06442   0.00000  Uiso   1.00
C32    C     0.31578   0.17509   0.05852   0.00000  Uiso   1.00
H33    H     0.26707   0.32998   0.24256   0.00000  Uiso   1.00
H34    H     0.02106   0.24994   0.14367   0.00000  Uiso   1.00
H35    H     0.01131   0.27370   0.08117   0.00000  Uiso   1.00
H36    H     0.13215   0.24723   0.13703   0.00000  Uiso   1.00
H37    H     0.10895   0.29786   0.09590   0.00000  Uiso   1.00
H38    H     0.07346   0.01074   0.17385   0.00000  Uiso   1.00
H39    H     0.14988   0.01198   0.18039   0.00000  Uiso   1.00
H40    H     0.11855   0.30056   0.21365   0.00000  Uiso   1.00
H41    H     0.28551   0.24952   0.33089   0.00000  Uiso   1.00
H42    H     0.29719   0.32101   0.39460   0.00000  Uiso   1.00
H43    H     0.21565   0.01918   0.42735   0.00000  Uiso   1.00
H44    H     0.15472   0.12319   0.20849   0.00000  Uiso   1.00
H45    H     0.11947   0.30706   0.38686   0.00000  Uiso   1.00
H46    H     0.10549   0.23919   0.32204   0.00000  Uiso   1.00
H47    H     0.15619   0.08182   0.12344   0.00000  Uiso   1.00
H48    H     0.22009   0.07694   0.10184   0.00000  Uiso   1.00
H49    H     0.15816   0.06544   0.00396   0.00000  Uiso   1.00
H50    H     0.14540   0.01476   0.04081   0.00000  Uiso   1.00
H51    H     0.05849   0.05549   0.05819   0.00000  Uiso   1.00
H52    H     0.05353   0.04254   0.48701   0.00000  Uiso   1.00
H53    H     0.07203   0.10888   0.02311   0.00000  Uiso   1.00
H54    H     0.23849   0.11366   0.39893   0.00000  Uiso   1.00
H55    H     0.32646   0.14926   0.47883   0.00000  Uiso   1.00
H56    H     0.00144   0.23384   0.42230   0.00000  Uiso   1.00
H57    H     0.14910   0.23979   0.05358   0.00000  Uiso   1.00
H58    H     0.05609   0.27395   0.01086   0.00000  Uiso   1.00
H59    H     0.13405   0.10798   0.36380   0.00000  Uiso   1.00
H60    H     0.06721   0.00509   0.26759   0.00000  Uiso   1.00
N61    N     0.14493   0.15223   0.23543   0.00000  Uiso   1.00
N62    N     0.18840   0.18110   0.26458   0.00000  Uiso   1.00
O63    O     0.29769   0.24629   0.25358   0.00000  Uiso   1.00
O64    O     0.17612   0.14581   0.08970   0.00000  Uiso   1.00
O65    O     0.05742   0.23704   0.24424   0.00000  Uiso   1.00
O66    O     0.31490   0.17358   0.33380   0.00000  Uiso   1.00
O67    O     0.07463   0.16433   0.32446   0.00000  Uiso   1.00
O68    O     0.27592   0.09629   0.25577   0.00000  Uiso   1.00
O69    O     0.03565   0.08704   0.24643   0.00000  Uiso   1.00
O70    O     0.25870   0.16901   0.17554   0.00000  Uiso   1.00
O71    O     0.01843   0.15976   0.16620   0.00000  Uiso   1.00
O72    O     0.03888   0.19703   0.08150   0.00000  Uiso   1.00
Zn73   Zn    0.27119   0.17284   0.25624   0.00000  Uiso   1.00
Zn74   Zn    0.06214   0.16049   0.24377   0.00000  Uiso   1.00
C75    C     0.34803   0.26474   0.25085   0.00000  Uiso   1.00
C76    C     0.39720   0.17825   0.41024   0.00000  Uiso   1.00
C77    C     0.35678   0.32009   0.25721   0.00000  Uiso   1.00
C78    C     0.37074   0.16832   0.35308   0.00000  Uiso   1.00
C79    C     0.64435   0.01432   0.25069   0.00000  Uiso   1.00
C80    C     0.65248   0.06892   0.25131   0.00000  Uiso   1.00
C81    C     0.62995   0.16484   0.14678   0.00000  Uiso   1.00
C82    C     0.62974   0.15671   0.00277   0.00000  Uiso   1.00
C83    C     0.60982   0.16737   0.08971   0.00000  Uiso   1.00
C84    C     0.37470   0.21788   0.43979   0.00000  Uiso   1.00
C85    C     0.40537   0.24046   0.49090   0.00000  Uiso   1.00
C86    C     0.47911   0.18020   0.48706   0.00000  Uiso   1.00
C87    C     0.45656   0.22068   0.01502   0.00000  Uiso   1.00
C88    C     0.37206   0.24961   0.10840   0.00000  Uiso   1.00
C89    C     0.43372   0.27697   0.12777   0.00000  Uiso   1.00
C90    C     0.44381   0.31934   0.17701   0.00000  Uiso   1.00
C91    C     0.52486   0.22787   0.30880   0.00000  Uiso   1.00
C92    C     0.57897   0.25735   0.33623   0.00000  Uiso   1.00
C93    C     0.58770   0.30137   0.37674   0.00000  Uiso   1.00
C94    C     0.54252   0.31929   0.39528   0.00000  Uiso   1.00
C95    C     0.48900   0.29340   0.37245   0.00000  Uiso   1.00
C96    C     0.48107   0.25000   0.33118   0.00000  Uiso   1.00
C97    C     0.45269   0.16130   0.43283   0.00000  Uiso   1.00
C98    C     0.50921   0.09050   0.09105   0.00000  Uiso   1.00
C99    C     0.47422   0.05718   0.03795   0.00000  Uiso   1.00
C100   C     0.41052   0.06666   0.02594   0.00000  Uiso   1.00
C101   C     0.53327   0.16525   0.01035   0.00000  Uiso   1.00
C102   C     0.57025   0.15077   0.47835   0.00000  Uiso   1.00
C103   C     0.54564   0.13071   0.42415   0.00000  Uiso   1.00
C104   C     0.48562   0.13017   0.40341   0.00000  Uiso   1.00
C105   C     0.55060   0.16092   0.06442   0.00000  Uiso   1.00
C106   C     0.64911   0.17509   0.05852   0.00000  Uiso   1.00
H107   H     0.60040   0.32998   0.24256   0.00000  Uiso   1.00
H108   H     0.35439   0.24994   0.14367   0.00000  Uiso   1.00
H109   H     0.34465   0.27370   0.08117   0.00000  Uiso   1.00
H110   H     0.46548   0.24723   0.13703   0.00000  Uiso   1.00
H111   H     0.44229   0.29786   0.09590   0.00000  Uiso   1.00
H112   H     0.40680   0.01074   0.17385   0.00000  Uiso   1.00
H113   H     0.48321   0.01198   0.18039   0.00000  Uiso   1.00
H114   H     0.45189   0.30056   0.21365   0.00000  Uiso   1.00
H115   H     0.61884   0.24952   0.33089   0.00000  Uiso   1.00
H116   H     0.63052   0.32101   0.39460   0.00000  Uiso   1.00
H117   H     0.54899   0.01918   0.42735   0.00000  Uiso   1.00
H118   H     0.48805   0.12319   0.20849   0.00000  Uiso   1.00
H119   H     0.45281   0.30706   0.38686   0.00000  Uiso   1.00
H120   H     0.43882   0.23919   0.32204   0.00000  Uiso   1.00
H121   H     0.48952   0.08182   0.12344   0.00000  Uiso   1.00
H122   H     0.55342   0.07694   0.10184   0.00000  Uiso   1.00
H123   H     0.49149   0.06544   0.00396   0.00000  Uiso   1.00
H124   H     0.47873   0.01476   0.04081   0.00000  Uiso   1.00
H125   H     0.39182   0.05549   0.05819   0.00000  Uiso   1.00
H126   H     0.38687   0.04254   0.48701   0.00000  Uiso   1.00
H127   H     0.40537   0.10888   0.02311   0.00000  Uiso   1.00
H128   H     0.57183   0.11366   0.39893   0.00000  Uiso   1.00
H129   H     0.65980   0.14926   0.47883   0.00000  Uiso   1.00
H130   H     0.33478   0.23384   0.42230   0.00000  Uiso   1.00
H131   H     0.48243   0.23979   0.05358   0.00000  Uiso   1.00
H132   H     0.38942   0.27395   0.01086   0.00000  Uiso   1.00
H133   H     0.46738   0.10798   0.36380   0.00000  Uiso   1.00
H134   H     0.40055   0.00509   0.26759   0.00000  Uiso   1.00
N135   N     0.47827   0.15223   0.23543   0.00000  Uiso   1.00
N136   N     0.52173   0.18110   0.26458   0.00000  Uiso   1.00
O137   O     0.63102   0.24629   0.25358   0.00000  Uiso   1.00
O138   O     0.50945   0.14581   0.08970   0.00000  Uiso   1.00
O139   O     0.39075   0.23704   0.24424   0.00000  Uiso   1.00
O140   O     0.64823   0.17358   0.33380   0.00000  Uiso   1.00
O141   O     0.40796   0.16433   0.32446   0.00000  Uiso   1.00
O142   O     0.60925   0.09629   0.25577   0.00000  Uiso   1.00
O143   O     0.36898   0.08704   0.24643   0.00000  Uiso   1.00
O144   O     0.59204   0.16901   0.17554   0.00000  Uiso   1.00
O145   O     0.35177   0.15976   0.16620   0.00000  Uiso   1.00
O146   O     0.37221   0.19703   0.08150   0.00000  Uiso   1.00
Zn147  Zn    0.60453   0.17284   0.25624   0.00000  Uiso   1.00
Zn148  Zn    0.39547   0.16049   0.24377   0.00000  Uiso   1.00
C149   C     0.68137   0.26474   0.25085   0.00000  Uiso   1.00
C150   C     0.73053   0.17825   0.41024   0.00000  Uiso   1.00
C151   C     0.69011   0.32009   0.25721   0.00000  Uiso   1.00
C152   C     0.70407   0.16832   0.35308   0.00000  Uiso   1.00
C153   C     0.97769   0.01432   0.25069   0.00000  Uiso   1.00
C154   C     0.98581   0.06892   0.25131   0.00000  Uiso   1.00
C155   C     0.96328   0.16484   0.14678   0.00000  Uiso   1.00
C156   C     0.96308   0.15671   0.00277   0.00000  Uiso   1.00
C157   C     0.94315   0.16737   0.08971   0.00000  Uiso   1.00
C158   C     0.70803   0.21788   0.43979   0.00000  Uiso   1.00
C159   C     0.73871   0.24046   0.49090   0.00000  Uiso   1.00
C160   C     0.81245   0.18020   0.48706   0.00000  Uiso   1.00
C161   C     0.78990   0.22068   0.01502   0.00000  Uiso   1.00
C162   C     0.70539   0.24961   0.10840   0.00000  Uiso   1.00
C163   C     0.76706   0.27697   0.12777   0.00000  Uiso   1.00
C164   C     0.77714   0.31934   0.17701   0.00000  Uiso   1.00
C165   C     0.85820   0.22787   0.30880   0.00000  Uiso   1.00
C166   C     0.91230   0.25735   0.33623   0.00000  Uiso   1.00
C167   C     0.92103   0.30137   0.37674   0.00000  Uiso   1.00
C168   C     0.87585   0.31929   0.39528   0.00000  Uiso   1.00
C169   C     0.82233   0.29340   0.37245   0.00000  Uiso   1.00
C170   C     0.81440   0.25000   0.33118   0.00000  Uiso   1.00
C171   C     0.78602   0.16130   0.43283   0.00000  Uiso   1.00
C172   C     0.84254   0.09050   0.09105   0.00000  Uiso   1.00
C173   C     0.80755   0.05718   0.03795   0.00000  Uiso   1.00
C174   C     0.74386   0.06666   0.02594   0.00000  Uiso   1.00
C175   C     0.86660   0.16525   0.01035   0.00000  Uiso   1.00
C176   C     0.90359   0.15077   0.47835   0.00000  Uiso   1.00
C177   C     0.87897   0.13071   0.42415   0.00000  Uiso   1.00
C178   C     0.81896   0.13017   0.40341   0.00000  Uiso   1.00
C179   C     0.88393   0.16092   0.06442   0.00000  Uiso   1.00
C180   C     0.98245   0.17509   0.05852   0.00000  Uiso   1.00
H181   H     0.93374   0.32998   0.24256   0.00000  Uiso   1.00
H182   H     0.68773   0.24994   0.14367   0.00000  Uiso   1.00
H183   H     0.67798   0.27370   0.08117   0.00000  Uiso   1.00
H184   H     0.79882   0.24723   0.13703   0.00000  Uiso   1.00
H185   H     0.77562   0.29786   0.09590   0.00000  Uiso   1.00
H186   H     0.74013   0.01074   0.17385   0.00000  Uiso   1.00
H187   H     0.81655   0.01198   0.18039   0.00000  Uiso   1.00
H188   H     0.78522   0.30056   0.21365   0.00000  Uiso   1.00
H189   H     0.95217   0.24952   0.33089   0.00000  Uiso   1.00
H190   H     0.96385   0.32101   0.39460   0.00000  Uiso   1.00
H191   H     0.88232   0.01918   0.42735   0.00000  Uiso   1.00
H192   H     0.82139   0.12319   0.20849   0.00000  Uiso   1.00
H193   H     0.78614   0.30706   0.38686   0.00000  Uiso   1.00
H194   H     0.77216   0.23919   0.32204   0.00000  Uiso   1.00
H195   H     0.82285   0.08182   0.12344   0.00000  Uiso   1.00
H196   H     0.88675   0.07694   0.10184   0.00000  Uiso   1.00
H197   H     0.82483   0.06544   0.00396   0.00000  Uiso   1.00
H198   H     0.81207   0.01476   0.04081   0.00000  Uiso   1.00
H199   H     0.72515   0.05549   0.05819   0.00000  Uiso   1.00
H200   H     0.72020   0.04254   0.48701   0.00000  Uiso   1.00
H201   H     0.73870   0.10888   0.02311   0.00000  Uiso   1.00
H202   H     0.90516   0.11366   0.39893   0.00000  Uiso   1.00
H203   H     0.99313   0.14926   0.47883   0.00000  Uiso   1.00
H204   H     0.66811   0.23384   0.42230   0.00000  Uiso   1.00
H205   H     0.81577   0.23979   0.05358   0.00000  Uiso   1.00
H206   H     0.72276   0.27395   0.01086   0.00000  Uiso   1.00
H207   H     0.80072   0.10798   0.36380   0.00000  Uiso   1.00
H208   H     0.73388   0.00509   0.26759   0.00000  Uiso   1.00
N209   N     0.81160   0.15223   0.23543   0.00000  Uiso   1.00
N210   N     0.85507   0.18110   0.26458   0.00000  Uiso   1.00
O211   O     0.96435   0.24629   0.25358   0.00000  Uiso   1.00
O212   O     0.84278   0.14581   0.08970   0.00000  Uiso   1.00
O213   O     0.72408   0.23704   0.24424   0.00000  Uiso   1.00
O214   O     0.98157   0.17358   0.33380   0.00000  Uiso   1.00
O215   O     0.74130   0.16433   0.32446   0.00000  Uiso   1.00
O216   O     0.94258   0.09629   0.25577   0.00000  Uiso   1.00
O217   O     0.70231   0.08704   0.24643   0.00000  Uiso   1.00
O218   O     0.92537   0.16901   0.17554   0.00000  Uiso   1.00
O219   O     0.68510   0.15976   0.16620   0.00000  Uiso   1.00
O220   O     0.70554   0.19703   0.08150   0.00000  Uiso   1.00
Zn221  Zn    0.93786   0.17284   0.25624   0.00000  Uiso   1.00
Zn222  Zn    0.72881   0.16049   0.24377   0.00000  Uiso   1.00
C223   C     0.01470   0.59808   0.25085   0.00000  Uiso   1.00
C224   C     0.06387   0.51158   0.41024   0.00000  Uiso   1.00
C225   C     0.02345   0.65343   0.25721   0.00000  Uiso   1.00
C226   C     0.03741   0.50166   0.35308   0.00000  Uiso   1.00
C227   C     0.31102   0.34765   0.25069   0.00000  Uiso   1.00
C228   C     0.31915   0.40226   0.25131   0.00000  Uiso   1.00
C229   C     0.29661   0.49817   0.14678   0.00000  Uiso   1.00
C230   C     0.29641   0.49004   0.00277   0.00000  Uiso   1.00
C231   C     0.27648   0.50071   0.08971   0.00000  Uiso   1.00
C232   C     0.04136   0.55121   0.43979   0.00000  Uiso   1.00
C233   C     0.07204   0.57379   0.49090   0.00000  Uiso   1.00
C234   C     0.14578   0.51353   0.48706   0.00000  Uiso   1.00
C235   C     0.12323   0.55401   0.01502   0.00000  Uiso   1.00
C236   C     0.03873   0.58294   0.10840   0.00000  Uiso   1.00
C237   C     0.10039   0.61031   0.12777   0.00000  Uiso   1.00
C238   C     0.11048   0.65268   0.17701   0.00000  Uiso   1.00
C239   C     0.19153   0.56121   0.30880   0.00000  Uiso   1.00
C240   C     0.24563   0.59068   0.33623   0.00000  Uiso   1.00
C241   C     0.25437   0.63470   0.37674   0.00000  Uiso   1.00
C242   C     0.20919   0.65262   0.39528   0.00000  Uiso   1.00
C243   C     0.15566   0.62673   0.37245   0.00000  Uiso   1.00
C244   C     0.14774   0.58333   0.33118   0.00000  Uiso   1.00
C245   C     0.11936   0.49463   0.43283   0.00000  Uiso   1.00
C246   C     0.17588   0.42384   0.09105   0.00000  Uiso   1.00
C247   C     0.14089   0.39051   0.03795   0.00000  Uiso   1.00
C248   C     0.07719   0.40000   0.02594   0.00000  Uiso   1.00
C249   C     0.19993   0.49858   0.01035   0.00000  Uiso   1.00
C250   C     0.23692   0.48410   0.47835   0.00000  Uiso   1.00
C251   C     0.21230   0.46404   0.42415   0.00000  Uiso   1.00
C252   C     0.15229   0.46350   0.40341   0.00000  Uiso   1.00
C253   C     0.21726   0.49425   0.06442   0.00000  Uiso   1.00
C254   C     0.31578   0.50842   0.05852   0.00000  Uiso   1.00
H255   H     0.26707   0.66332   0.24256   0.00000  Uiso   1.00
H256   H     0.02106   0.58328   0.14367   0.00000  Uiso   1.00
H257   H     0.01131   0.60703   0.08117   0.00000  Uiso   1.00
H258   H     0.13215   0.58056   0.13703   0.00000  Uiso   1.00
H259   H     0.10895   0.63120   0.09590   0.00000  Uiso   1.00
H260   H     0.07346   0.34408   0.17385   0.00000  Uiso   1.00
H261   H     0.14988   0.34531   0.18039   0.00000  Uiso   1.00
H262   H     0.11855   0.63390   0.21365   0.00000  Uiso   1.00
H263   H     0.28551   0.58285   0.33089   0.00000  Uiso   1.00
H264   H     0.29719   0.65435   0.39460   0.00000  Uiso   1.00
H265   H     0.21565   0.35251   0.42735   0.00000  Uiso   1.00
H266   H     0.15472   0.45652   0.20849   0.00000  Uiso   1.00
H267   H     0.11947   0.64039   0.38686   0.00000  Uiso   1.00
H268   H     0.10549   0.57252   0.32204   0.00000  Uiso   1.00
H269   H     0.15619   0.41516   0.12344   0.00000  Uiso   1.00
H270   H     0.22009   0.41028   0.10184   0.00000  Uiso   1.00
H271   H     0.15816   0.39877   0.00396   0.00000  Uiso   1.00
H272   H     0.14540   0.34809   0.04081   0.00000  Uiso   1.00
H273   H     0.05849   0.38882   0.05819   0.00000  Uiso   1.00
H274   H     0.05353   0.37588   0.48701   0.00000  Uiso   1.00
H275   H     0.07203   0.44221   0.02311   0.00000  Uiso   1.00
H276   H     0.23849   0.44699   0.39893   0.00000  Uiso   1.00
H277   H     0.32646   0.48259   0.47883   0.00000  Uiso   1.00
H278   H     0.00144   0.56718   0.42230   0.00000  Uiso   1.00
H279   H     0.14910   0.57312   0.05358   0.00000  Uiso   1.00
H280   H     0.05609   0.60728   0.01086   0.00000  Uiso   1.00
H281   H     0.13405   0.44132   0.36380   0.00000  Uiso   1.00
H282   H     0.06721   0.33842   0.26759   0.00000  Uiso   1.00
N283   N     0.14493   0.48556   0.23543   0.00000  Uiso   1.00
N284   N     0.18840   0.51444   0.26458   0.00000  Uiso   1.00
O285   O     0.29769   0.57963   0.25358   0.00000  Uiso   1.00
O286   O     0.17612   0.47914   0.08970   0.00000  Uiso   1.00
O287   O     0.05742   0.57038   0.24424   0.00000  Uiso   1.00
O288   O     0.31490   0.50691   0.33380   0.00000  Uiso   1.00
O289   O     0.07463   0.49766   0.32446   0.00000  Uiso   1.00
O290   O     0.27592   0.42962   0.25577   0.00000  Uiso   1.00
O291   O     0.03565   0.42037   0.24643   0.00000  Uiso   1.00
O292   O     0.25870   0.50234   0.17554   0.00000  Uiso   1.00
O293   O     0.01843   0.49309   0.16620   0.00000  Uiso   1.00
O294   O     0.03888   0.53037   0.08150   0.00000  Uiso   1.00
Zn295  Zn    0.27119   0.50618   0.25624   0.00000  Uiso   1.00
Zn296  Zn    0.06214   0.49382   0.24377   0.00000  Uiso   1.00
C297   C     0.34803   0.59808   0.25085   0.00000  Uiso   1.00
C298   C     0.39720   0.51158   0.41024   0.00000  Uiso   1.00
C299   C     0.35678   0.65343   0.25721   0.00000  Uiso   1.00
C300   C     0.37074   0.50166   0.35308   0.00000  Uiso   1.00
C301   C     0.64435   0.34765   0.25069   0.00000  Uiso   1.00
C302   C     0.65248   0.40226   0.25131   0.00000  Uiso   1.00
C303   C     0.62995   0.49817   0.14678   0.00000  Uiso   1.00
C304   C     0.62974   0.49004   0.00277   0.00000  Uiso   1.00
C305   C     0.60982   0.50071   0.08971   0.00000  Uiso   1.00
C306   C     0.37470   0.55121   0.43979   0.00000  Uiso   1.00
C307   C     0.40537   0.57379   0.49090   0.00000  Uiso   1.00
C308   C     0.47911   0.51353   0.48706   0.00000  Uiso   1.00
C309   C     0.45656   0.55401   0.01502   0.00000  Uiso   1.00
C310   C     0.37206   0.58294   0.10840   0.00000  Uiso   1.00
C311   C     0.43372   0.61031   0.12777   0.00000  Uiso   1.00
C312   C     0.44381   0.65268   0.17701   0.00000  Uiso   1.00
C313   C     0.52486   0.56121   0.30880   0.00000  Uiso   1.00
C314   C     0.57897   0.59068   0.33623   0.00000  Uiso   1.00
C315   C     0.58770   0.63470   0.37674   0.00000  Uiso   1.00
C316   C     0.54252   0.65262   0.39528   0.00000  Uiso   1.00
C317   C     0.48900   0.62673   0.37245   0.00000  Uiso   1.00
C318   C     0.48107   0.58333   0.33118   0.00000  Uiso   1.00
C319   C     0.45269   0.49463   0.43283   0.00000  Uiso   1.00
C320   C     0.50921   0.42384   0.09105   0.00000  Uiso   1.00
C321   C     0.47422   0.39051   0.03795   0.00000  Uiso   1.00
C322   C     0.41052   0.40000   0.02594   0.00000  Uiso   1.00
C323   C     0.53327   0.49858   0.01035   0.00000  Uiso   1.00
C324   C     0.57025   0.48410   0.47835   0.00000  Uiso   1.00
C325   C     0.54564   0.46404   0.42415   0.00000  Uiso   1.00
C326   C     0.48562   0.46350   0.40341   0.00000  Uiso   1.00
C327   C     0.55060   0.49425   0.06442   0.00000  Uiso   1.00
C328   C     0.64911   0.50842   0.05852   0.00000  Uiso   1.00
H329   H     0.60040   0.66332   0.24256   0.00000  Uiso   1.00
H330   H     0.35439   0.58328   0.14367   0.00000  Uiso   1.00
H331   H     0.34465   0.60703   0.08117   0.00000  Uiso   1.00
H332   H     0.46548   0.58056   0.13703   0.00000  Uiso   1.00
H333   H     0.44229   0.63120   0.09590   0.00000  Uiso   1.00
H334   H     0.40680   0.34408   0.17385   0.00000  Uiso   1.00
H335   H     0.48321   0.34531   0.18039   0.00000  Uiso   1.00
H336   H     0.45189   0.63390   0.21365   0.00000  Uiso   1.00
H337   H     0.61884   0.58285   0.33089   0.00000  Uiso   1.00
H338   H     0.63052   0.65435   0.39460   0.00000  Uiso   1.00
H339   H     0.54899   0.35251   0.42735   0.00000  Uiso   1.00
H340   H     0.48805   0.45652   0.20849   0.00000  Uiso   1.00
H341   H     0.45281   0.64039   0.38686   0.00000  Uiso   1.00
H342   H     0.43882   0.57252   0.32204   0.00000  Uiso   1.00
H343   H     0.48952   0.41516   0.12344   0.00000  Uiso   1.00
H344   H     0.55342   0.41028   0.10184   0.00000  Uiso   1.00
H345   H     0.49149   0.39877   0.00396   0.00000  Uiso   1.00
H346   H     0.47873   0.34809   0.04081   0.00000  Uiso   1.00
H347   H     0.39182   0.38882   0.05819   0.00000  Uiso   1.00
H348   H     0.38687   0.37588   0.48701   0.00000  Uiso   1.00
H349   H     0.40537   0.44221   0.02311   0.00000  Uiso   1.00
H350   H     0.57183   0.44699   0.39893   0.00000  Uiso   1.00
H351   H     0.65980   0.48259   0.47883   0.00000  Uiso   1.00
H352   H     0.33478   0.56718   0.42230   0.00000  Uiso   1.00
H353   H     0.48243   0.57312   0.05358   0.00000  Uiso   1.00
H354   H     0.38942   0.60728   0.01086   0.00000  Uiso   1.00
H355   H     0.46738   0.44132   0.36380   0.00000  Uiso   1.00
H356   H     0.40055   0.33842   0.26759   0.00000  Uiso   1.00
N357   N     0.47827   0.48556   0.23543   0.00000  Uiso   1.00
N358   N     0.52173   0.51444   0.26458   0.00000  Uiso   1.00
O359   O     0.63102   0.57963   0.25358   0.00000  Uiso   1.00
O360   O     0.50945   0.47914   0.08970   0.00000  Uiso   1.00
O361   O     0.39075   0.57038   0.24424   0.00000  Uiso   1.00
O362   O     0.64823   0.50691   0.33380   0.00000  Uiso   1.00
O363   O     0.40796   0.49766   0.32446   0.00000  Uiso   1.00
O364   O     0.60925   0.42962   0.25577   0.00000  Uiso   1.00
O365   O     0.36898   0.42037   0.24643   0.00000  Uiso   1.00
O366   O     0.59204   0.50234   0.17554   0.00000  Uiso   1.00
O367   O     0.35177   0.49309   0.16620   0.00000  Uiso   1.00
O368   O     0.37221   0.53037   0.08150   0.00000  Uiso   1.00
Zn369  Zn    0.60453   0.50618   0.25624   0.00000  Uiso   1.00
Zn370  Zn    0.39547   0.49382   0.24377   0.00000  Uiso   1.00
C371   C     0.68137   0.59808   0.25085   0.00000  Uiso   1.00
C372   C     0.73053   0.51158   0.41024   0.00000  Uiso   1.00
C373   C     0.69011   0.65343   0.25721   0.00000  Uiso   1.00
C374   C     0.70407   0.50166   0.35308   0.00000  Uiso   1.00
C375   C     0.97769   0.34765   0.25069   0.00000  Uiso   1.00
C376   C     0.98581   0.40226   0.25131   0.00000  Uiso   1.00
C377   C     0.96328   0.49817   0.14678   0.00000  Uiso   1.00
C378   C     0.96308   0.49004   0.00277   0.00000  Uiso   1.00
C379   C     0.94315   0.50071   0.08971   0.00000  Uiso   1.00
C380   C     0.70803   0.55121   0.43979   0.00000  Uiso   1.00
C381   C     0.73871   0.57379   0.49090   0.00000  Uiso   1.00
C382   C     0.81245   0.51353   0.48706   0.00000  Uiso   1.00
C383   C     0.78990   0.55401   0.01502   0.00000  Uiso   1.00
C384   C     0.70539   0.58294   0.10840   0.00000  Uiso   1.00
C385   C     0.76706   0.61031   0.12777   0.00000  Uiso   1.00
C386   C     0.77714   0.65268   0.17701   0.00000  Uiso   1.00
C387   C     0.85820   0.56121   0.30880   0.00000  Uiso   1.00
C388   C     0.91230   0.59068   0.33623   0.00000  Uiso   1.00
C389   C     0.92103   0.63470   0.37674   0.00000  Uiso   1.00
C390   C     0.87585   0.65262   0.39528   0.00000  Uiso   1.00
C391   C     0.82233   0.62673   0.37245   0.00000  Uiso   1.00
C392   C     0.81440   0.58333   0.33118   0.00000  Uiso   1.00
C393   C     0.78602   0.49463   0.43283   0.00000  Uiso   1.00
C394   C     0.84254   0.42384   0.09105   0.00000  Uiso   1.00
C395   C     0.80755   0.39051   0.03795   0.00000  Uiso   1.00
C396   C     0.74386   0.40000   0.02594   0.00000  Uiso   1.00
C397   C     0.86660   0.49858   0.01035   0.00000  Uiso   1.00
C398   C     0.90359   0.48410   0.47835   0.00000  Uiso   1.00
C399   C     0.87897   0.46404   0.42415   0.00000  Uiso   1.00
C400   C     0.81896   0.46350   0.40341   0.00000  Uiso   1.00
C401   C     0.88393   0.49425   0.06442   0.00000  Uiso   1.00
C402   C     0.98245   0.50842   0.05852   0.00000  Uiso   1.00
H403   H     0.93374   0.66332   0.24256   0.00000  Uiso   1.00
H404   H     0.68773   0.58328   0.14367   0.00000  Uiso   1.00
H405   H     0.67798   0.60703   0.08117   0.00000  Uiso   1.00
H406   H     0.79882   0.58056   0.13703   0.00000  Uiso   1.00
H407   H     0.77562   0.63120   0.09590   0.00000  Uiso   1.00
H408   H     0.74013   0.34408   0.17385   0.00000  Uiso   1.00
H409   H     0.81655   0.34531   0.18039   0.00000  Uiso   1.00
H410   H     0.78522   0.63390   0.21365   0.00000  Uiso   1.00
H411   H     0.95217   0.58285   0.33089   0.00000  Uiso   1.00
H412   H     0.96385   0.65435   0.39460   0.00000  Uiso   1.00
H413   H     0.88232   0.35251   0.42735   0.00000  Uiso   1.00
H414   H     0.82139   0.45652   0.20849   0.00000  Uiso   1.00
H415   H     0.78614   0.64039   0.38686   0.00000  Uiso   1.00
H416   H     0.77216   0.57252   0.32204   0.00000  Uiso   1.00
H417   H     0.82285   0.41516   0.12344   0.00000  Uiso   1.00
H418   H     0.88675   0.41028   0.10184   0.00000  Uiso   1.00
H419   H     0.82483   0.39877   0.00396   0.00000  Uiso   1.00
H420   H     0.81207   0.34809   0.04081   0.00000  Uiso   1.00
H421   H     0.72515   0.38882   0.05819   0.00000  Uiso   1.00
H422   H     0.72020   0.37588   0.48701   0.00000  Uiso   1.00
H423   H     0.73870   0.44221   0.02311   0.00000  Uiso   1.00
H424   H     0.90516   0.44699   0.39893   0.00000  Uiso   1.00
H425   H     0.99313   0.48259   0.47883   0.00000  Uiso   1.00
H426   H     0.66811   0.56718   0.42230   0.00000  Uiso   1.00
H427   H     0.81577   0.57312   0.05358   0.00000  Uiso   1.00
H428   H     0.72276   0.60728   0.01086   0.00000  Uiso   1.00
H429   H     0.80072   0.44132   0.36380   0.00000  Uiso   1.00
H430   H     0.73388   0.33842   0.26759   0.00000  Uiso   1.00
N431   N     0.81160   0.48556   0.23543   0.00000  Uiso   1.00
N432   N     0.85507   0.51444   0.26458   0.00000  Uiso   1.00
O433   O     0.96435   0.57963   0.25358   0.00000  Uiso   1.00
O434   O     0.84278   0.47914   0.08970   0.00000  Uiso   1.00
O435   O     0.72408   0.57038   0.24424   0.00000  Uiso   1.00
O436   O     0.98157   0.50691   0.33380   0.00000  Uiso   1.00
O437   O     0.74130   0.49766   0.32446   0.00000  Uiso   1.00
O438   O     0.94258   0.42962   0.25577   0.00000  Uiso   1.00
O439   O     0.70231   0.42037   0.24643   0.00000  Uiso   1.00
O440   O     0.92537   0.50234   0.17554   0.00000  Uiso   1.00
O441   O     0.68510   0.49309   0.16620   0.00000  Uiso   1.00
O442   O     0.70554   0.53037   0.08150   0.00000  Uiso   1.00
Zn443  Zn    0.93786   0.50618   0.25624   0.00000  Uiso   1.00
Zn444  Zn    0.72881   0.49382   0.24377   0.00000  Uiso   1.00
C445   C     0.01470   0.93141   0.25085   0.00000  Uiso   1.00
C446   C     0.06387   0.84491   0.41024   0.00000  Uiso   1.00
C447   C     0.02345   0.98676   0.25721   0.00000  Uiso   1.00
C448   C     0.03741   0.83499   0.35308   0.00000  Uiso   1.00
C449   C     0.31102   0.68099   0.25069   0.00000  Uiso   1.00
C450   C     0.31915   0.73559   0.25131   0.00000  Uiso   1.00
C451   C     0.29661   0.83150   0.14678   0.00000  Uiso   1.00
C452   C     0.29641   0.82338   0.00277   0.00000  Uiso   1.00
C453   C     0.27648   0.83404   0.08971   0.00000  Uiso   1.00
C454   C     0.04136   0.88455   0.43979   0.00000  Uiso   1.00
C455   C     0.07204   0.90712   0.49090   0.00000  Uiso   1.00
C456   C     0.14578   0.84687   0.48706   0.00000  Uiso   1.00
C457   C     0.12323   0.88735   0.01502   0.00000  Uiso   1.00
C458   C     0.03873   0.91628   0.10840   0.00000  Uiso   1.00
C459   C     0.10039   0.94364   0.12777   0.00000  Uiso   1.00
C460   C     0.11048   0.98601   0.17701   0.00000  Uiso   1.00
C461   C     0.19153   0.89454   0.30880   0.00000  Uiso   1.00
C462   C     0.24563   0.92401   0.33623   0.00000  Uiso   1.00
C463   C     0.25437   0.96803   0.37674   0.00000  Uiso   1.00
C464   C     0.20919   0.98595   0.39528   0.00000  Uiso   1.00
C465   C     0.15566   0.96006   0.37245   0.00000  Uiso   1.00
C466   C     0.14774   0.91666   0.33118   0.00000  Uiso   1.00
C467   C     0.11936   0.82796   0.43283   0.00000  Uiso   1.00
C468   C     0.17588   0.75717   0.09105   0.00000  Uiso   1.00
C469   C     0.14089   0.72384   0.03795   0.00000  Uiso   1.00
C470   C     0.07719   0.73333   0.02594   0.00000  Uiso   1.00
C471   C     0.19993   0.83192   0.01035   0.00000  Uiso   1.00
C472   C     0.23692   0.81743   0.47835   0.00000  Uiso   1.00
C473   C     0.21230   0.79738   0.42415   0.00000  Uiso   1.00
C474   C     0.15229   0.79683   0.40341   0.00000  Uiso   1.00
C475   C     0.21726   0.82759   0.06442   0.00000  Uiso   1.00
C476   C     0.31578   0.84175   0.05852   0.00000  Uiso   1.00
H477   H     0.26707   0.99665   0.24256   0.00000  Uiso   1.00
H478   H     0.02106   0.91661   0.14367   0.00000  Uiso   1.00
H479   H     0.01131   0.94036   0.08117   0.00000  Uiso   1.00
H480   H     0.13215   0.91390   0.13703   0.00000  Uiso   1.00
H481   H     0.10895   0.96453   0.09590   0.00000  Uiso   1.00
H482   H     0.07346   0.67741   0.17385   0.00000  Uiso   1.00
H483   H     0.14988   0.67864   0.18039   0.00000  Uiso   1.00
H484   H     0.11855   0.96723   0.21365   0.00000  Uiso   1.00
H485   H     0.28551   0.91619   0.33089   0.00000  Uiso   1.00
H486   H     0.29719   0.98768   0.39460   0.00000  Uiso   1.00
H487   H     0.21565   0.68585   0.42735   0.00000  Uiso   1.00
H488   H     0.15472   0.78985   0.20849   0.00000  Uiso   1.00
H489   H     0.11947   0.97373   0.38686   0.00000  Uiso   1.00
H490   H     0.10549   0.90586   0.32204   0.00000  Uiso   1.00
H491   H     0.15619   0.74849   0.12344   0.00000  Uiso   1.00
H492   H     0.22009   0.74361   0.10184   0.00000  Uiso   1.00
H493   H     0.15816   0.73211   0.00396   0.00000  Uiso   1.00
H494   H     0.14540   0.68143   0.04081   0.00000  Uiso   1.00
H495   H     0.05849   0.72215   0.05819   0.00000  Uiso   1.00
H496   H     0.05353   0.70921   0.48701   0.00000  Uiso   1.00
H497   H     0.07203   0.77555   0.02311   0.00000  Uiso   1.00
H498   H     0.23849   0.78032   0.39893   0.00000  Uiso   1.00
H499   H     0.32646   0.81592   0.47883   0.00000  Uiso   1.00
H500   H     0.00144   0.90051   0.42230   0.00000  Uiso   1.00
H501   H     0.14910   0.90646   0.05358   0.00000  Uiso   1.00
H502   H     0.05609   0.94061   0.01086   0.00000  Uiso   1.00
H503   H     0.13405   0.77465   0.36380   0.00000  Uiso   1.00
H504   H     0.06721   0.67175   0.26759   0.00000  Uiso   1.00
N505   N     0.14493   0.81890   0.23543   0.00000  Uiso   1.00
N506   N     0.18840   0.84777   0.26458   0.00000  Uiso   1.00
O507   O     0.29769   0.91296   0.25358   0.00000  Uiso   1.00
O508   O     0.17612   0.81247   0.08970   0.00000  Uiso   1.00
O509   O     0.05742   0.90371   0.24424   0.00000  Uiso   1.00
O510   O     0.31490   0.84024   0.33380   0.00000  Uiso   1.00
O511   O     0.07463   0.83099   0.32446   0.00000  Uiso   1.00
O512   O     0.27592   0.76296   0.25577   0.00000  Uiso   1.00
O513   O     0.03565   0.75371   0.24643   0.00000  Uiso   1.00
O514   O     0.25870   0.83567   0.17554   0.00000  Uiso   1.00
O515   O     0.01843   0.82642   0.16620   0.00000  Uiso   1.00
O516   O     0.03888   0.86370   0.08150   0.00000  Uiso   1.00
Zn517  Zn    0.27119   0.83951   0.25624   0.00000  Uiso   1.00
Zn518  Zn    0.06214   0.82716   0.24377   0.00000  Uiso   1.00
C519   C     0.34803   0.93141   0.25085   0.00000  Uiso   1.00
C520   C     0.39720   0.84491   0.41024   0.00000  Uiso   1.00
C521   C     0.35678   0.98676   0.25721   0.00000  Uiso   1.00
C522   C     0.37074   0.83499   0.35308   0.00000  Uiso   1.00
C523   C     0.64435   0.68099   0.25069   0.00000  Uiso   1.00
C524   C     0.65248   0.73559   0.25131   0.00000  Uiso   1.00
C525   C     0.62995   0.83150   0.14678   0.00000  Uiso   1.00
C526   C     0.62974   0.82338   0.00277   0.00000  Uiso   1.00
C527   C     0.60982   0.83404   0.08971   0.00000  Uiso   1.00
C528   C     0.37470   0.88455   0.43979   0.00000  Uiso   1.00
C529   C     0.40537   0.90712   0.49090   0.00000  Uiso   1.00
C530   C     0.47911   0.84687   0.48706   0.00000  Uiso   1.00
C531   C     0.45656   0.88735   0.01502   0.00000  Uiso   1.00
C532   C     0.37206   0.91628   0.10840   0.00000  Uiso   1.00
C533   C     0.43372   0.94364   0.12777   0.00000  Uiso   1.00
C534   C     0.44381   0.98601   0.17701   0.00000  Uiso   1.00
C535   C     0.52486   0.89454   0.30880   0.00000  Uiso   1.00
C536   C     0.57897   0.92401   0.33623   0.00000  Uiso   1.00
C537   C     0.58770   0.96803   0.37674   0.00000  Uiso   1.00
C538   C     0.54252   0.98595   0.39528   0.00000  Uiso   1.00
C539   C     0.48900   0.96006   0.37245   0.00000  Uiso   1.00
C540   C     0.48107   0.91666   0.33118   0.00000  Uiso   1.00
C541   C     0.45269   0.82796   0.43283   0.00000  Uiso   1.00
C542   C     0.50921   0.75717   0.09105   0.00000  Uiso   1.00
C543   C     0.47422   0.72384   0.03795   0.00000  Uiso   1.00
C544   C     0.41052   0.73333   0.02594   0.00000  Uiso   1.00
C545   C     0.53327   0.83192   0.01035   0.00000  Uiso   1.00
C546   C     0.57025   0.81743   0.47835   0.00000  Uiso   1.00
C547   C     0.54564   0.79738   0.42415   0.00000  Uiso   1.00
C548   C     0.48562   0.79683   0.40341   0.00000  Uiso   1.00
C549   C     0.55060   0.82759   0.06442   0.00000  Uiso   1.00
C550   C     0.64911   0.84175   0.05852   0.00000  Uiso   1.00
H551   H     0.60040   0.99665   0.24256   0.00000  Uiso   1.00
H552   H     0.35439   0.91661   0.14367   0.00000  Uiso   1.00
H553   H     0.34465   0.94036   0.08117   0.00000  Uiso   1.00
H554   H     0.46548   0.91390   0.13703   0.00000  Uiso   1.00
H555   H     0.44229   0.96453   0.09590   0.00000  Uiso   1.00
H556   H     0.40680   0.67741   0.17385   0.00000  Uiso   1.00
H557   H     0.48321   0.67864   0.18039   0.00000  Uiso   1.00
H558   H     0.45189   0.96723   0.21365   0.00000  Uiso   1.00
H559   H     0.61884   0.91619   0.33089   0.00000  Uiso   1.00
H560   H     0.63052   0.98768   0.39460   0.00000  Uiso   1.00
H561   H     0.54899   0.68585   0.42735   0.00000  Uiso   1.00
H562   H     0.48805   0.78985   0.20849   0.00000  Uiso   1.00
H563   H     0.45281   0.97373   0.38686   0.00000  Uiso   1.00
H564   H     0.43882   0.90586   0.32204   0.00000  Uiso   1.00
H565   H     0.48952   0.74849   0.12344   0.00000  Uiso   1.00
H566   H     0.55342   0.74361   0.10184   0.00000  Uiso   1.00
H567   H     0.49149   0.73211   0.00396   0.00000  Uiso   1.00
H568   H     0.47873   0.68143   0.04081   0.00000  Uiso   1.00
H569   H     0.39182   0.72215   0.05819   0.00000  Uiso   1.00
H570   H     0.38687   0.70921   0.48701   0.00000  Uiso   1.00
H571   H     0.40537   0.77555   0.02311   0.00000  Uiso   1.00
H572   H     0.57183   0.78032   0.39893   0.00000  Uiso   1.00
H573   H     0.65980   0.81592   0.47883   0.00000  Uiso   1.00
H574   H     0.33478   0.90051   0.42230   0.00000  Uiso   1.00
H575   H     0.48243   0.90646   0.05358   0.00000  Uiso   1.00
H576   H     0.38942   0.94061   0.01086   0.00000  Uiso   1.00
H577   H     0.46738   0.77465   0.36380   0.00000  Uiso   1.00
H578   H     0.40055   0.67175   0.26759   0.00000  Uiso   1.00
N579   N     0.47827   0.81890   0.23543   0.00000  Uiso   1.00
N580   N     0.52173   0.84777   0.26458   0.00000  Uiso   1.00
O581   O     0.63102   0.91296   0.25358   0.00000  Uiso   1.00
O582   O     0.50945   0.81247   0.08970   0.00000  Uiso   1.00
O583   O     0.39075   0.90371   0.24424   0.00000  Uiso   1.00
O584   O     0.64823   0.84024   0.33380   0.00000  Uiso   1.00
O585   O     0.40796   0.83099   0.32446   0.00000  Uiso   1.00
O586   O     0.60925   0.76296   0.25577   0.00000  Uiso   1.00
O587   O     0.36898   0.75371   0.24643   0.00000  Uiso   1.00
O588   O     0.59204   0.83567   0.17554   0.00000  Uiso   1.00
O589   O     0.35177   0.82642   0.16620   0.00000  Uiso   1.00
O590   O     0.37221   0.86370   0.08150   0.00000  Uiso   1.00
Zn591  Zn    0.60453   0.83951   0.25624   0.00000  Uiso   1.00
Zn592  Zn    0.39547   0.82716   0.24377   0.00000  Uiso   1.00
C593   C     0.68137   0.93141   0.25085   0.00000  Uiso   1.00
C594   C     0.73053   0.84491   0.41024   0.00000  Uiso   1.00
C595   C     0.69011   0.98676   0.25721   0.00000  Uiso   1.00
C596   C     0.70407   0.83499   0.35308   0.00000  Uiso   1.00
C597   C     0.97769   0.68099   0.25069   0.00000  Uiso   1.00
C598   C     0.98581   0.73559   0.25131   0.00000  Uiso   1.00
C599   C     0.96328   0.83150   0.14678   0.00000  Uiso   1.00
C600   C     0.96308   0.82338   0.00277   0.00000  Uiso   1.00
C601   C     0.94315   0.83404   0.08971   0.00000  Uiso   1.00
C602   C     0.70803   0.88455   0.43979   0.00000  Uiso   1.00
C603   C     0.73871   0.90712   0.49090   0.00000  Uiso   1.00
C604   C     0.81245   0.84687   0.48706   0.00000  Uiso   1.00
C605   C     0.78990   0.88735   0.01502   0.00000  Uiso   1.00
C606   C     0.70539   0.91628   0.10840   0.00000  Uiso   1.00
C607   C     0.76706   0.94364   0.12777   0.00000  Uiso   1.00
C608   C     0.77714   0.98601   0.17701   0.00000  Uiso   1.00
C609   C     0.85820   0.89454   0.30880   0.00000  Uiso   1.00
C610   C     0.91230   0.92401   0.33623   0.00000  Uiso   1.00
C611   C     0.92103   0.96803   0.37674   0.00000  Uiso   1.00
C612   C     0.87585   0.98595   0.39528   0.00000  Uiso   1.00
C613   C     0.82233   0.96006   0.37245   0.00000  Uiso   1.00
C614   C     0.81440   0.91666   0.33118   0.00000  Uiso   1.00
C615   C     0.78602   0.82796   0.43283   0.00000  Uiso   1.00
C616   C     0.84254   0.75717   0.09105   0.00000  Uiso   1.00
C617   C     0.80755   0.72384   0.03795   0.00000  Uiso   1.00
C618   C     0.74386   0.73333   0.02594   0.00000  Uiso   1.00
C619   C     0.86660   0.83192   0.01035   0.00000  Uiso   1.00
C620   C     0.90359   0.81743   0.47835   0.00000  Uiso   1.00
C621   C     0.87897   0.79738   0.42415   0.00000  Uiso   1.00
C622   C     0.81896   0.79683   0.40341   0.00000  Uiso   1.00
C623   C     0.88393   0.82759   0.06442   0.00000  Uiso   1.00
C624   C     0.98245   0.84175   0.05852   0.00000  Uiso   1.00
H625   H     0.93374   0.99665   0.24256   0.00000  Uiso   1.00
H626   H     0.68773   0.91661   0.14367   0.00000  Uiso   1.00
H627   H     0.67798   0.94036   0.08117   0.00000  Uiso   1.00
H628   H     0.79882   0.91390   0.13703   0.00000  Uiso   1.00
H629   H     0.77562   0.96453   0.09590   0.00000  Uiso   1.00
H630   H     0.74013   0.67741   0.17385   0.00000  Uiso   1.00
H631   H     0.81655   0.67864   0.18039   0.00000  Uiso   1.00
H632   H     0.78522   0.96723   0.21365   0.00000  Uiso   1.00
H633   H     0.95217   0.91619   0.33089   0.00000  Uiso   1.00
H634   H     0.96385   0.98768   0.39460   0.00000  Uiso   1.00
H635   H     0.88232   0.68585   0.42735   0.00000  Uiso   1.00
H636   H     0.82139   0.78985   0.20849   0.00000  Uiso   1.00
H637   H     0.78614   0.97373   0.38686   0.00000  Uiso   1.00
H638   H     0.77216   0.90586   0.32204   0.00000  Uiso   1.00
H639   H     0.82285   0.74849   0.12344   0.00000  Uiso   1.00
H640   H     0.88675   0.74361   0.10184   0.00000  Uiso   1.00
H641   H     0.82483   0.73211   0.00396   0.00000  Uiso   1.00
H642   H     0.81207   0.68143   0.04081   0.00000  Uiso   1.00
H643   H     0.72515   0.72215   0.05819   0.00000  Uiso   1.00
H644   H     0.72020   0.70921   0.48701   0.00000  Uiso   1.00
H645   H     0.73870   0.77555   0.02311   0.00000  Uiso   1.00
H646   H     0.90516   0.78032   0.39893   0.00000  Uiso   1.00
H647   H     0.99313   0.81592   0.47883   0.00000  Uiso   1.00
H648   H     0.66811   0.90051   0.42230   0.00000  Uiso   1.00
H649   H     0.81577   0.90646   0.05358   0.00000  Uiso   1.00
H650   H     0.72276   0.94061   0.01086   0.00000  Uiso   1.00
H651   H     0.80072   0.77465   0.36380   0.00000  Uiso   1.00
H652   H     0.73388   0.67175   0.26759   0.00000  Uiso   1.00
N653   N     0.81160   0.81890   0.23543   0.00000  Uiso   1.00
N654   N     0.85507   0.84777   0.26458   0.00000  Uiso   1.00
O655   O     0.96435   0.91296   0.25358   0.00000  Uiso   1.00
O656   O     0.84278   0.81247   0.08970   0.00000  Uiso   1.00
O657   O     0.72408   0.90371   0.24424   0.00000  Uiso   1.00
O658   O     0.98157   0.84024   0.33380   0.00000  Uiso   1.00
O659   O     0.74130   0.83099   0.32446   0.00000  Uiso   1.00
O660   O     0.94258   0.76296   0.25577   0.00000  Uiso   1.00
O661   O     0.70231   0.75371   0.24643   0.00000  Uiso   1.00
O662   O     0.92537   0.83567   0.17554   0.00000  Uiso   1.00
O663   O     0.68510   0.82642   0.16620   0.00000  Uiso   1.00
O664   O     0.70554   0.86370   0.08150   0.00000  Uiso   1.00
Zn665  Zn    0.93786   0.83951   0.25624   0.00000  Uiso   1.00
Zn666  Zn    0.72881   0.82716   0.24377   0.00000  Uiso   1.00
C667   C     0.01470   0.26474   0.75085   0.00000  Uiso   1.00
C668   C     0.06387   0.17825   0.91024   0.00000  Uiso   1.00
C669   C     0.02345   0.32009   0.75721   0.00000  Uiso   1.00
C670   C     0.03741   0.16832   0.85308   0.00000  Uiso   1.00
C671   C     0.31102   0.01432   0.75069   0.00000  Uiso   1.00
C672   C     0.31915   0.06892   0.75131   0.00000  Uiso   1.00
C673   C     0.29661   0.16484   0.64678   0.00000  Uiso   1.00
C674   C     0.29641   0.15671   0.50277   0.00000  Uiso   1.00
C675   C     0.27648   0.16737   0.58971   0.00000  Uiso   1.00
C676   C     0.04136   0.21788   0.93979   0.00000  Uiso   1.00
C677   C     0.07204   0.24046   0.99090   0.00000  Uiso   1.00
C678   C     0.14578   0.18020   0.98706   0.00000  Uiso   1.00
C679   C     0.12323   0.22068   0.51502   0.00000  Uiso   1.00
C680   C     0.03873   0.24961   0.60840   0.00000  Uiso   1.00
C681   C     0.10039   0.27697   0.62777   0.00000  Uiso   1.00
C682   C     0.11048   0.31934   0.67701   0.00000  Uiso   1.00
C683   C     0.19153   0.22787   0.80880   0.00000  Uiso   1.00
C684   C     0.24563   0.25735   0.83623   0.00000  Uiso   1.00
C685   C     0.25437   0.30137   0.87674   0.00000  Uiso   1.00
C686   C     0.20919   0.31929   0.89528   0.00000  Uiso   1.00
C687   C     0.15566   0.29340   0.87245   0.00000  Uiso   1.00
C688   C     0.14774   0.25000   0.83118   0.00000  Uiso   1.00
C689   C     0.11936   0.16130   0.93283   0.00000  Uiso   1.00
C690   C     0.17588   0.09050   0.59105   0.00000  Uiso   1.00
C691   C     0.14089   0.05718   0.53795   0.00000  Uiso   1.00
C692   C     0.07719   0.06666   0.52594   0.00000  Uiso   1.00
C693   C     0.19993   0.16525   0.51035   0.00000  Uiso   1.00
C694   C     0.23692   0.15077   0.97835   0.00000  Uiso   1.00
C695   C     0.21230   0.13071   0.92415   0.00000  Uiso   1.00
C696   C     0.15229   0.13017   0.90341   0.00000  Uiso   1.00
C697   C     0.21726   0.16092   0.56442   0.00000  Uiso   1.00
C698   C     0.31578   0.17509   0.55852   0.00000  Uiso   1.00
H699   H     0.26707   0.32998   0.74256   0.00000  Uiso   1.00
H700   H     0.02106   0.24994   0.64367   0.00000  Uiso   1.00
H701   H     0.01131   0.27370   0.58117   0.00000  Uiso   1.00
H702   H     0.13215   0.24723   0.63703   0.00000  Uiso   1.00
H703   H     0.10895   0.29786   0.59590   0.00000  Uiso   1.00
H704   H     0.07346   0.01074   0.67385   0.00000  Uiso   1.00
H705   H     0.14988   0.01198   0.68039   0.00000  Uiso   1.00
H706   H     0.11855   0.30056   0.71365   0.00000  Uiso   1.00
H707   H     0.28551   0.24952   0.83089   0.00000  Uiso   1.00
H708   H     0.29719   0.32101   0.89460   0.00000  Uiso   1.00
H709   H     0.21565   0.01918   0.92735   0.00000  Uiso   1.00
H710   H     0.15472   0.12319   0.70849   0.00000  Uiso   1.00
H711   H     0.11947   0.30706   0.88686   0.00000  Uiso   1.00
H712   H     0.10549   0.23919   0.82204   0.00000  Uiso   1.00
H713   H     0.15619   0.08182   0.62344   0.00000  Uiso   1.00
H714   H     0.22009   0.07694   0.60184   0.00000  Uiso   1.00
H715   H     0.15816   0.06544   0.50396   0.00000  Uiso   1.00
H716   H     0.14540   0.01476   0.54081   0.00000  Uiso   1.00
H717   H     0.05849   0.05549   0.55819   0.00000  Uiso   1.00
H718   H     0.05353   0.04254   0.98701   0.00000  Uiso   1.00
H719   H     0.07203   0.10888   0.52311   0.00000  Uiso   1.00
H720   H     0.23849   0.11366   0.89893   0.00000  Uiso   1.00
H721   H     0.32646   0.14926   0.97883   0.00000  Uiso   1.00
H722   H     0.00144   0.23384   0.92230   0.00000  Uiso   1.00
H723   H     0.14910   0.23979   0.55358   0.00000  Uiso   1.00
H724   H     0.05609   0.27395   0.51086   0.00000  Uiso   1.00
H725   H     0.13405   0.10798   0.86380   0.00000  Uiso   1.00
H726   H     0.06721   0.00509   0.76759   0.00000  Uiso   1.00
N727   N     0.14493   0.15223   0.73543   0.00000  Uiso   1.00
N728   N     0.18840   0.18110   0.76458   0.00000  Uiso   1.00
O729   O     0.29769   0.24629   0.75358   0.00000  Uiso   1.00
O730   O     0.17612   0.14581   0.58970   0.00000  Uiso   1.00
O731   O     0.05742   0.23704   0.74424   0.00000  Uiso   1.00
O732   O     0.31490   0.17358   0.83380   0.00000  Uiso   1.00
O733   O     0.07463   0.16433   0.82446   0.00000  Uiso   1.00
O734   O     0.27592   0.09629   0.75577   0.00000  Uiso   1.00
O735   O     0.03565   0.08704   0.74643   0.00000  Uiso   1.00
O736   O     0.25870   0.16901   0.67554   0.00000  Uiso   1.00
O737   O     0.01843   0.15976   0.66620   0.00000  Uiso   1.00
O738   O     0.03888   0.19703   0.58150   0.00000  Uiso   1.00
Zn739  Zn    0.27119   0.17284   0.75624   0.00000  Uiso   1.00
Zn740  Zn    0.06214   0.16049   0.74377   0.00000  Uiso   1.00
C741   C     0.34803   0.26474   0.75085   0.00000  Uiso   1.00
C742   C     0.39720   0.17825   0.91024   0.00000  Uiso   1.00
C743   C     0.35678   0.32009   0.75721   0.00000  Uiso   1.00
C744   C     0.37074   0.16832   0.85308   0.00000  Uiso   1.00
C745   C     0.64435   0.01432   0.75069   0.00000  Uiso   1.00
C746   C     0.65248   0.06892   0.75131   0.00000  Uiso   1.00
C747   C     0.62995   0.16484   0.64678   0.00000  Uiso   1.00
C748   C     0.62974   0.15671   0.50277   0.00000  Uiso   1.00
C749   C     0.60982   0.16737   0.58971   0.00000  Uiso   1.00
C750   C     0.37470   0.21788   0.93979   0.00000  Uiso   1.00
C751   C     0.40537   0.24046   0.99090   0.00000  Uiso   1.00
C752   C     0.47911   0.18020   0.98706   0.00000  Uiso   1.00
C753   C     0.45656   0.22068   0.51502   0.00000  Uiso   1.00
C754   C     0.37206   0.24961   0.60840   0.00000  Uiso   1.00
C755   C     0.43372   0.27697   0.62777   0.00000  Uiso   1.00
C756   C     0.44381   0.31934   0.67701   0.00000  Uiso   1.00
C757   C     0.52486   0.22787   0.80880   0.00000  Uiso   1.00
C758   C     0.57897   0.25735   0.83623   0.00000  Uiso   1.00
C759   C     0.58770   0.30137   0.87674   0.00000  Uiso   1.00
C760   C     0.54252   0.31929   0.89528   0.00000  Uiso   1.00
C761   C     0.48900   0.29340   0.87245   0.00000  Uiso   1.00
C762   C     0.48107   0.25000   0.83118   0.00000  Uiso   1.00
C763   C     0.45269   0.16130   0.93283   0.00000  Uiso   1.00
C764   C     0.50921   0.09050   0.59105   0.00000  Uiso   1.00
C765   C     0.47422   0.05718   0.53795   0.00000  Uiso   1.00
C766   C     0.41052   0.06666   0.52594   0.00000  Uiso   1.00
C767   C     0.53327   0.16525   0.51035   0.00000  Uiso   1.00
C768   C     0.57025   0.15077   0.97835   0.00000  Uiso   1.00
C769   C     0.54564   0.13071   0.92415   0.00000  Uiso   1.00
C770   C     0.48562   0.13017   0.90341   0.00000  Uiso   1.00
C771   C     0.55060   0.16092   0.56442   0.00000  Uiso   1.00
C772   C     0.64911   0.17509   0.55852   0.00000  Uiso   1.00
H773   H     0.60040   0.32998   0.74256   0.00000  Uiso   1.00
H774   H     0.35439   0.24994   0.64367   0.00000  Uiso   1.00
H775   H     0.34465   0.27370   0.58117   0.00000  Uiso   1.00
H776   H     0.46548   0.24723   0.63703   0.00000  Uiso   1.00
H777   H     0.44229   0.29786   0.59590   0.00000  Uiso   1.00
H778   H     0.40680   0.01074   0.67385   0.00000  Uiso   1.00
H779   H     0.48321   0.01198   0.68039   0.00000  Uiso   1.00
H780   H     0.45189   0.30056   0.71365   0.00000  Uiso   1.00
H781   H     0.61884   0.24952   0.83089   0.00000  Uiso   1.00
H782   H     0.63052   0.32101   0.89460   0.00000  Uiso   1.00
H783   H     0.54899   0.01918   0.92735   0.00000  Uiso   1.00
H784   H     0.48805   0.12319   0.70849   0.00000  Uiso   1.00
H785   H     0.45281   0.30706   0.88686   0.00000  Uiso   1.00
H786   H     0.43882   0.23919   0.82204   0.00000  Uiso   1.00
H787   H     0.48952   0.08182   0.62344   0.00000  Uiso   1.00
H788   H     0.55342   0.07694   0.60184   0.00000  Uiso   1.00
H789   H     0.49149   0.06544   0.50396   0.00000  Uiso   1.00
H790   H     0.47873   0.01476   0.54081   0.00000  Uiso   1.00
H791   H     0.39182   0.05549   0.55819   0.00000  Uiso   1.00
H792   H     0.38687   0.04254   0.98701   0.00000  Uiso   1.00
H793   H     0.40537   0.10888   0.52311   0.00000  Uiso   1.00
H794   H     0.57183   0.11366   0.89893   0.00000  Uiso   1.00
H795   H     0.65980   0.14926   0.97883   0.00000  Uiso   1.00
H796   H     0.33478   0.23384   0.92230   0.00000  Uiso   1.00
H797   H     0.48243   0.23979   0.55358   0.00000  Uiso   1.00
H798   H     0.38942   0.27395   0.51086   0.00000  Uiso   1.00
H799   H     0.46738   0.10798   0.86380   0.00000  Uiso   1.00
H800   H     0.40055   0.00509   0.76759   0.00000  Uiso   1.00
N801   N     0.47827   0.15223   0.73543   0.00000  Uiso   1.00
N802   N     0.52173   0.18110   0.76458   0.00000  Uiso   1.00
O803   O     0.63102   0.24629   0.75358   0.00000  Uiso   1.00
O804   O     0.50945   0.14581   0.58970   0.00000  Uiso   1.00
O805   O     0.39075   0.23704   0.74424   0.00000  Uiso   1.00
O806   O     0.64823   0.17358   0.83380   0.00000  Uiso   1.00
O807   O     0.40796   0.16433   0.82446   0.00000  Uiso   1.00
O808   O     0.60925   0.09629   0.75577   0.00000  Uiso   1.00
O809   O     0.36898   0.08704   0.74643   0.00000  Uiso   1.00
O810   O     0.59204   0.16901   0.67554   0.00000  Uiso   1.00
O811   O     0.35177   0.15976   0.66620   0.00000  Uiso   1.00
O812   O     0.37221   0.19703   0.58150   0.00000  Uiso   1.00
Zn813  Zn    0.60453   0.17284   0.75624   0.00000  Uiso   1.00
Zn814  Zn    0.39547   0.16049   0.74377   0.00000  Uiso   1.00
C815   C     0.68137   0.26474   0.75085   0.00000  Uiso   1.00
C816   C     0.73053   0.17825   0.91024   0.00000  Uiso   1.00
C817   C     0.69011   0.32009   0.75721   0.00000  Uiso   1.00
C818   C     0.70407   0.16832   0.85308   0.00000  Uiso   1.00
C819   C     0.97769   0.01432   0.75069   0.00000  Uiso   1.00
C820   C     0.98581   0.06892   0.75131   0.00000  Uiso   1.00
C821   C     0.96328   0.16484   0.64678   0.00000  Uiso   1.00
C822   C     0.96308   0.15671   0.50277   0.00000  Uiso   1.00
C823   C     0.94315   0.16737   0.58971   0.00000  Uiso   1.00
C824   C     0.70803   0.21788   0.93979   0.00000  Uiso   1.00
C825   C     0.73871   0.24046   0.99090   0.00000  Uiso   1.00
C826   C     0.81245   0.18020   0.98706   0.00000  Uiso   1.00
C827   C     0.78990   0.22068   0.51502   0.00000  Uiso   1.00
C828   C     0.70539   0.24961   0.60840   0.00000  Uiso   1.00
C829   C     0.76706   0.27697   0.62777   0.00000  Uiso   1.00
C830   C     0.77714   0.31934   0.67701   0.00000  Uiso   1.00
C831   C     0.85820   0.22787   0.80880   0.00000  Uiso   1.00
C832   C     0.91230   0.25735   0.83623   0.00000  Uiso   1.00
C833   C     0.92103   0.30137   0.87674   0.00000  Uiso   1.00
C834   C     0.87585   0.31929   0.89528   0.00000  Uiso   1.00
C835   C     0.82233   0.29340   0.87245   0.00000  Uiso   1.00
C836   C     0.81440   0.25000   0.83118   0.00000  Uiso   1.00
C837   C     0.78602   0.16130   0.93283   0.00000  Uiso   1.00
C838   C     0.84254   0.09050   0.59105   0.00000  Uiso   1.00
C839   C     0.80755   0.05718   0.53795   0.00000  Uiso   1.00
C840   C     0.74386   0.06666   0.52594   0.00000  Uiso   1.00
C841   C     0.86660   0.16525   0.51035   0.00000  Uiso   1.00
C842   C     0.90359   0.15077   0.97835   0.00000  Uiso   1.00
C843   C     0.87897   0.13071   0.92415   0.00000  Uiso   1.00
C844   C     0.81896   0.13017   0.90341   0.00000  Uiso   1.00
C845   C     0.88393   0.16092   0.56442   0.00000  Uiso   1.00
C846   C     0.98245   0.17509   0.55852   0.00000  Uiso   1.00
H847   H     0.93374   0.32998   0.74256   0.00000  Uiso   1.00
H848   H     0.68773   0.24994   0.64367   0.00000  Uiso   1.00
H849   H     0.67798   0.27370   0.58117   0.00000  Uiso   1.00
H850   H     0.79882   0.24723   0.63703   0.00000  Uiso   1.00
H851   H     0.77562   0.29786   0.59590   0.00000  Uiso   1.00
H852   H     0.74013   0.01074   0.67385   0.00000  Uiso   1.00
H853   H     0.81655   0.01198   0.68039   0.00000  Uiso   1.00
H854   H     0.78522   0.30056   0.71365   0.00000  Uiso   1.00
H855   H     0.95217   0.24952   0.83089   0.00000  Uiso   1.00
H856   H     0.96385   0.32101   0.89460   0.00000  Uiso   1.00
H857   H     0.88232   0.01918   0.92735   0.00000  Uiso   1.00
H858   H     0.82139   0.12319   0.70849   0.00000  Uiso   1.00
H859   H     0.78614   0.30706   0.88686   0.00000  Uiso   1.00
H860   H     0.77216   0.23919   0.82204   0.00000  Uiso   1.00
H861   H     0.82285   0.08182   0.62344   0.00000  Uiso   1.00
H862   H     0.88675   0.07694   0.60184   0.00000  Uiso   1.00
H863   H     0.82483   0.06544   0.50396   0.00000  Uiso   1.00
H864   H     0.81207   0.01476   0.54081   0.00000  Uiso   1.00
H865   H     0.72515   0.05549   0.55819   0.00000  Uiso   1.00
H866   H     0.72020   0.04254   0.98701   0.00000  Uiso   1.00
H867   H     0.73870   0.10888   0.52311   0.00000  Uiso   1.00
H868   H     0.90516   0.11366   0.89893   0.00000  Uiso   1.00
H869   H     0.99313   0.14926   0.97883   0.00000  Uiso   1.00
H870   H     0.66811   0.23384   0.92230   0.00000  Uiso   1.00
H871   H     0.81577   0.23979   0.55358   0.00000  Uiso   1.00
H872   H     0.72276   0.27395   0.51086   0.00000  Uiso   1.00
H873   H     0.80072   0.10798   0.86380   0.00000  Uiso   1.00
H874   H     0.73388   0.00509   0.76759   0.00000  Uiso   1.00
N875   N     0.81160   0.15223   0.73543   0.00000  Uiso   1.00
N876   N     0.85507   0.18110   0.76458   0.00000  Uiso   1.00
O877   O     0.96435   0.24629   0.75358   0.00000  Uiso   1.00
O878   O     0.84278   0.14581   0.58970   0.00000  Uiso   1.00
O879   O     0.72408   0.23704   0.74424   0.00000  Uiso   1.00
O880   O     0.98157   0.17358   0.83380   0.00000  Uiso   1.00
O881   O     0.74130   0.16433   0.82446   0.00000  Uiso   1.00
O882   O     0.94258   0.09629   0.75577   0.00000  Uiso   1.00
O883   O     0.70231   0.08704   0.74643   0.00000  Uiso   1.00
O884   O     0.92537   0.16901   0.67554   0.00000  Uiso   1.00
O885   O     0.68510   0.15976   0.66620   0.00000  Uiso   1.00
O886   O     0.70554   0.19703   0.58150   0.00000  Uiso   1.00
Zn887  Zn    0.93786   0.17284   0.75624   0.00000  Uiso   1.00
Zn888  Zn    0.72881   0.16049   0.74377   0.00000  Uiso   1.00
C889   C     0.01470   0.59808   0.75085   0.00000  Uiso   1.00
C890   C     0.06387   0.51158   0.91024   0.00000  Uiso   1.00
C891   C     0.02345   0.65343   0.75721   0.00000  Uiso   1.00
C892   C     0.03741   0.50166   0.85308   0.00000  Uiso   1.00
C893   C     0.31102   0.34765   0.75069   0.00000  Uiso   1.00
C894   C     0.31915   0.40226   0.75131   0.00000  Uiso   1.00
C895   C     0.29661   0.49817   0.64678   0.00000  Uiso   1.00
C896   C     0.29641   0.49004   0.50277   0.00000  Uiso   1.00
C897   C     0.27648   0.50071   0.58971   0.00000  Uiso   1.00
C898   C     0.04136   0.55121   0.93979   0.00000  Uiso   1.00
C899   C     0.07204   0.57379   0.99090   0.00000  Uiso   1.00
C900   C     0.14578   0.51353   0.98706   0.00000  Uiso   1.00
C901   C     0.12323   0.55401   0.51502   0.00000  Uiso   1.00
C902   C     0.03873   0.58294   0.60840   0.00000  Uiso   1.00
C903   C     0.10039   0.61031   0.62777   0.00000  Uiso   1.00
C904   C     0.11048   0.65268   0.67701   0.00000  Uiso   1.00
C905   C     0.19153   0.56121   0.80880   0.00000  Uiso   1.00
C906   C     0.24563   0.59068   0.83623   0.00000  Uiso   1.00
C907   C     0.25437   0.63470   0.87674   0.00000  Uiso   1.00
C908   C     0.20919   0.65262   0.89528   0.00000  Uiso   1.00
C909   C     0.15566   0.62673   0.87245   0.00000  Uiso   1.00
C910   C     0.14774   0.58333   0.83118   0.00000  Uiso   1.00
C911   C     0.11936   0.49463   0.93283   0.00000  Uiso   1.00
C912   C     0.17588   0.42384   0.59105   0.00000  Uiso   1.00
C913   C     0.14089   0.39051   0.53795   0.00000  Uiso   1.00
C914   C     0.07719   0.40000   0.52594   0.00000  Uiso   1.00
C915   C     0.19993   0.49858   0.51035   0.00000  Uiso   1.00
C916   C     0.23692   0.48410   0.97835   0.00000  Uiso   1.00
C917   C     0.21230   0.46404   0.92415   0.00000  Uiso   1.00
C918   C     0.15229   0.46350   0.90341   0.00000  Uiso   1.00
C919   C     0.21726   0.49425   0.56442   0.00000  Uiso   1.00
C920   C     0.31578   0.50842   0.55852   0.00000  Uiso   1.00
H921   H     0.26707   0.66332   0.74256   0.00000  Uiso   1.00
H922   H     0.02106   0.58328   0.64367   0.00000  Uiso   1.00
H923   H     0.01131   0.60703   0.58117   0.00000  Uiso   1.00
H924   H     0.13215   0.58056   0.63703   0.00000  Uiso   1.00
H925   H     0.10895   0.63120   0.59590   0.00000  Uiso   1.00
H926   H     0.07346   0.34408   0.67385   0.00000  Uiso   1.00
H927   H     0.14988   0.34531   0.68039   0.00000  Uiso   1.00
H928   H     0.11855   0.63390   0.71365   0.00000  Uiso   1.00
H929   H     0.28551   0.58285   0.83089   0.00000  Uiso   1.00
H930   H     0.29719   0.65435   0.89460   0.00000  Uiso   1.00
H931   H     0.21565   0.35251   0.92735   0.00000  Uiso   1.00
H932   H     0.15472   0.45652   0.70849   0.00000  Uiso   1.00
H933   H     0.11947   0.64039   0.88686   0.00000  Uiso   1.00
H934   H     0.10549   0.57252   0.82204   0.00000  Uiso   1.00
H935   H     0.15619   0.41516   0.62344   0.00000  Uiso   1.00
H936   H     0.22009   0.41028   0.60184   0.00000  Uiso   1.00
H937   H     0.15816   0.39877   0.50396   0.00000  Uiso   1.00
H938   H     0.14540   0.34809   0.54081   0.00000  Uiso   1.00
H939   H     0.05849   0.38882   0.55819   0.00000  Uiso   1.00
H940   H     0.05353   0.37588   0.98701   0.00000  Uiso   1.00
H941   H     0.07203   0.44221   0.52311   0.00000  Uiso   1.00
H942   H     0.23849   0.44699   0.89893   0.00000  Uiso   1.00
H943   H     0.32646   0.48259   0.97883   0.00000  Uiso   1.00
H944   H     0.00144   0.56718   0.92230   0.00000  Uiso   1.00
H945   H     0.14910   0.57312   0.55358   0.00000  Uiso   1.00
H946   H     0.05609   0.60728   0.51086   0.00000  Uiso   1.00
H947   H     0.13405   0.44132   0.86380   0.00000  Uiso   1.00
H948   H     0.06721   0.33842   0.76759   0.00000  Uiso   1.00
N949   N     0.14493   0.48556   0.73543   0.00000  Uiso   1.00
N950   N     0.18840   0.51444   0.76458   0.00000  Uiso   1.00
O951   O     0.29769   0.57963   0.75358   0.00000  Uiso   1.00
O952   O     0.17612   0.47914   0.58970   0.00000  Uiso   1.00
O953   O     0.05742   0.57038   0.74424   0.00000  Uiso   1.00
O954   O     0.31490   0.50691   0.83380   0.00000  Uiso   1.00
O955   O     0.07463   0.49766   0.82446   0.00000  Uiso   1.00
O956   O     0.27592   0.42962   0.75577   0.00000  Uiso   1.00
O957   O     0.03565   0.42037   0.74643   0.00000  Uiso   1.00
O958   O     0.25870   0.50234   0.67554   0.00000  Uiso   1.00
O959   O     0.01843   0.49309   0.66620   0.00000  Uiso   1.00
O960   O     0.03888   0.53037   0.58150   0.00000  Uiso   1.00
Zn961  Zn    0.27119   0.50618   0.75624   0.00000  Uiso   1.00
Zn962  Zn    0.06214   0.49382   0.74377   0.00000  Uiso   1.00
C963   C     0.34803   0.59808   0.75085   0.00000  Uiso   1.00
C964   C     0.39720   0.51158   0.91024   0.00000  Uiso   1.00
C965   C     0.35678   0.65343   0.75721   0.00000  Uiso   1.00
C966   C     0.37074   0.50166   0.85308   0.00000  Uiso   1.00
C967   C     0.64435   0.34765   0.75069   0.00000  Uiso   1.00
C968   C     0.65248   0.40226   0.75131   0.00000  Uiso   1.00
C969   C     0.62995   0.49817   0.64678   0.00000  Uiso   1.00
C970   C     0.62974   0.49004   0.50277   0.00000  Uiso   1.00
C971   C     0.60982   0.50071   0.58971   0.00000  Uiso   1.00
C972   C     0.37470   0.55121   0.93979   0.00000  Uiso   1.00
C973   C     0.40537   0.57379   0.99090   0.00000  Uiso   1.00
C974   C     0.47911   0.51353   0.98706   0.00000  Uiso   1.00
C975   C     0.45656   0.55401   0.51502   0.00000  Uiso   1.00
C976   C     0.37206   0.58294   0.60840   0.00000  Uiso   1.00
C977   C     0.43372   0.61031   0.62777   0.00000  Uiso   1.00
C978   C     0.44381   0.65268   0.67701   0.00000  Uiso   1.00
C979   C     0.52486   0.56121   0.80880   0.00000  Uiso   1.00
C980   C     0.57897   0.59068   0.83623   0.00000  Uiso   1.00
C981   C     0.58770   0.63470   0.87674   0.00000  Uiso   1.00
C982   C     0.54252   0.65262   0.89528   0.00000  Uiso   1.00
C983   C     0.48900   0.62673   0.87245   0.00000  Uiso   1.00
C984   C     0.48107   0.58333   0.83118   0.00000  Uiso   1.00
C985   C     0.45269   0.49463   0.93283   0.00000  Uiso   1.00
C986   C     0.50921   0.42384   0.59105   0.00000  Uiso   1.00
C987   C     0.47422   0.39051   0.53795   0.00000  Uiso   1.00
C988   C     0.41052   0.40000   0.52594   0.00000  Uiso   1.00
C989   C     0.53327   0.49858   0.51035   0.00000  Uiso   1.00
C990   C     0.57025   0.48410   0.97835   0.00000  Uiso   1.00
C991   C     0.54564   0.46404   0.92415   0.00000  Uiso   1.00
C992   C     0.48562   0.46350   0.90341   0.00000  Uiso   1.00
C993   C     0.55060   0.49425   0.56442   0.00000  Uiso   1.00
C994   C     0.64911   0.50842   0.55852   0.00000  Uiso   1.00
H995   H     0.60040   0.66332   0.74256   0.00000  Uiso   1.00
H996   H     0.35439   0.58328   0.64367   0.00000  Uiso   1.00
H997   H     0.34465   0.60703   0.58117   0.00000  Uiso   1.00
H998   H     0.46548   0.58056   0.63703   0.00000  Uiso   1.00
H999   H     0.44229   0.63120   0.59590   0.00000  Uiso   1.00
H1000  H     0.40680   0.34408   0.67385   0.00000  Uiso   1.00
H1001  H     0.48321   0.34531   0.68039   0.00000  Uiso   1.00
H1002  H     0.45189   0.63390   0.71365   0.00000  Uiso   1.00
H1003  H     0.61884   0.58285   0.83089   0.00000  Uiso   1.00
H1004  H     0.63052   0.65435   0.89460   0.00000  Uiso   1.00
H1005  H     0.54899   0.35251   0.92735   0.00000  Uiso   1.00
H1006  H     0.48805   0.45652   0.70849   0.00000  Uiso   1.00
H1007  H     0.45281   0.64039   0.88686   0.00000  Uiso   1.00
H1008  H     0.43882   0.57252   0.82204   0.00000  Uiso   1.00
H1009  H     0.48952   0.41516   0.62344   0.00000  Uiso   1.00
H1010  H     0.55342   0.41028   0.60184   0.00000  Uiso   1.00
H1011  H     0.49149   0.39877   0.50396   0.00000  Uiso   1.00
H1012  H     0.47873   0.34809   0.54081   0.00000  Uiso   1.00
H1013  H     0.39182   0.38882   0.55819   0.00000  Uiso   1.00
H1014  H     0.38687   0.37588   0.98701   0.00000  Uiso   1.00
H1015  H     0.40537   0.44221   0.52311   0.00000  Uiso   1.00
H1016  H     0.57183   0.44699   0.89893   0.00000  Uiso   1.00
H1017  H     0.65980   0.48259   0.97883   0.00000  Uiso   1.00
H1018  H     0.33478   0.56718   0.92230   0.00000  Uiso   1.00
H1019  H     0.48243   0.57312   0.55358   0.00000  Uiso   1.00
H1020  H     0.38942   0.60728   0.51086   0.00000  Uiso   1.00
H1021  H     0.46738   0.44132   0.86380   0.00000  Uiso   1.00
H1022  H     0.40055   0.33842   0.76759   0.00000  Uiso   1.00
N1023  N     0.47827   0.48556   0.73543   0.00000  Uiso   1.00
N1024  N     0.52173   0.51444   0.76458   0.00000  Uiso   1.00
O1025  O     0.63102   0.57963   0.75358   0.00000  Uiso   1.00
O1026  O     0.50945   0.47914   0.58970   0.00000  Uiso   1.00
O1027  O     0.39075   0.57038   0.74424   0.00000  Uiso   1.00
O1028  O     0.64823   0.50691   0.83380   0.00000  Uiso   1.00
O1029  O     0.40796   0.49766   0.82446   0.00000  Uiso   1.00
O1030  O     0.60925   0.42962   0.75577   0.00000  Uiso   1.00
O1031  O     0.36898   0.42037   0.74643   0.00000  Uiso   1.00
O1032  O     0.59204   0.50234   0.67554   0.00000  Uiso   1.00
O1033  O     0.35177   0.49309   0.66620   0.00000  Uiso   1.00
O1034  O     0.37221   0.53037   0.58150   0.00000  Uiso   1.00
Zn1035 Zn    0.60453   0.50618   0.75624   0.00000  Uiso   1.00
Zn1036 Zn    0.39547   0.49382   0.74377   0.00000  Uiso   1.00
C1037  C     0.68137   0.59808   0.75085   0.00000  Uiso   1.00
C1038  C     0.73053   0.51158   0.91024   0.00000  Uiso   1.00
C1039  C     0.69011   0.65343   0.75721   0.00000  Uiso   1.00
C1040  C     0.70407   0.50166   0.85308   0.00000  Uiso   1.00
C1041  C     0.97769   0.34765   0.75069   0.00000  Uiso   1.00
C1042  C     0.98581   0.40226   0.75131   0.00000  Uiso   1.00
C1043  C     0.96328   0.49817   0.64678   0.00000  Uiso   1.00
C1044  C     0.96308   0.49004   0.50277   0.00000  Uiso   1.00
C1045  C     0.94315   0.50071   0.58971   0.00000  Uiso   1.00
C1046  C     0.70803   0.55121   0.93979   0.00000  Uiso   1.00
C1047  C     0.73871   0.57379   0.99090   0.00000  Uiso   1.00
C1048  C     0.81245   0.51353   0.98706   0.00000  Uiso   1.00
C1049  C     0.78990   0.55401   0.51502   0.00000  Uiso   1.00
C1050  C     0.70539   0.58294   0.60840   0.00000  Uiso   1.00
C1051  C     0.76706   0.61031   0.62777   0.00000  Uiso   1.00
C1052  C     0.77714   0.65268   0.67701   0.00000  Uiso   1.00
C1053  C     0.85820   0.56121   0.80880   0.00000  Uiso   1.00
C1054  C     0.91230   0.59068   0.83623   0.00000  Uiso   1.00
C1055  C     0.92103   0.63470   0.87674   0.00000  Uiso   1.00
C1056  C     0.87585   0.65262   0.89528   0.00000  Uiso   1.00
C1057  C     0.82233   0.62673   0.87245   0.00000  Uiso   1.00
C1058  C     0.81440   0.58333   0.83118   0.00000  Uiso   1.00
C1059  C     0.78602   0.49463   0.93283   0.00000  Uiso   1.00
C1060  C     0.84254   0.42384   0.59105   0.00000  Uiso   1.00
C1061  C     0.80755   0.39051   0.53795   0.00000  Uiso   1.00
C1062  C     0.74386   0.40000   0.52594   0.00000  Uiso   1.00
C1063  C     0.86660   0.49858   0.51035   0.00000  Uiso   1.00
C1064  C     0.90359   0.48410   0.97835   0.00000  Uiso   1.00
C1065  C     0.87897   0.46404   0.92415   0.00000  Uiso   1.00
C1066  C     0.81896   0.46350   0.90341   0.00000  Uiso   1.00
C1067  C     0.88393   0.49425   0.56442   0.00000  Uiso   1.00
C1068  C     0.98245   0.50842   0.55852   0.00000  Uiso   1.00
H1069  H     0.93374   0.66332   0.74256   0.00000  Uiso   1.00
H1070  H     0.68773   0.58328   0.64367   0.00000  Uiso   1.00
H1071  H     0.67798   0.60703   0.58117   0.00000  Uiso   1.00
H1072  H     0.79882   0.58056   0.63703   0.00000  Uiso   1.00
H1073  H     0.77562   0.63120   0.59590   0.00000  Uiso   1.00
H1074  H     0.74013   0.34408   0.67385   0.00000  Uiso   1.00
H1075  H     0.81655   0.34531   0.68039   0.00000  Uiso   1.00
H1076  H     0.78522   0.63390   0.71365   0.00000  Uiso   1.00
H1077  H     0.95217   0.58285   0.83089   0.00000  Uiso   1.00
H1078  H     0.96385   0.65435   0.89460   0.00000  Uiso   1.00
H1079  H     0.88232   0.35251   0.92735   0.00000  Uiso   1.00
H1080  H     0.82139   0.45652   0.70849   0.00000  Uiso   1.00
H1081  H     0.78614   0.64039   0.88686   0.00000  Uiso   1.00
H1082  H     0.77216   0.57252   0.82204   0.00000  Uiso   1.00
H1083  H     0.82285   0.41516   0.62344   0.00000  Uiso   1.00
H1084  H     0.88675   0.41028   0.60184   0.00000  Uiso   1.00
H1085  H     0.82483   0.39877   0.50396   0.00000  Uiso   1.00
H1086  H     0.81207   0.34809   0.54081   0.00000  Uiso   1.00
H1087  H     0.72515   0.38882   0.55819   0.00000  Uiso   1.00
H1088  H     0.72020   0.37588   0.98701   0.00000  Uiso   1.00
H1089  H     0.73870   0.44221   0.52311   0.00000  Uiso   1.00
H1090  H     0.90516   0.44699   0.89893   0.00000  Uiso   1.00
H1091  H     0.99313   0.48259   0.97883   0.00000  Uiso   1.00
H1092  H     0.66811   0.56718   0.92230   0.00000  Uiso   1.00
H1093  H     0.81577   0.57312   0.55358   0.00000  Uiso   1.00
H1094  H     0.72276   0.60728   0.51086   0.00000  Uiso   1.00
H1095  H     0.80072   0.44132   0.86380   0.00000  Uiso   1.00
H1096  H     0.73388   0.33842   0.76759   0.00000  Uiso   1.00
N1097  N     0.81160   0.48556   0.73543   0.00000  Uiso   1.00
N1098  N     0.85507   0.51444   0.76458   0.00000  Uiso   1.00
O1099  O     0.96435   0.57963   0.75358   0.00000  Uiso   1.00
O1100  O     0.84278   0.47914   0.58970   0.00000  Uiso   1.00
O1101  O     0.72408   0.57038   0.74424   0.00000  Uiso   1.00
O1102  O     0.98157   0.50691   0.83380   0.00000  Uiso   1.00
O1103  O     0.74130   0.49766   0.82446   0.00000  Uiso   1.00
O1104  O     0.94258   0.42962   0.75577   0.00000  Uiso   1.00
O1105  O     0.70231   0.42037   0.74643   0.00000  Uiso   1.00
O1106  O     0.92537   0.50234   0.67554   0.00000  Uiso   1.00
O1107  O     0.68510   0.49309   0.66620   0.00000  Uiso   1.00
O1108  O     0.70554   0.53037   0.58150   0.00000  Uiso   1.00
Zn1109 Zn    0.93786   0.50618   0.75624   0.00000  Uiso   1.00
Zn1110 Zn    0.72881   0.49382   0.74377   0.00000  Uiso   1.00
C1111  C     0.01470   0.93141   0.75085   0.00000  Uiso   1.00
C1112  C     0.06387   0.84491   0.91024   0.00000  Uiso   1.00
C1113  C     0.02345   0.98676   0.75721   0.00000  Uiso   1.00
C1114  C     0.03741   0.83499   0.85308   0.00000  Uiso   1.00
C1115  C     0.31102   0.68099   0.75069   0.00000  Uiso   1.00
C1116  C     0.31915   0.73559   0.75131   0.00000  Uiso   1.00
C1117  C     0.29661   0.83150   0.64678   0.00000  Uiso   1.00
C1118  C     0.29641   0.82338   0.50277   0.00000  Uiso   1.00
C1119  C     0.27648   0.83404   0.58971   0.00000  Uiso   1.00
C1120  C     0.04136   0.88455   0.93979   0.00000  Uiso   1.00
C1121  C     0.07204   0.90712   0.99090   0.00000  Uiso   1.00
C1122  C     0.14578   0.84687   0.98706   0.00000  Uiso   1.00
C1123  C     0.12323   0.88735   0.51502   0.00000  Uiso   1.00
C1124  C     0.03873   0.91628   0.60840   0.00000  Uiso   1.00
C1125  C     0.10039   0.94364   0.62777   0.00000  Uiso   1.00
C1126  C     0.11048   0.98601   0.67701   0.00000  Uiso   1.00
C1127  C     0.19153   0.89454   0.80880   0.00000  Uiso   1.00
C1128  C     0.24563   0.92401   0.83623   0.00000  Uiso   1.00
C1129  C     0.25437   0.96803   0.87674   0.00000  Uiso   1.00
C1130  C     0.20919   0.98595   0.89528   0.00000  Uiso   1.00
C1131  C     0.15566   0.96006   0.87245   0.00000  Uiso   1.00
C1132  C     0.14774   0.91666   0.83118   0.00000  Uiso   1.00
C1133  C     0.11936   0.82796   0.93283   0.00000  Uiso   1.00
C1134  C     0.17588   0.75717   0.59105   0.00000  Uiso   1.00
C1135  C     0.14089   0.72384   0.53795   0.00000  Uiso   1.00
C1136  C     0.07719   0.73333   0.52594   0.00000  Uiso   1.00
C1137  C     0.19993   0.83192   0.51035   0.00000  Uiso   1.00
C1138  C     0.23692   0.81743   0.97835   0.00000  Uiso   1.00
C1139  C     0.21230   0.79738   0.92415   0.00000  Uiso   1.00
C1140  C     0.15229   0.79683   0.90341   0.00000  Uiso   1.00
C1141  C     0.21726   0.82759   0.56442   0.00000  Uiso   1.00
C1142  C     0.31578   0.84175   0.55852   0.00000  Uiso   1.00
H1143  H     0.26707   0.99665   0.74256   0.00000  Uiso   1.00
H1144  H     0.02106   0.91661   0.64367   0.00000  Uiso   1.00
H1145  H     0.01131   0.94036   0.58117   0.00000  Uiso   1.00
H1146  H     0.13215   0.91390   0.63703   0.00000  Uiso   1.00
H1147  H     0.10895   0.96453   0.59590   0.00000  Uiso   1.00
H1148  H     0.07346   0.67741   0.67385   0.00000  Uiso   1.00
H1149  H     0.14988   0.67864   0.68039   0.00000  Uiso   1.00
H1150  H     0.11855   0.96723   0.71365   0.00000  Uiso   1.00
H1151  H     0.28551   0.91619   0.83089   0.00000  Uiso   1.00
H1152  H     0.29719   0.98768   0.89460   0.00000  Uiso   1.00
H1153  H     0.21565   0.68585   0.92735   0.00000  Uiso   1.00
H1154  H     0.15472   0.78985   0.70849   0.00000  Uiso   1.00
H1155  H     0.11947   0.97373   0.88686   0.00000  Uiso   1.00
H1156  H     0.10549   0.90586   0.82204   0.00000  Uiso   1.00
H1157  H     0.15619   0.74849   0.62344   0.00000  Uiso   1.00
H1158  H     0.22009   0.74361   0.60184   0.00000  Uiso   1.00
H1159  H     0.15816   0.73211   0.50396   0.00000  Uiso   1.00
H1160  H     0.14540   0.68143   0.54081   0.00000  Uiso   1.00
H1161  H     0.05849   0.72215   0.55819   0.00000  Uiso   1.00
H1162  H     0.05353   0.70921   0.98701   0.00000  Uiso   1.00
H1163  H     0.07203   0.77555   0.52311   0.00000  Uiso   1.00
H1164  H     0.23849   0.78032   0.89893   0.00000  Uiso   1.00
H1165  H     0.32646   0.81592   0.97883   0.00000  Uiso   1.00
H1166  H     0.00144   0.90051   0.92230   0.00000  Uiso   1.00
H1167  H     0.14910   0.90646   0.55358   0.00000  Uiso   1.00
H1168  H     0.05609   0.94061   0.51086   0.00000  Uiso   1.00
H1169  H     0.13405   0.77465   0.86380   0.00000  Uiso   1.00
H1170  H     0.06721   0.67175   0.76759   0.00000  Uiso   1.00
N1171  N     0.14493   0.81890   0.73543   0.00000  Uiso   1.00
N1172  N     0.18840   0.84777   0.76458   0.00000  Uiso   1.00
O1173  O     0.29769   0.91296   0.75358   0.00000  Uiso   1.00
O1174  O     0.17612   0.81247   0.58970   0.00000  Uiso   1.00
O1175  O     0.05742   0.90371   0.74424   0.00000  Uiso   1.00
O1176  O     0.31490   0.84024   0.83380   0.00000  Uiso   1.00
O1177  O     0.07463   0.83099   0.82446   0.00000  Uiso   1.00
O1178  O     0.27592   0.76296   0.75577   0.00000  Uiso   1.00
O1179  O     0.03565   0.75371   0.74643   0.00000  Uiso   1.00
O1180  O     0.25870   0.83567   0.67554   0.00000  Uiso   1.00
O1181  O     0.01843   0.82642   0.66620   0.00000  Uiso   1.00
O1182  O     0.03888   0.86370   0.58150   0.00000  Uiso   1.00
Zn1183 Zn    0.27119   0.83951   0.75624   0.00000  Uiso   1.00
Zn1184 Zn    0.06214   0.82716   0.74377   0.00000  Uiso   1.00
C1185  C     0.34803   0.93141   0.75085   0.00000  Uiso   1.00
C1186  C     0.39720   0.84491   0.91024   0.00000  Uiso   1.00
C1187  C     0.35678   0.98676   0.75721   0.00000  Uiso   1.00
C1188  C     0.37074   0.83499   0.85308   0.00000  Uiso   1.00
C1189  C     0.64435   0.68099   0.75069   0.00000  Uiso   1.00
C1190  C     0.65248   0.73559   0.75131   0.00000  Uiso   1.00
C1191  C     0.62995   0.83150   0.64678   0.00000  Uiso   1.00
C1192  C     0.62974   0.82338   0.50277   0.00000  Uiso   1.00
C1193  C     0.60982   0.83404   0.58971   0.00000  Uiso   1.00
C1194  C     0.37470   0.88455   0.93979   0.00000  Uiso   1.00
C1195  C     0.40537   0.90712   0.99090   0.00000  Uiso   1.00
C1196  C     0.47911   0.84687   0.98706   0.00000  Uiso   1.00
C1197  C     0.45656   0.88735   0.51502   0.00000  Uiso   1.00
C1198  C     0.37206   0.91628   0.60840   0.00000  Uiso   1.00
C1199  C     0.43372   0.94364   0.62777   0.00000  Uiso   1.00
C1200  C     0.44381   0.98601   0.67701   0.00000  Uiso   1.00
C1201  C     0.52486   0.89454   0.80880   0.00000  Uiso   1.00
C1202  C     0.57897   0.92401   0.83623   0.00000  Uiso   1.00
C1203  C     0.58770   0.96803   0.87674   0.00000  Uiso   1.00
C1204  C     0.54252   0.98595   0.89528   0.00000  Uiso   1.00
C1205  C     0.48900   0.96006   0.87245   0.00000  Uiso   1.00
C1206  C     0.48107   0.91666   0.83118   0.00000  Uiso   1.00
C1207  C     0.45269   0.82796   0.93283   0.00000  Uiso   1.00
C1208  C     0.50921   0.75717   0.59105   0.00000  Uiso   1.00
C1209  C     0.47422   0.72384   0.53795   0.00000  Uiso   1.00
C1210  C     0.41052   0.73333   0.52594   0.00000  Uiso   1.00
C1211  C     0.53327   0.83192   0.51035   0.00000  Uiso   1.00
C1212  C     0.57025   0.81743   0.97835   0.00000  Uiso   1.00
C1213  C     0.54564   0.79738   0.92415   0.00000  Uiso   1.00
C1214  C     0.48562   0.79683   0.90341   0.00000  Uiso   1.00
C1215  C     0.55060   0.82759   0.56442   0.00000  Uiso   1.00
C1216  C     0.64911   0.84175   0.55852   0.00000  Uiso   1.00
H1217  H     0.60040   0.99665   0.74256   0.00000  Uiso   1.00
H1218  H     0.35439   0.91661   0.64367   0.00000  Uiso   1.00
H1219  H     0.34465   0.94036   0.58117   0.00000  Uiso   1.00
H1220  H     0.46548   0.91390   0.63703   0.00000  Uiso   1.00
H1221  H     0.44229   0.96453   0.59590   0.00000  Uiso   1.00
H1222  H     0.40680   0.67741   0.67385   0.00000  Uiso   1.00
H1223  H     0.48321   0.67864   0.68039   0.00000  Uiso   1.00
H1224  H     0.45189   0.96723   0.71365   0.00000  Uiso   1.00
H1225  H     0.61884   0.91619   0.83089   0.00000  Uiso   1.00
H1226  H     0.63052   0.98768   0.89460   0.00000  Uiso   1.00
H1227  H     0.54899   0.68585   0.92735   0.00000  Uiso   1.00
H1228  H     0.48805   0.78985   0.70849   0.00000  Uiso   1.00
H1229  H     0.45281   0.97373   0.88686   0.00000  Uiso   1.00
H1230  H     0.43882   0.90586   0.82204   0.00000  Uiso   1.00
H1231  H     0.48952   0.74849   0.62344   0.00000  Uiso   1.00
H1232  H     0.55342   0.74361   0.60184   0.00000  Uiso   1.00
H1233  H     0.49149   0.73211   0.50396   0.00000  Uiso   1.00
H1234  H     0.47873   0.68143   0.54081   0.00000  Uiso   1.00
H1235  H     0.39182   0.72215   0.55819   0.00000  Uiso   1.00
H1236  H     0.38687   0.70921   0.98701   0.00000  Uiso   1.00
H1237  H     0.40537   0.77555   0.52311   0.00000  Uiso   1.00
H1238  H     0.57183   0.78032   0.89893   0.00000  Uiso   1.00
H1239  H     0.65980   0.81592   0.97883   0.00000  Uiso   1.00
H1240  H     0.33478   0.90051   0.92230   0.00000  Uiso   1.00
H1241  H     0.48243   0.90646   0.55358   0.00000  Uiso   1.00
H1242  H     0.38942   0.94061   0.51086   0.00000  Uiso   1.00
H1243  H     0.46738   0.77465   0.86380   0.00000  Uiso   1.00
H1244  H     0.40055   0.67175   0.76759   0.00000  Uiso   1.00
N1245  N     0.47827   0.81890   0.73543   0.00000  Uiso   1.00
N1246  N     0.52173   0.84777   0.76458   0.00000  Uiso   1.00
O1247  O     0.63102   0.91296   0.75358   0.00000  Uiso   1.00
O1248  O     0.50945   0.81247   0.58970   0.00000  Uiso   1.00
O1249  O     0.39075   0.90371   0.74424   0.00000  Uiso   1.00
O1250  O     0.64823   0.84024   0.83380   0.00000  Uiso   1.00
O1251  O     0.40796   0.83099   0.82446   0.00000  Uiso   1.00
O1252  O     0.60925   0.76296   0.75577   0.00000  Uiso   1.00
O1253  O     0.36898   0.75371   0.74643   0.00000  Uiso   1.00
O1254  O     0.59204   0.83567   0.67554   0.00000  Uiso   1.00
O1255  O     0.35177   0.82642   0.66620   0.00000  Uiso   1.00
O1256  O     0.37221   0.86370   0.58150   0.00000  Uiso   1.00
Zn1257 Zn    0.60453   0.83951   0.75624   0.00000  Uiso   1.00
Zn1258 Zn    0.39547   0.82716   0.74377   0.00000  Uiso   1.00
C1259  C     0.68137   0.93141   0.75085   0.00000  Uiso   1.00
C1260  C     0.73053   0.84491   0.91024   0.00000  Uiso   1.00
C1261  C     0.69011   0.98676   0.75721   0.00000  Uiso   1.00
C1262  C     0.70407   0.83499   0.85308   0.00000  Uiso   1.00
C1263  C     0.97769   0.68099   0.75069   0.00000  Uiso   1.00
C1264  C     0.98581   0.73559   0.75131   0.00000  Uiso   1.00
C1265  C     0.96328   0.83150   0.64678   0.00000  Uiso   1.00
C1266  C     0.96308   0.82338   0.50277   0.00000  Uiso   1.00
C1267  C     0.94315   0.83404   0.58971   0.00000  Uiso   1.00
C1268  C     0.70803   0.88455   0.93979   0.00000  Uiso   1.00
C1269  C     0.73871   0.90712   0.99090   0.00000  Uiso   1.00
C1270  C     0.81245   0.84687   0.98706   0.00000  Uiso   1.00
C1271  C     0.78990   0.88735   0.51502   0.00000  Uiso   1.00
C1272  C     0.70539   0.91628   0.60840   0.00000  Uiso   1.00
C1273  C     0.76706   0.94364   0.62777   0.00000  Uiso   1.00
C1274  C     0.77714   0.98601   0.67701   0.00000  Uiso   1.00
C1275  C     0.85820   0.89454   0.80880   0.00000  Uiso   1.00
C1276  C     0.91230   0.92401   0.83623   0.00000  Uiso   1.00
C1277  C     0.92103   0.96803   0.87674   0.00000  Uiso   1.00
C1278  C     0.87585   0.98595   0.89528   0.00000  Uiso   1.00
C1279  C     0.82233   0.96006   0.87245   0.00000  Uiso   1.00
C1280  C     0.81440   0.91666   0.83118   0.00000  Uiso   1.00
C1281  C     0.78602   0.82796   0.93283   0.00000  Uiso   1.00
C1282  C     0.84254   0.75717   0.59105   0.00000  Uiso   1.00
C1283  C     0.80755   0.72384   0.53795   0.00000  Uiso   1.00
C1284  C     0.74386   0.73333   0.52594   0.00000  Uiso   1.00
C1285  C     0.86660   0.83192   0.51035   0.00000  Uiso   1.00
C1286  C     0.90359   0.81743   0.97835   0.00000  Uiso   1.00
C1287  C     0.87897   0.79738   0.92415   0.00000  Uiso   1.00
C1288  C     0.81896   0.79683   0.90341   0.00000  Uiso   1.00
C1289  C     0.88393   0.82759   0.56442   0.00000  Uiso   1.00
C1290  C     0.98245   0.84175   0.55852   0.00000  Uiso   1.00
H1291  H     0.93374   0.99665   0.74256   0.00000  Uiso   1.00
H1292  H     0.68773   0.91661   0.64367   0.00000  Uiso   1.00
H1293  H     0.67798   0.94036   0.58117   0.00000  Uiso   1.00
H1294  H     0.79882   0.91390   0.63703   0.00000  Uiso   1.00
H1295  H     0.77562   0.96453   0.59590   0.00000  Uiso   1.00
H1296  H     0.74013   0.67741   0.67385   0.00000  Uiso   1.00
H1297  H     0.81655   0.67864   0.68039   0.00000  Uiso   1.00
H1298  H     0.78522   0.96723   0.71365   0.00000  Uiso   1.00
H1299  H     0.95217   0.91619   0.83089   0.00000  Uiso   1.00
H1300  H     0.96385   0.98768   0.89460   0.00000  Uiso   1.00
H1301  H     0.88232   0.68585   0.92735   0.00000  Uiso   1.00
H1302  H     0.82139   0.78985   0.70849   0.00000  Uiso   1.00
H1303  H     0.78614   0.97373   0.88686   0.00000  Uiso   1.00
H1304  H     0.77216   0.90586   0.82204   0.00000  Uiso   1.00
H1305  H     0.82285   0.74849   0.62344   0.00000  Uiso   1.00
H1306  H     0.88675   0.74361   0.60184   0.00000  Uiso   1.00
H1307  H     0.82483   0.73211   0.50396   0.00000  Uiso   1.00
H1308  H     0.81207   0.68143   0.54081   0.00000  Uiso   1.00
H1309  H     0.72515   0.72215   0.55819   0.00000  Uiso   1.00
H1310  H     0.72020   0.70921   0.98701   0.00000  Uiso   1.00
H1311  H     0.73870   0.77555   0.52311   0.00000  Uiso   1.00
H1312  H     0.90516   0.78032   0.89893   0.00000  Uiso   1.00
H1313  H     0.99313   0.81592   0.97883   0.00000  Uiso   1.00
H1314  H     0.66811   0.90051   0.92230   0.00000  Uiso   1.00
H1315  H     0.81577   0.90646   0.55358   0.00000  Uiso   1.00
H1316  H     0.72276   0.94061   0.51086   0.00000  Uiso   1.00
H1317  H     0.80072   0.77465   0.86380   0.00000  Uiso   1.00
H1318  H     0.73388   0.67175   0.76759   0.00000  Uiso   1.00
N1319  N     0.81160   0.81890   0.73543   0.00000  Uiso   1.00
N1320  N     0.85507   0.84777   0.76458   0.00000  Uiso   1.00
O1321  O     0.96435   0.91296   0.75358   0.00000  Uiso   1.00
O1322  O     0.84278   0.81247   0.58970   0.00000  Uiso   1.00
O1323  O     0.72408   0.90371   0.74424   0.00000  Uiso   1.00
O1324  O     0.98157   0.84024   0.83380   0.00000  Uiso   1.00
O1325  O     0.74130   0.83099   0.82446   0.00000  Uiso   1.00
O1326  O     0.94258   0.76296   0.75577   0.00000  Uiso   1.00
O1327  O     0.70231   0.75371   0.74643   0.00000  Uiso   1.00
O1328  O     0.92537   0.83567   0.67554   0.00000  Uiso   1.00
O1329  O     0.68510   0.82642   0.66620   0.00000  Uiso   1.00
O1330  O     0.70554   0.86370   0.58150   0.00000  Uiso   1.00
Zn1331 Zn    0.93786   0.83951   0.75624   0.00000  Uiso   1.00
Zn1332 Zn    0.72881   0.82716   0.74377   0.00000  Uiso   1.00
loop_
_geom_bond_atom_site_label_1
_geom_bond_atom_site_label_2
_geom_bond_distance
_geom_bond_site_symmetry_2
_ccdc_geom_bond_type
C1     O65     1.310   .     A
C1     C3      1.406   .     S
C1     O211    1.303   1_455 S
C2     C4      1.443   .     S
C2     C23     1.430   .     A
C2     C10     1.401   .     A
C3     C375    1.324   1_455 S
C3     H282    1.086   .     S
C4     O67     1.301   .     A
C4     O214    1.331   1_455 S
C5     C6      1.403   .     S
C5     C521    1.324   1_545 S
C5     H477    1.089   1_545 S
C6     O68     1.302   .     A
C6     O143    1.309   .     S
C7     O70     1.317   .     A
C7     C9      1.452   .     S
C7     O145    1.315   .     S
C8     C32     1.410   .     A
C8     C694    1.404   1_554 S
C8     H721    1.075   1_554 S
C9     C31     1.402   .     A
C9     C32     1.417   .     A
C10    H56     1.079   .     S
C10    C11     1.378   .     A
C11    C679    1.387   .     S
C11    H724    1.078   .     S
C12    C23     1.399   .     A
C12    C679    1.394   .     S
C12    C693    1.387   .     S
C13    H57     1.074   .     S
C13    C678    1.394   1_554 S
C13    C677    1.387   1_554 S
C14    H34     1.104   .     S
C14    C15     1.541   .     S
C14    O72     1.431   .     S
C14    H35     1.114   .     S
C15    C16     1.520   .     S
C15    H36     1.112   .     S
C15    H37     1.103   .     S
C16    H40     1.105   .     S
C16    H260    1.110   .     S
C16    H261    1.111   .     S
C17    C18     1.437   .     A
C17    N62     1.527   .     S
C17    C22     1.430   .     A
C18    C19     1.402   .     A
C18    H41     1.029   .     S
C19    C20     1.370   .     A
C19    H42     1.085   .     S
C20    C21     1.370   .     A
C20    H265    1.082   .     S
C21    H45     1.086   .     S
C21    C22     1.404   .     A
C22    H46     1.000   .     S
C23    C30     1.431   .     A
C24    C25     1.538   .     S
C24    H48     1.115   .     S
C24    O64     1.424   .     S
C24    H47     1.108   .     S
C25    C26     1.523   .     S
C25    H49     1.109   .     S
C25    H50     1.110   .     S
C26    H53     1.106   .     S
C26    H51     1.111   .     S
C26    H718    1.111   1_554 S
C27    C31     1.384   .     A
C27    C678    1.387   1_554 S
C27    C694    1.394   1_554 S
C28    C29     1.397   .     A
C28    C674    1.404   .     S
C28    C693    1.394   .     S
C29    C30     1.407   .     A
C29    H54     1.083   .     S
C30    H59     1.078   .     S
C31    O64     1.389   .     S
C32    O146    1.394   .     S
H33    C227    1.089   .     S
H38    C460    1.110   1_545 S
H39    C460    1.111   1_545 S
H43    C464    1.082   1_545 S
H44    N61     1.028   .     S
H52    C692    1.111   .     S
H55    C674    1.075   .     S
H58    C677    1.078   1_554 S
H60    C447    1.086   1_545 S
N61    N62     1.260   .     D
N61    Zn74    2.075   .     S
N62    Zn73    2.075   .     S
O63    Zn73    1.977   .     S
O63    C75     1.303   .     S
O65    Zn74    1.971   .     S
O66    Zn73    2.023   .     S
O66    C78     1.331   .     S
O67    Zn74    2.031   .     S
O68    Zn73    1.971   .     S
O69    Zn74    1.977   .     S
O69    C154    1.309   1_455 S
O70    Zn73    2.031   .     S
O71    Zn74    2.023   .     S
O71    C155    1.315   1_455 S
O72    C180    1.394   1_455 S
C75    O139    1.310   .     A
C75    C77     1.406   .     S
C76    C78     1.443   .     S
C76    C97     1.430   .     A
C76    C84     1.401   .     A
C77    C227    1.324   .     S
C77    H356    1.086   .     S
C78    O141    1.301   .     A
C79    C80     1.403   .     S
C79    C595    1.324   1_545 S
C79    H551    1.089   1_545 S
C80    O142    1.302   .     A
C80    O217    1.309   .     S
C81    O144    1.317   .     A
C81    C83     1.452   .     S
C81    O219    1.315   .     S
C82    C106    1.410   .     A
C82    C768    1.404   1_554 S
C82    H795    1.075   1_554 S
C83    C105    1.402   .     A
C83    C106    1.417   .     A
C84    H130    1.079   .     S
C84    C85     1.378   .     A
C85    C753    1.387   .     S
C85    H798    1.078   .     S
C86    C97     1.399   .     A
C86    C753    1.394   .     S
C86    C767    1.387   .     S
C87    H131    1.074   .     S
C87    C752    1.394   1_554 S
C87    C751    1.387   1_554 S
C88    H108    1.104   .     S
C88    C89     1.541   .     S
C88    O146    1.431   .     S
C88    H109    1.114   .     S
C89    C90     1.520   .     S
C89    H110    1.112   .     S
C89    H111    1.103   .     S
C90    H114    1.105   .     S
C90    H334    1.110   .     S
C90    H335    1.111   .     S
C91    C92     1.437   .     A
C91    N136    1.527   .     S
C91    C96     1.430   .     A
C92    C93     1.402   .     A
C92    H115    1.029   .     S
C93    C94     1.370   .     A
C93    H116    1.085   .     S
C94    C95     1.370   .     A
C94    H339    1.082   .     S
C95    H119    1.086   .     S
C95    C96     1.404   .     A
C96    H120    1.000   .     S
C97    C104    1.431   .     A
C98    C99     1.538   .     S
C98    H122    1.115   .     S
C98    O138    1.424   .     S
C98    H121    1.108   .     S
C99    C100    1.523   .     S
C99    H123    1.109   .     S
C99    H124    1.110   .     S
C100   H127    1.106   .     S
C100   H125    1.111   .     S
C100   H792    1.111   1_554 S
C101   C105    1.384   .     A
C101   C752    1.387   1_554 S
C101   C768    1.394   1_554 S
C102   C103    1.397   .     A
C102   C748    1.404   .     S
C102   C767    1.394   .     S
C103   C104    1.407   .     A
C103   H128    1.083   .     S
C104   H133    1.078   .     S
C105   O138    1.389   .     S
C106   O220    1.394   .     S
H107   C301    1.089   .     S
H112   C534    1.110   1_545 S
H113   C534    1.111   1_545 S
H117   C538    1.082   1_545 S
H118   N135    1.028   .     S
H126   C766    1.111   .     S
H129   C748    1.075   .     S
H132   C751    1.078   1_554 S
H134   C521    1.086   1_545 S
N135   N136    1.260   .     D
N135   Zn148   2.075   .     S
N136   Zn147   2.075   .     S
O137   Zn147   1.977   .     S
O137   C149    1.303   .     S
O139   Zn148   1.971   .     S
O140   Zn147   2.023   .     S
O140   C152    1.331   .     S
O141   Zn148   2.031   .     S
O142   Zn147   1.971   .     S
O143   Zn148   1.977   .     S
O144   Zn147   2.031   .     S
O145   Zn148   2.023   .     S
C149   O213    1.310   .     A
C149   C151    1.406   .     S
C150   C152    1.443   .     S
C150   C171    1.430   .     A
C150   C158    1.401   .     A
C151   C301    1.324   .     S
C151   H430    1.086   .     S
C152   O215    1.301   .     A
C153   C154    1.403   .     S
C153   C447    1.324   1_645 S
C153   H625    1.089   1_545 S
C154   O216    1.302   .     A
C154   O69     1.309   1_655 S
C155   O218    1.317   .     A
C155   C157    1.452   .     S
C155   O71     1.315   1_655 S
C156   C180    1.410   .     A
C156   C842    1.404   1_554 S
C156   H869    1.075   1_554 S
C157   C179    1.402   .     A
C157   C180    1.417   .     A
C158   H204    1.079   .     S
C158   C159    1.378   .     A
C159   C827    1.387   .     S
C159   H872    1.078   .     S
C160   C171    1.399   .     A
C160   C827    1.394   .     S
C160   C841    1.387   .     S
C161   H205    1.074   .     S
C161   C826    1.394   1_554 S
C161   C825    1.387   1_554 S
C162   H182    1.104   .     S
C162   C163    1.541   .     S
C162   O220    1.431   .     S
C162   H183    1.114   .     S
C163   C164    1.520   .     S
C163   H184    1.112   .     S
C163   H185    1.103   .     S
C164   H188    1.105   .     S
C164   H408    1.110   .     S
C164   H409    1.111   .     S
C165   C166    1.437   .     A
C165   N210    1.527   .     S
C165   C170    1.430   .     A
C166   C167    1.402   .     A
C166   H189    1.029   .     S
C167   C168    1.370   .     A
C167   H190    1.085   .     S
C168   C169    1.370   .     A
C168   H413    1.082   .     S
C169   H193    1.086   .     S
C169   C170    1.404   .     A
C170   H194    1.000   .     S
C171   C178    1.431   .     A
C172   C173    1.538   .     S
C172   H196    1.115   .     S
C172   O212    1.424   .     S
C172   H195    1.108   .     S
C173   C174    1.523   .     S
C173   H197    1.109   .     S
C173   H198    1.110   .     S
C174   H201    1.106   .     S
C174   H199    1.111   .     S
C174   H866    1.111   1_554 S
C175   C179    1.384   .     A
C175   C826    1.387   1_554 S
C175   C842    1.394   1_554 S
C176   C177    1.397   .     A
C176   C822    1.404   .     S
C176   C841    1.394   .     S
C177   C178    1.407   .     A
C177   H202    1.083   .     S
C178   H207    1.078   .     S
C179   O212    1.389   .     S
C180   O72     1.394   1_655 S
H181   C375    1.089   .     S
H186   C608    1.110   1_545 S
H187   C608    1.111   1_545 S
H191   C612    1.082   1_545 S
H192   N209    1.028   .     S
H200   C840    1.111   .     S
H203   C822    1.075   .     S
H206   C825    1.078   1_554 S
H208   C595    1.086   1_545 S
N209   N210    1.260   .     D
N209   Zn222   2.075   .     S
N210   Zn221   2.075   .     S
O211   Zn221   1.977   .     S
O211   C1      1.303   1_655 S
O213   Zn222   1.971   .     S
O214   Zn221   2.023   .     S
O214   C4      1.331   1_655 S
O215   Zn222   2.031   .     S
O216   Zn221   1.971   .     S
O217   Zn222   1.977   .     S
O218   Zn221   2.031   .     S
O219   Zn222   2.023   .     S
C223   O287    1.310   .     A
C223   C225    1.406   .     S
C223   O433    1.303   1_455 S
C224   C226    1.443   .     S
C224   C245    1.430   .     A
C224   C232    1.401   .     A
C225   C597    1.324   1_455 S
C225   H504    1.086   .     S
C226   O289    1.301   .     A
C226   O436    1.331   1_455 S
C227   C228    1.403   .     S
C228   O290    1.302   .     A
C228   O365    1.309   .     S
C229   O292    1.317   .     A
C229   C231    1.452   .     S
C229   O367    1.315   .     S
C230   C254    1.410   .     A
C230   C916    1.404   1_554 S
C230   H943    1.075   1_554 S
C231   C253    1.402   .     A
C231   C254    1.417   .     A
C232   H278    1.079   .     S
C232   C233    1.378   .     A
C233   C901    1.387   .     S
C233   H946    1.078   .     S
C234   C245    1.399   .     A
C234   C901    1.394   .     S
C234   C915    1.387   .     S
C235   H279    1.074   .     S
C235   C900    1.394   1_554 S
C235   C899    1.387   1_554 S
C236   H256    1.104   .     S
C236   C237    1.541   .     S
C236   O294    1.431   .     S
C236   H257    1.114   .     S
C237   C238    1.520   .     S
C237   H258    1.112   .     S
C237   H259    1.103   .     S
C238   H262    1.105   .     S
C238   H482    1.110   .     S
C238   H483    1.111   .     S
C239   C240    1.437   .     A
C239   N284    1.527   .     S
C239   C244    1.430   .     A
C240   C241    1.402   .     A
C240   H263    1.029   .     S
C241   C242    1.370   .     A
C241   H264    1.085   .     S
C242   C243    1.370   .     A
C242   H487    1.082   .     S
C243   H267    1.086   .     S
C243   C244    1.404   .     A
C244   H268    1.000   .     S
C245   C252    1.431   .     A
C246   C247    1.538   .     S
C246   H270    1.115   .     S
C246   O286    1.424   .     S
C246   H269    1.108   .     S
C247   C248    1.523   .     S
C247   H271    1.109   .     S
C247   H272    1.110   .     S
C248   H275    1.106   .     S
C248   H273    1.111   .     S
C248   H940    1.111   1_554 S
C249   C253    1.384   .     A
C249   C900    1.387   1_554 S
C249   C916    1.394   1_554 S
C250   C251    1.397   .     A
C250   C896    1.404   .     S
C250   C915    1.394   .     S
C251   C252    1.407   .     A
C251   H276    1.083   .     S
C252   H281    1.078   .     S
C253   O286    1.389   .     S
C254   O368    1.394   .     S
H255   C449    1.089   .     S
H266   N283    1.028   .     S
H274   C914    1.111   .     S
H277   C896    1.075   .     S
H280   C899    1.078   1_554 S
N283   N284    1.260   .     D
N283   Zn296   2.075   .     S
N284   Zn295   2.075   .     S
O285   Zn295   1.977   .     S
O285   C297    1.303   .     S
O287   Zn296   1.971   .     S
O288   Zn295   2.023   .     S
O288   C300    1.331   .     S
O289   Zn296   2.031   .     S
O290   Zn295   1.971   .     S
O291   Zn296   1.977   .     S
O291   C376    1.309   1_455 S
O292   Zn295   2.031   .     S
O293   Zn296   2.023   .     S
O293   C377    1.315   1_455 S
O294   C402    1.394   1_455 S
C297   O361    1.310   .     A
C297   C299    1.406   .     S
C298   C300    1.443   .     S
C298   C319    1.430   .     A
C298   C306    1.401   .     A
C299   C449    1.324   .     S
C299   H578    1.086   .     S
C300   O363    1.301   .     A
C301   C302    1.403   .     S
C302   O364    1.302   .     A
C302   O439    1.309   .     S
C303   O366    1.317   .     A
C303   C305    1.452   .     S
C303   O441    1.315   .     S
C304   C328    1.410   .     A
C304   C990    1.404   1_554 S
C304   H1017   1.075   1_554 S
C305   C327    1.402   .     A
C305   C328    1.417   .     A
C306   H352    1.079   .     S
C306   C307    1.378   .     A
C307   C975    1.387   .     S
C307   H1020   1.078   .     S
C308   C319    1.399   .     A
C308   C975    1.394   .     S
C308   C989    1.387   .     S
C309   H353    1.074   .     S
C309   C974    1.394   1_554 S
C309   C973    1.387   1_554 S
C310   H330    1.104   .     S
C310   C311    1.541   .     S
C310   O368    1.431   .     S
C310   H331    1.114   .     S
C311   C312    1.520   .     S
C311   H332    1.112   .     S
C311   H333    1.103   .     S
C312   H336    1.105   .     S
C312   H556    1.110   .     S
C312   H557    1.111   .     S
C313   C314    1.437   .     A
C313   N358    1.527   .     S
C313   C318    1.430   .     A
C314   C315    1.402   .     A
C314   H337    1.029   .     S
C315   C316    1.370   .     A
C315   H338    1.085   .     S
C316   C317    1.370   .     A
C316   H561    1.082   .     S
C317   H341    1.086   .     S
C317   C318    1.404   .     A
C318   H342    1.000   .     S
C319   C326    1.431   .     A
C320   C321    1.538   .     S
C320   H344    1.115   .     S
C320   O360    1.424   .     S
C320   H343    1.108   .     S
C321   C322    1.523   .     S
C321   H345    1.109   .     S
C321   H346    1.110   .     S
C322   H349    1.106   .     S
C322   H347    1.111   .     S
C322   H1014   1.111   1_554 S
C323   C327    1.384   .     A
C323   C974    1.387   1_554 S
C323   C990    1.394   1_554 S
C324   C325    1.397   .     A
C324   C970    1.404   .     S
C324   C989    1.394   .     S
C325   C326    1.407   .     A
C325   H350    1.083   .     S
C326   H355    1.078   .     S
C327   O360    1.389   .     S
C328   O442    1.394   .     S
H329   C523    1.089   .     S
H340   N357    1.028   .     S
H348   C988    1.111   .     S
H351   C970    1.075   .     S
H354   C973    1.078   1_554 S
N357   N358    1.260   .     D
N357   Zn370   2.075   .     S
N358   Zn369   2.075   .     S
O359   Zn369   1.977   .     S
O359   C371    1.303   .     S
O361   Zn370   1.971   .     S
O362   Zn369   2.023   .     S
O362   C374    1.331   .     S
O363   Zn370   2.031   .     S
O364   Zn369   1.971   .     S
O365   Zn370   1.977   .     S
O366   Zn369   2.031   .     S
O367   Zn370   2.023   .     S
C371   O435    1.310   .     A
C371   C373    1.406   .     S
C372   C374    1.443   .     S
C372   C393    1.430   .     A
C372   C380    1.401   .     A
C373   C523    1.324   .     S
C373   H652    1.086   .     S
C374   O437    1.301   .     A
C375   C376    1.403   .     S
C375   C3      1.324   1_655 S
C376   O438    1.302   .     A
C376   O291    1.309   1_655 S
C377   O440    1.317   .     A
C377   C379    1.452   .     S
C377   O293    1.315   1_655 S
C378   C402    1.410   .     A
C378   C1064   1.404   1_554 S
C378   H1091   1.075   1_554 S
C379   C401    1.402   .     A
C379   C402    1.417   .     A
C380   H426    1.079   .     S
C380   C381    1.378   .     A
C381   C1049   1.387   .     S
C381   H1094   1.078   .     S
C382   C393    1.399   .     A
C382   C1049   1.394   .     S
C382   C1063   1.387   .     S
C383   H427    1.074   .     S
C383   C1048   1.394   1_554 S
C383   C1047   1.387   1_554 S
C384   H404    1.104   .     S
C384   C385    1.541   .     S
C384   O442    1.431   .     S
C384   H405    1.114   .     S
C385   C386    1.520   .     S
C385   H406    1.112   .     S
C385   H407    1.103   .     S
C386   H410    1.105   .     S
C386   H630    1.110   .     S
C386   H631    1.111   .     S
C387   C388    1.437   .     A
C387   N432    1.527   .     S
C387   C392    1.430   .     A
C388   C389    1.402   .     A
C388   H411    1.029   .     S
C389   C390    1.370   .     A
C389   H412    1.085   .     S
C390   C391    1.370   .     A
C390   H635    1.082   .     S
C391   H415    1.086   .     S
C391   C392    1.404   .     A
C392   H416    1.000   .     S
C393   C400    1.431   .     A
C394   C395    1.538   .     S
C394   H418    1.115   .     S
C394   O434    1.424   .     S
C394   H417    1.108   .     S
C395   C396    1.523   .     S
C395   H419    1.109   .     S
C395   H420    1.110   .     S
C396   H423    1.106   .     S
C396   H421    1.111   .     S
C396   H1088   1.111   1_554 S
C397   C401    1.384   .     A
C397   C1048   1.387   1_554 S
C397   C1064   1.394   1_554 S
C398   C399    1.397   .     A
C398   C1044   1.404   .     S
C398   C1063   1.394   .     S
C399   C400    1.407   .     A
C399   H424    1.083   .     S
C400   H429    1.078   .     S
C401   O434    1.389   .     S
C402   O294    1.394   1_655 S
H403   C597    1.089   .     S
H414   N431    1.028   .     S
H422   C1062   1.111   .     S
H425   C1044   1.075   .     S
H428   C1047   1.078   1_554 S
N431   N432    1.260   .     D
N431   Zn444   2.075   .     S
N432   Zn443   2.075   .     S
O433   Zn443   1.977   .     S
O433   C223    1.303   1_655 S
O435   Zn444   1.971   .     S
O436   Zn443   2.023   .     S
O436   C226    1.331   1_655 S
O437   Zn444   2.031   .     S
O438   Zn443   1.971   .     S
O439   Zn444   1.977   .     S
O440   Zn443   2.031   .     S
O441   Zn444   2.023   .     S
C445   O509    1.310   .     A
C445   C447    1.406   .     S
C445   O655    1.303   1_455 S
C446   C448    1.443   .     S
C446   C467    1.430   .     A
C446   C454    1.401   .     A
C447   C153    1.324   1_465 S
C447   H60     1.086   1_565 S
C448   O511    1.301   .     A
C448   O658    1.331   1_455 S
C449   C450    1.403   .     S
C450   O512    1.302   .     A
C450   O587    1.309   .     S
C451   O514    1.317   .     A
C451   C453    1.452   .     S
C451   O589    1.315   .     S
C452   C476    1.410   .     A
C452   C1138   1.404   1_554 S
C452   H1165   1.075   1_554 S
C453   C475    1.402   .     A
C453   C476    1.417   .     A
C454   H500    1.079   .     S
C454   C455    1.378   .     A
C455   C1123   1.387   .     S
C455   H1168   1.078   .     S
C456   C467    1.399   .     A
C456   C1123   1.394   .     S
C456   C1137   1.387   .     S
C457   H501    1.074   .     S
C457   C1122   1.394   1_554 S
C457   C1121   1.387   1_554 S
C458   H478    1.104   .     S
C458   C459    1.541   .     S
C458   O516    1.431   .     S
C458   H479    1.114   .     S
C459   C460    1.520   .     S
C459   H480    1.112   .     S
C459   H481    1.103   .     S
C460   H484    1.105   .     S
C460   H38     1.110   1_565 S
C460   H39     1.111   1_565 S
C461   C462    1.437   .     A
C461   N506    1.527   .     S
C461   C466    1.430   .     A
C462   C463    1.402   .     A
C462   H485    1.029   .     S
C463   C464    1.370   .     A
C463   H486    1.085   .     S
C464   C465    1.370   .     A
C464   H43     1.082   1_565 S
C465   H489    1.086   .     S
C465   C466    1.404   .     A
C466   H490    1.000   .     S
C467   C474    1.431   .     A
C468   C469    1.538   .     S
C468   H492    1.115   .     S
C468   O508    1.424   .     S
C468   H491    1.108   .     S
C469   C470    1.523   .     S
C469   H493    1.109   .     S
C469   H494    1.110   .     S
C470   H497    1.106   .     S
C470   H495    1.111   .     S
C470   H1162   1.111   1_554 S
C471   C475    1.384   .     A
C471   C1122   1.387   1_554 S
C471   C1138   1.394   1_554 S
C472   C473    1.397   .     A
C472   C1118   1.404   .     S
C472   C1137   1.394   .     S
C473   C474    1.407   .     A
C473   H498    1.083   .     S
C474   H503    1.078   .     S
C475   O508    1.389   .     S
C476   O590    1.394   .     S
H477   C5      1.089   1_565 S
H488   N505    1.028   .     S
H496   C1136   1.111   .     S
H499   C1118   1.075   .     S
H502   C1121   1.078   1_554 S
N505   N506    1.260   .     D
N505   Zn518   2.075   .     S
N506   Zn517   2.075   .     S
O507   Zn517   1.977   .     S
O507   C519    1.303   .     S
O509   Zn518   1.971   .     S
O510   Zn517   2.023   .     S
O510   C522    1.331   .     S
O511   Zn518   2.031   .     S
O512   Zn517   1.971   .     S
O513   Zn518   1.977   .     S
O513   C598    1.309   1_455 S
O514   Zn517   2.031   .     S
O515   Zn518   2.023   .     S
O515   C599    1.315   1_455 S
O516   C624    1.394   1_455 S
C519   O583    1.310   .     A
C519   C521    1.406   .     S
C520   C522    1.443   .     S
C520   C541    1.430   .     A
C520   C528    1.401   .     A
C521   C5      1.324   1_565 S
C521   H134    1.086   1_565 S
C522   O585    1.301   .     A
C523   C524    1.403   .     S
C524   O586    1.302   .     A
C524   O661    1.309   .     S
C525   O588    1.317   .     A
C525   C527    1.452   .     S
C525   O663    1.315   .     S
C526   C550    1.410   .     A
C526   C1212   1.404   1_554 S
C526   H1239   1.075   1_554 S
C527   C549    1.402   .     A
C527   C550    1.417   .     A
C528   H574    1.079   .     S
C528   C529    1.378   .     A
C529   C1197   1.387   .     S
C529   H1242   1.078   .     S
C530   C541    1.399   .     A
C530   C1197   1.394   .     S
C530   C1211   1.387   .     S
C531   H575    1.074   .     S
C531   C1196   1.394   1_554 S
C531   C1195   1.387   1_554 S
C532   H552    1.104   .     S
C532   C533    1.541   .     S
C532   O590    1.431   .     S
C532   H553    1.114   .     S
C533   C534    1.520   .     S
C533   H554    1.112   .     S
C533   H555    1.103   .     S
C534   H558    1.105   .     S
C534   H112    1.110   1_565 S
C534   H113    1.111   1_565 S
C535   C536    1.437   .     A
C535   N580    1.527   .     S
C535   C540    1.430   .     A
C536   C537    1.402   .     A
C536   H559    1.029   .     S
C537   C538    1.370   .     A
C537   H560    1.085   .     S
C538   C539    1.370   .     A
C538   H117    1.082   1_565 S
C539   H563    1.086   .     S
C539   C540    1.404   .     A
C540   H564    1.000   .     S
C541   C548    1.431   .     A
C542   C543    1.538   .     S
C542   H566    1.115   .     S
C542   O582    1.424   .     S
C542   H565    1.108   .     S
C543   C544    1.523   .     S
C543   H567    1.109   .     S
C543   H568    1.110   .     S
C544   H571    1.106   .     S
C544   H569    1.111   .     S
C544   H1236   1.111   1_554 S
C545   C549    1.384   .     A
C545   C1196   1.387   1_554 S
C545   C1212   1.394   1_554 S
C546   C547    1.397   .     A
C546   C1192   1.404   .     S
C546   C1211   1.394   .     S
C547   C548    1.407   .     A
C547   H572    1.083   .     S
C548   H577    1.078   .     S
C549   O582    1.389   .     S
C550   O664    1.394   .     S
H551   C79     1.089   1_565 S
H562   N579    1.028   .     S
H570   C1210   1.111   .     S
H573   C1192   1.075   .     S
H576   C1195   1.078   1_554 S
N579   N580    1.260   .     D
N579   Zn592   2.075   .     S
N580   Zn591   2.075   .     S
O581   Zn591   1.977   .     S
O581   C593    1.303   .     S
O583   Zn592   1.971   .     S
O584   Zn591   2.023   .     S
O584   C596    1.331   .     S
O585   Zn592   2.031   .     S
O586   Zn591   1.971   .     S
O587   Zn592   1.977   .     S
O588   Zn591   2.031   .     S
O589   Zn592   2.023   .     S
C593   O657    1.310   .     A
C593   C595    1.406   .     S
C594   C596    1.443   .     S
C594   C615    1.430   .     A
C594   C602    1.401   .     A
C595   C79     1.324   1_565 S
C595   H208    1.086   1_565 S
C596   O659    1.301   .     A
C597   C598    1.403   .     S
C597   C225    1.324   1_655 S
C598   O660    1.302   .     A
C598   O513    1.309   1_655 S
C599   O662    1.317   .     A
C599   C601    1.452   .     S
C599   O515    1.315   1_655 S
C600   C624    1.410   .     A
C600   C1286   1.404   1_554 S
C600   H1313   1.075   1_554 S
C601   C623    1.402   .     A
C601   C624    1.417   .     A
C602   H648    1.079   .     S
C602   C603    1.378   .     A
C603   C1271   1.387   .     S
C603   H1316   1.078   .     S
C604   C615    1.399   .     A
C604   C1271   1.394   .     S
C604   C1285   1.387   .     S
C605   H649    1.074   .     S
C605   C1270   1.394   1_554 S
C605   C1269   1.387   1_554 S
C606   H626    1.104   .     S
C606   C607    1.541   .     S
C606   O664    1.431   .     S
C606   H627    1.114   .     S
C607   C608    1.520   .     S
C607   H628    1.112   .     S
C607   H629    1.103   .     S
C608   H632    1.105   .     S
C608   H186    1.110   1_565 S
C608   H187    1.111   1_565 S
C609   C610    1.437   .     A
C609   N654    1.527   .     S
C609   C614    1.430   .     A
C610   C611    1.402   .     A
C610   H633    1.029   .     S
C611   C612    1.370   .     A
C611   H634    1.085   .     S
C612   C613    1.370   .     A
C612   H191    1.082   1_565 S
C613   H637    1.086   .     S
C613   C614    1.404   .     A
C614   H638    1.000   .     S
C615   C622    1.431   .     A
C616   C617    1.538   .     S
C616   H640    1.115   .     S
C616   O656    1.424   .     S
C616   H639    1.108   .     S
C617   C618    1.523   .     S
C617   H641    1.109   .     S
C617   H642    1.110   .     S
C618   H645    1.106   .     S
C618   H643    1.111   .     S
C618   H1310   1.111   1_554 S
C619   C623    1.384   .     A
C619   C1270   1.387   1_554 S
C619   C1286   1.394   1_554 S
C620   C621    1.397   .     A
C620   C1266   1.404   .     S
C620   C1285   1.394   .     S
C621   C622    1.407   .     A
C621   H646    1.083   .     S
C622   H651    1.078   .     S
C623   O656    1.389   .     S
C624   O516    1.394   1_655 S
H625   C153    1.089   1_565 S
H636   N653    1.028   .     S
H644   C1284   1.111   .     S
H647   C1266   1.075   .     S
H650   C1269   1.078   1_554 S
N653   N654    1.260   .     D
N653   Zn666   2.075   .     S
N654   Zn665   2.075   .     S
O655   Zn665   1.977   .     S
O655   C445    1.303   1_655 S
O657   Zn666   1.971   .     S
O658   Zn665   2.023   .     S
O658   C448    1.331   1_655 S
O659   Zn666   2.031   .     S
O660   Zn665   1.971   .     S
O661   Zn666   1.977   .     S
O662   Zn665   2.031   .     S
O663   Zn666   2.023   .     S
C667   O731    1.310   .     A
C667   C669    1.406   .     S
C667   O877    1.303   1_455 S
C668   C670    1.443   .     S
C668   C689    1.430   .     A
C668   C676    1.401   .     A
C669   C1041   1.324   1_455 S
C669   H948    1.086   .     S
C670   O733    1.301   .     A
C670   O880    1.331   1_455 S
C671   C672    1.403   .     S
C671   C1187   1.324   1_545 S
C671   H1143   1.089   1_545 S
C672   O734    1.302   .     A
C672   O809    1.309   .     S
C673   O736    1.317   .     A
C673   C675    1.452   .     S
C673   O811    1.315   .     S
C674   C698    1.410   .     A
C675   C697    1.402   .     A
C675   C698    1.417   .     A
C676   H722    1.079   .     S
C676   C677    1.378   .     A
C677   C13     1.387   1_556 S
C677   H58     1.078   1_556 S
C678   C689    1.399   .     A
C678   C13     1.394   1_556 S
C678   C27     1.387   1_556 S
C679   H723    1.074   .     S
C680   H700    1.104   .     S
C680   C681    1.541   .     S
C680   O738    1.431   .     S
C680   H701    1.114   .     S
C681   C682    1.520   .     S
C681   H702    1.112   .     S
C681   H703    1.103   .     S
C682   H706    1.105   .     S
C682   H926    1.110   .     S
C682   H927    1.111   .     S
C683   C684    1.437   .     A
C683   N728    1.527   .     S
C683   C688    1.430   .     A
C684   C685    1.402   .     A
C684   H707    1.029   .     S
C685   C686    1.370   .     A
C685   H708    1.085   .     S
C686   C687    1.370   .     A
C686   H931    1.082   .     S
C687   H711    1.086   .     S
C687   C688    1.404   .     A
C688   H712    1.000   .     S
C689   C696    1.431   .     A
C690   C691    1.538   .     S
C690   H714    1.115   .     S
C690   O730    1.424   .     S
C690   H713    1.108   .     S
C691   C692    1.523   .     S
C691   H715    1.109   .     S
C691   H716    1.110   .     S
C692   H719    1.106   .     S
C692   H717    1.111   .     S
C693   C697    1.384   .     A
C694   C695    1.397   .     A
C694   C8      1.404   1_556 S
C694   C27     1.394   1_556 S
C695   C696    1.407   .     A
C695   H720    1.083   .     S
C696   H725    1.078   .     S
C697   O730    1.389   .     S
C698   O812    1.394   .     S
H699   C893    1.089   .     S
H704   C1126   1.110   1_545 S
H705   C1126   1.111   1_545 S
H709   C1130   1.082   1_545 S
H710   N727    1.028   .     S
H718   C26     1.111   1_556 S
H721   C8      1.075   1_556 S
H726   C1113   1.086   1_545 S
N727   N728    1.260   .     D
N727   Zn740   2.075   .     S
N728   Zn739   2.075   .     S
O729   Zn739   1.977   .     S
O729   C741    1.303   .     S
O731   Zn740   1.971   .     S
O732   Zn739   2.023   .     S
O732   C744    1.331   .     S
O733   Zn740   2.031   .     S
O734   Zn739   1.971   .     S
O735   Zn740   1.977   .     S
O735   C820    1.309   1_455 S
O736   Zn739   2.031   .     S
O737   Zn740   2.023   .     S
O737   C821    1.315   1_455 S
O738   C846    1.394   1_455 S
C741   O805    1.310   .     A
C741   C743    1.406   .     S
C742   C744    1.443   .     S
C742   C763    1.430   .     A
C742   C750    1.401   .     A
C743   C893    1.324   .     S
C743   H1022   1.086   .     S
C744   O807    1.301   .     A
C745   C746    1.403   .     S
C745   C1261   1.324   1_545 S
C745   H1217   1.089   1_545 S
C746   O808    1.302   .     A
C746   O883    1.309   .     S
C747   O810    1.317   .     A
C747   C749    1.452   .     S
C747   O885    1.315   .     S
C748   C772    1.410   .     A
C749   C771    1.402   .     A
C749   C772    1.417   .     A
C750   H796    1.079   .     S
C750   C751    1.378   .     A
C751   C87     1.387   1_556 S
C751   H132    1.078   1_556 S
C752   C763    1.399   .     A
C752   C87     1.394   1_556 S
C752   C101    1.387   1_556 S
C753   H797    1.074   .     S
C754   H774    1.104   .     S
C754   C755    1.541   .     S
C754   O812    1.431   .     S
C754   H775    1.114   .     S
C755   C756    1.520   .     S
C755   H776    1.112   .     S
C755   H777    1.103   .     S
C756   H780    1.105   .     S
C756   H1000   1.110   .     S
C756   H1001   1.111   .     S
C757   C758    1.437   .     A
C757   N802    1.527   .     S
C757   C762    1.430   .     A
C758   C759    1.402   .     A
C758   H781    1.029   .     S
C759   C760    1.370   .     A
C759   H782    1.085   .     S
C760   C761    1.370   .     A
C760   H1005   1.082   .     S
C761   H785    1.086   .     S
C761   C762    1.404   .     A
C762   H786    1.000   .     S
C763   C770    1.431   .     A
C764   C765    1.538   .     S
C764   H788    1.115   .     S
C764   O804    1.424   .     S
C764   H787    1.108   .     S
C765   C766    1.523   .     S
C765   H789    1.109   .     S
C765   H790    1.110   .     S
C766   H793    1.106   .     S
C766   H791    1.111   .     S
C767   C771    1.384   .     A
C768   C769    1.397   .     A
C768   C82     1.404   1_556 S
C768   C101    1.394   1_556 S
C769   C770    1.407   .     A
C769   H794    1.083   .     S
C770   H799    1.078   .     S
C771   O804    1.389   .     S
C772   O886    1.394   .     S
H773   C967    1.089   .     S
H778   C1200   1.110   1_545 S
H779   C1200   1.111   1_545 S
H783   C1204   1.082   1_545 S
H784   N801    1.028   .     S
H792   C100    1.111   1_556 S
H795   C82     1.075   1_556 S
H800   C1187   1.086   1_545 S
N801   N802    1.260   .     D
N801   Zn814   2.075   .     S
N802   Zn813   2.075   .     S
O803   Zn813   1.977   .     S
O803   C815    1.303   .     S
O805   Zn814   1.971   .     S
O806   Zn813   2.023   .     S
O806   C818    1.331   .     S
O807   Zn814   2.031   .     S
O808   Zn813   1.971   .     S
O809   Zn814   1.977   .     S
O810   Zn813   2.031   .     S
O811   Zn814   2.023   .     S
C815   O879    1.310   .     A
C815   C817    1.406   .     S
C816   C818    1.443   .     S
C816   C837    1.430   .     A
C816   C824    1.401   .     A
C817   C967    1.324   .     S
C817   H1096   1.086   .     S
C818   O881    1.301   .     A
C819   C820    1.403   .     S
C819   C1113   1.324   1_645 S
C819   H1291   1.089   1_545 S
C820   O882    1.302   .     A
C820   O735    1.309   1_655 S
C821   O884    1.317   .     A
C821   C823    1.452   .     S
C821   O737    1.315   1_655 S
C822   C846    1.410   .     A
C823   C845    1.402   .     A
C823   C846    1.417   .     A
C824   H870    1.079   .     S
C824   C825    1.378   .     A
C825   C161    1.387   1_556 S
C825   H206    1.078   1_556 S
C826   C837    1.399   .     A
C826   C161    1.394   1_556 S
C826   C175    1.387   1_556 S
C827   H871    1.074   .     S
C828   H848    1.104   .     S
C828   C829    1.541   .     S
C828   O886    1.431   .     S
C828   H849    1.114   .     S
C829   C830    1.520   .     S
C829   H850    1.112   .     S
C829   H851    1.103   .     S
C830   H854    1.105   .     S
C830   H1074   1.110   .     S
C830   H1075   1.111   .     S
C831   C832    1.437   .     A
C831   N876    1.527   .     S
C831   C836    1.430   .     A
C832   C833    1.402   .     A
C832   H855    1.029   .     S
C833   C834    1.370   .     A
C833   H856    1.085   .     S
C834   C835    1.370   .     A
C834   H1079   1.082   .     S
C835   H859    1.086   .     S
C835   C836    1.404   .     A
C836   H860    1.000   .     S
C837   C844    1.431   .     A
C838   C839    1.538   .     S
C838   H862    1.115   .     S
C838   O878    1.424   .     S
C838   H861    1.108   .     S
C839   C840    1.523   .     S
C839   H863    1.109   .     S
C839   H864    1.110   .     S
C840   H867    1.106   .     S
C840   H865    1.111   .     S
C841   C845    1.384   .     A
C842   C843    1.397   .     A
C842   C156    1.404   1_556 S
C842   C175    1.394   1_556 S
C843   C844    1.407   .     A
C843   H868    1.083   .     S
C844   H873    1.078   .     S
C845   O878    1.389   .     S
C846   O738    1.394   1_655 S
H847   C1041   1.089   .     S
H852   C1274   1.110   1_545 S
H853   C1274   1.111   1_545 S
H857   C1278   1.082   1_545 S
H858   N875    1.028   .     S
H866   C174    1.111   1_556 S
H869   C156    1.075   1_556 S
H874   C1261   1.086   1_545 S
N875   N876    1.260   .     D
N875   Zn888   2.075   .     S
N876   Zn887   2.075   .     S
O877   Zn887   1.977   .     S
O877   C667    1.303   1_655 S
O879   Zn888   1.971   .     S
O880   Zn887   2.023   .     S
O880   C670    1.331   1_655 S
O881   Zn888   2.031   .     S
O882   Zn887   1.971   .     S
O883   Zn888   1.977   .     S
O884   Zn887   2.031   .     S
O885   Zn888   2.023   .     S
C889   O953    1.310   .     A
C889   C891    1.406   .     S
C889   O1099   1.303   1_455 S
C890   C892    1.443   .     S
C890   C911    1.430   .     A
C890   C898    1.401   .     A
C891   C1263   1.324   1_455 S
C891   H1170   1.086   .     S
C892   O955    1.301   .     A
C892   O1102   1.331   1_455 S
C893   C894    1.403   .     S
C894   O956    1.302   .     A
C894   O1031   1.309   .     S
C895   O958    1.317   .     A
C895   C897    1.452   .     S
C895   O1033   1.315   .     S
C896   C920    1.410   .     A
C897   C919    1.402   .     A
C897   C920    1.417   .     A
C898   H944    1.079   .     S
C898   C899    1.378   .     A
C899   C235    1.387   1_556 S
C899   H280    1.078   1_556 S
C900   C911    1.399   .     A
C900   C235    1.394   1_556 S
C900   C249    1.387   1_556 S
C901   H945    1.074   .     S
C902   H922    1.104   .     S
C902   C903    1.541   .     S
C902   O960    1.431   .     S
C902   H923    1.114   .     S
C903   C904    1.520   .     S
C903   H924    1.112   .     S
C903   H925    1.103   .     S
C904   H928    1.105   .     S
C904   H1148   1.110   .     S
C904   H1149   1.111   .     S
C905   C906    1.437   .     A
C905   N950    1.527   .     S
C905   C910    1.430   .     A
C906   C907    1.402   .     A
C906   H929    1.029   .     S
C907   C908    1.370   .     A
C907   H930    1.085   .     S
C908   C909    1.370   .     A
C908   H1153   1.082   .     S
C909   H933    1.086   .     S
C909   C910    1.404   .     A
C910   H934    1.000   .     S
C911   C918    1.431   .     A
C912   C913    1.538   .     S
C912   H936    1.115   .     S
C912   O952    1.424   .     S
C912   H935    1.108   .     S
C913   C914    1.523   .     S
C913   H937    1.109   .     S
C913   H938    1.110   .     S
C914   H941    1.106   .     S
C914   H939    1.111   .     S
C915   C919    1.384   .     A
C916   C917    1.397   .     A
C916   C230    1.404   1_556 S
C916   C249    1.394   1_556 S
C917   C918    1.407   .     A
C917   H942    1.083   .     S
C918   H947    1.078   .     S
C919   O952    1.389   .     S
C920   O1034   1.394   .     S
H921   C1115   1.089   .     S
H932   N949    1.028   .     S
H940   C248    1.111   1_556 S
H943   C230    1.075   1_556 S
N949   N950    1.260   .     D
N949   Zn962   2.075   .     S
N950   Zn961   2.075   .     S
O951   Zn961   1.977   .     S
O951   C963    1.303   .     S
O953   Zn962   1.971   .     S
O954   Zn961   2.023   .     S
O954   C966    1.331   .     S
O955   Zn962   2.031   .     S
O956   Zn961   1.971   .     S
O957   Zn962   1.977   .     S
O957   C1042   1.309   1_455 S
O958   Zn961   2.031   .     S
O959   Zn962   2.023   .     S
O959   C1043   1.315   1_455 S
O960   C1068   1.394   1_455 S
C963   O1027   1.310   .     A
C963   C965    1.406   .     S
C964   C966    1.443   .     S
C964   C985    1.430   .     A
C964   C972    1.401   .     A
C965   C1115   1.324   .     S
C965   H1244   1.086   .     S
C966   O1029   1.301   .     A
C967   C968    1.403   .     S
C968   O1030   1.302   .     A
C968   O1105   1.309   .     S
C969   O1032   1.317   .     A
C969   C971    1.452   .     S
C969   O1107   1.315   .     S
C970   C994    1.410   .     A
C971   C993    1.402   .     A
C971   C994    1.417   .     A
C972   H1018   1.079   .     S
C972   C973    1.378   .     A
C973   C309    1.387   1_556 S
C973   H354    1.078   1_556 S
C974   C985    1.399   .     A
C974   C309    1.394   1_556 S
C974   C323    1.387   1_556 S
C975   H1019   1.074   .     S
C976   H996    1.104   .     S
C976   C977    1.541   .     S
C976   O1034   1.431   .     S
C976   H997    1.114   .     S
C977   C978    1.520   .     S
C977   H998    1.112   .     S
C977   H999    1.103   .     S
C978   H1002   1.105   .     S
C978   H1222   1.110   .     S
C978   H1223   1.111   .     S
C979   C980    1.437   .     A
C979   N1024   1.527   .     S
C979   C984    1.430   .     A
C980   C981    1.402   .     A
C980   H1003   1.029   .     S
C981   C982    1.370   .     A
C981   H1004   1.085   .     S
C982   C983    1.370   .     A
C982   H1227   1.082   .     S
C983   H1007   1.086   .     S
C983   C984    1.404   .     A
C984   H1008   1.000   .     S
C985   C992    1.431   .     A
C986   C987    1.538   .     S
C986   H1010   1.115   .     S
C986   O1026   1.424   .     S
C986   H1009   1.108   .     S
C987   C988    1.523   .     S
C987   H1011   1.109   .     S
C987   H1012   1.110   .     S
C988   H1015   1.106   .     S
C988   H1013   1.111   .     S
C989   C993    1.384   .     A
C990   C991    1.397   .     A
C990   C304    1.404   1_556 S
C990   C323    1.394   1_556 S
C991   C992    1.407   .     A
C991   H1016   1.083   .     S
C992   H1021   1.078   .     S
C993   O1026   1.389   .     S
C994   O1108   1.394   .     S
H995   C1189   1.089   .     S
H1006  N1023   1.028   .     S
H1014  C322    1.111   1_556 S
H1017  C304    1.075   1_556 S
N1023  N1024   1.260   .     D
N1023  Zn1036  2.075   .     S
N1024  Zn1035  2.075   .     S
O1025  Zn1035  1.977   .     S
O1025  C1037   1.303   .     S
O1027  Zn1036  1.971   .     S
O1028  Zn1035  2.023   .     S
O1028  C1040   1.331   .     S
O1029  Zn1036  2.031   .     S
O1030  Zn1035  1.971   .     S
O1031  Zn1036  1.977   .     S
O1032  Zn1035  2.031   .     S
O1033  Zn1036  2.023   .     S
C1037  O1101   1.310   .     A
C1037  C1039   1.406   .     S
C1038  C1040   1.443   .     S
C1038  C1059   1.430   .     A
C1038  C1046   1.401   .     A
C1039  C1189   1.324   .     S
C1039  H1318   1.086   .     S
C1040  O1103   1.301   .     A
C1041  C1042   1.403   .     S
C1041  C669    1.324   1_655 S
C1042  O1104   1.302   .     A
C1042  O957    1.309   1_655 S
C1043  O1106   1.317   .     A
C1043  C1045   1.452   .     S
C1043  O959    1.315   1_655 S
C1044  C1068   1.410   .     A
C1045  C1067   1.402   .     A
C1045  C1068   1.417   .     A
C1046  H1092   1.079   .     S
C1046  C1047   1.378   .     A
C1047  C383    1.387   1_556 S
C1047  H428    1.078   1_556 S
C1048  C1059   1.399   .     A
C1048  C383    1.394   1_556 S
C1048  C397    1.387   1_556 S
C1049  H1093   1.074   .     S
C1050  H1070   1.104   .     S
C1050  C1051   1.541   .     S
C1050  O1108   1.431   .     S
C1050  H1071   1.114   .     S
C1051  C1052   1.520   .     S
C1051  H1072   1.112   .     S
C1051  H1073   1.103   .     S
C1052  H1076   1.105   .     S
C1052  H1296   1.110   .     S
C1052  H1297   1.111   .     S
C1053  C1054   1.437   .     A
C1053  N1098   1.527   .     S
C1053  C1058   1.430   .     A
C1054  C1055   1.402   .     A
C1054  H1077   1.029   .     S
C1055  C1056   1.370   .     A
C1055  H1078   1.085   .     S
C1056  C1057   1.370   .     A
C1056  H1301   1.082   .     S
C1057  H1081   1.086   .     S
C1057  C1058   1.404   .     A
C1058  H1082   1.000   .     S
C1059  C1066   1.431   .     A
C1060  C1061   1.538   .     S
C1060  H1084   1.115   .     S
C1060  O1100   1.424   .     S
C1060  H1083   1.108   .     S
C1061  C1062   1.523   .     S
C1061  H1085   1.109   .     S
C1061  H1086   1.110   .     S
C1062  H1089   1.106   .     S
C1062  H1087   1.111   .     S
C1063  C1067   1.384   .     A
C1064  C1065   1.397   .     A
C1064  C378    1.404   1_556 S
C1064  C397    1.394   1_556 S
C1065  C1066   1.407   .     A
C1065  H1090   1.083   .     S
C1066  H1095   1.078   .     S
C1067  O1100   1.389   .     S
C1068  O960    1.394   1_655 S
H1069  C1263   1.089   .     S
H1080  N1097   1.028   .     S
H1088  C396    1.111   1_556 S
H1091  C378    1.075   1_556 S
N1097  N1098   1.260   .     D
N1097  Zn1110  2.075   .     S
N1098  Zn1109  2.075   .     S
O1099  Zn1109  1.977   .     S
O1099  C889    1.303   1_655 S
O1101  Zn1110  1.971   .     S
O1102  Zn1109  2.023   .     S
O1102  C892    1.331   1_655 S
O1103  Zn1110  2.031   .     S
O1104  Zn1109  1.971   .     S
O1105  Zn1110  1.977   .     S
O1106  Zn1109  2.031   .     S
O1107  Zn1110  2.023   .     S
C1111  O1175   1.310   .     A
C1111  C1113   1.406   .     S
C1111  O1321   1.303   1_455 S
C1112  C1114   1.443   .     S
C1112  C1133   1.430   .     A
C1112  C1120   1.401   .     A
C1113  C819    1.324   1_465 S
C1113  H726    1.086   1_565 S
C1114  O1177   1.301   .     A
C1114  O1324   1.331   1_455 S
C1115  C1116   1.403   .     S
C1116  O1178   1.302   .     A
C1116  O1253   1.309   .     S
C1117  O1180   1.317   .     A
C1117  C1119   1.452   .     S
C1117  O1255   1.315   .     S
C1118  C1142   1.410   .     A
C1119  C1141   1.402   .     A
C1119  C1142   1.417   .     A
C1120  H1166   1.079   .     S
C1120  C1121   1.378   .     A
C1121  C457    1.387   1_556 S
C1121  H502    1.078   1_556 S
C1122  C1133   1.399   .     A
C1122  C457    1.394   1_556 S
C1122  C471    1.387   1_556 S
C1123  H1167   1.074   .     S
C1124  H1144   1.104   .     S
C1124  C1125   1.541   .     S
C1124  O1182   1.431   .     S
C1124  H1145   1.114   .     S
C1125  C1126   1.520   .     S
C1125  H1146   1.112   .     S
C1125  H1147   1.103   .     S
C1126  H1150   1.105   .     S
C1126  H704    1.110   1_565 S
C1126  H705    1.111   1_565 S
C1127  C1128   1.437   .     A
C1127  N1172   1.527   .     S
C1127  C1132   1.430   .     A
C1128  C1129   1.402   .     A
C1128  H1151   1.029   .     S
C1129  C1130   1.370   .     A
C1129  H1152   1.085   .     S
C1130  C1131   1.370   .     A
C1130  H709    1.082   1_565 S
C1131  H1155   1.086   .     S
C1131  C1132   1.404   .     A
C1132  H1156   1.000   .     S
C1133  C1140   1.431   .     A
C1134  C1135   1.538   .     S
C1134  H1158   1.115   .     S
C1134  O1174   1.424   .     S
C1134  H1157   1.108   .     S
C1135  C1136   1.523   .     S
C1135  H1159   1.109   .     S
C1135  H1160   1.110   .     S
C1136  H1163   1.106   .     S
C1136  H1161   1.111   .     S
C1137  C1141   1.384   .     A
C1138  C1139   1.397   .     A
C1138  C452    1.404   1_556 S
C1138  C471    1.394   1_556 S
C1139  C1140   1.407   .     A
C1139  H1164   1.083   .     S
C1140  H1169   1.078   .     S
C1141  O1174   1.389   .     S
C1142  O1256   1.394   .     S
H1143  C671    1.089   1_565 S
H1154  N1171   1.028   .     S
H1162  C470    1.111   1_556 S
H1165  C452    1.075   1_556 S
N1171  N1172   1.260   .     D
N1171  Zn1184  2.075   .     S
N1172  Zn1183  2.075   .     S
O1173  Zn1183  1.977   .     S
O1173  C1185   1.303   .     S
O1175  Zn1184  1.971   .     S
O1176  Zn1183  2.023   .     S
O1176  C1188   1.331   .     S
O1177  Zn1184  2.031   .     S
O1178  Zn1183  1.971   .     S
O1179  Zn1184  1.977   .     S
O1179  C1264   1.309   1_455 S
O1180  Zn1183  2.031   .     S
O1181  Zn1184  2.023   .     S
O1181  C1265   1.315   1_455 S
O1182  C1290   1.394   1_455 S
C1185  O1249   1.310   .     A
C1185  C1187   1.406   .     S
C1186  C1188   1.443   .     S
C1186  C1207   1.430   .     A
C1186  C1194   1.401   .     A
C1187  C671    1.324   1_565 S
C1187  H800    1.086   1_565 S
C1188  O1251   1.301   .     A
C1189  C1190   1.403   .     S
C1190  O1252   1.302   .     A
C1190  O1327   1.309   .     S
C1191  O1254   1.317   .     A
C1191  C1193   1.452   .     S
C1191  O1329   1.315   .     S
C1192  C1216   1.410   .     A
C1193  C1215   1.402   .     A
C1193  C1216   1.417   .     A
C1194  H1240   1.079   .     S
C1194  C1195   1.378   .     A
C1195  C531    1.387   1_556 S
C1195  H576    1.078   1_556 S
C1196  C1207   1.399   .     A
C1196  C531    1.394   1_556 S
C1196  C545    1.387   1_556 S
C1197  H1241   1.074   .     S
C1198  H1218   1.104   .     S
C1198  C1199   1.541   .     S
C1198  O1256   1.431   .     S
C1198  H1219   1.114   .     S
C1199  C1200   1.520   .     S
C1199  H1220   1.112   .     S
C1199  H1221   1.103   .     S
C1200  H1224   1.105   .     S
C1200  H778    1.110   1_565 S
C1200  H779    1.111   1_565 S
C1201  C1202   1.437   .     A
C1201  N1246   1.527   .     S
C1201  C1206   1.430   .     A
C1202  C1203   1.402   .     A
C1202  H1225   1.029   .     S
C1203  C1204   1.370   .     A
C1203  H1226   1.085   .     S
C1204  C1205   1.370   .     A
C1204  H783    1.082   1_565 S
C1205  H1229   1.086   .     S
C1205  C1206   1.404   .     A
C1206  H1230   1.000   .     S
C1207  C1214   1.431   .     A
C1208  C1209   1.538   .     S
C1208  H1232   1.115   .     S
C1208  O1248   1.424   .     S
C1208  H1231   1.108   .     S
C1209  C1210   1.523   .     S
C1209  H1233   1.109   .     S
C1209  H1234   1.110   .     S
C1210  H1237   1.106   .     S
C1210  H1235   1.111   .     S
C1211  C1215   1.384   .     A
C1212  C1213   1.397   .     A
C1212  C526    1.404   1_556 S
C1212  C545    1.394   1_556 S
C1213  C1214   1.407   .     A
C1213  H1238   1.083   .     S
C1214  H1243   1.078   .     S
C1215  O1248   1.389   .     S
C1216  O1330   1.394   .     S
H1217  C745    1.089   1_565 S
H1228  N1245   1.028   .     S
H1236  C544    1.111   1_556 S
H1239  C526    1.075   1_556 S
N1245  N1246   1.260   .     D
N1245  Zn1258  2.075   .     S
N1246  Zn1257  2.075   .     S
O1247  Zn1257  1.977   .     S
O1247  C1259   1.303   .     S
O1249  Zn1258  1.971   .     S
O1250  Zn1257  2.023   .     S
O1250  C1262   1.331   .     S
O1251  Zn1258  2.031   .     S
O1252  Zn1257  1.971   .     S
O1253  Zn1258  1.977   .     S
O1254  Zn1257  2.031   .     S
O1255  Zn1258  2.023   .     S
C1259  O1323   1.310   .     A
C1259  C1261   1.406   .     S
C1260  C1262   1.443   .     S
C1260  C1281   1.430   .     A
C1260  C1268   1.401   .     A
C1261  C745    1.324   1_565 S
C1261  H874    1.086   1_565 S
C1262  O1325   1.301   .     A
C1263  C1264   1.403   .     S
C1263  C891    1.324   1_655 S
C1264  O1326   1.302   .     A
C1264  O1179   1.309   1_655 S
C1265  O1328   1.317   .     A
C1265  C1267   1.452   .     S
C1265  O1181   1.315   1_655 S
C1266  C1290   1.410   .     A
C1267  C1289   1.402   .     A
C1267  C1290   1.417   .     A
C1268  H1314   1.079   .     S
C1268  C1269   1.378   .     A
C1269  C605    1.387   1_556 S
C1269  H650    1.078   1_556 S
C1270  C1281   1.399   .     A
C1270  C605    1.394   1_556 S
C1270  C619    1.387   1_556 S
C1271  H1315   1.074   .     S
C1272  H1292   1.104   .     S
C1272  C1273   1.541   .     S
C1272  O1330   1.431   .     S
C1272  H1293   1.114   .     S
C1273  C1274   1.520   .     S
C1273  H1294   1.112   .     S
C1273  H1295   1.103   .     S
C1274  H1298   1.105   .     S
C1274  H852    1.110   1_565 S
C1274  H853    1.111   1_565 S
C1275  C1276   1.437   .     A
C1275  N1320   1.527   .     S
C1275  C1280   1.430   .     A
C1276  C1277   1.402   .     A
C1276  H1299   1.029   .     S
C1277  C1278   1.370   .     A
C1277  H1300   1.085   .     S
C1278  C1279   1.370   .     A
C1278  H857    1.082   1_565 S
C1279  H1303   1.086   .     S
C1279  C1280   1.404   .     A
C1280  H1304   1.000   .     S
C1281  C1288   1.431   .     A
C1282  C1283   1.538   .     S
C1282  H1306   1.115   .     S
C1282  O1322   1.424   .     S
C1282  H1305   1.108   .     S
C1283  C1284   1.523   .     S
C1283  H1307   1.109   .     S
C1283  H1308   1.110   .     S
C1284  H1311   1.106   .     S
C1284  H1309   1.111   .     S
C1285  C1289   1.384   .     A
C1286  C1287   1.397   .     A
C1286  C600    1.404   1_556 S
C1286  C619    1.394   1_556 S
C1287  C1288   1.407   .     A
C1287  H1312   1.083   .     S
C1288  H1317   1.078   .     S
C1289  O1322   1.389   .     S
C1290  O1182   1.394   1_655 S
H1291  C819    1.089   1_565 S
H1302  N1319   1.028   .     S
H1310  C618    1.111   1_556 S
H1313  C600    1.075   1_556 S
N1319  N1320   1.260   .     D
N1319  Zn1332  2.075   .     S
N1320  Zn1331  2.075   .     S
O1321  Zn1331  1.977   .     S
O1321  C1111   1.303   1_655 S
O1323  Zn1332  1.971   .     S
O1324  Zn1331  2.023   .     S
O1324  C1114   1.331   1_655 S
O1325  Zn1332  2.031   .     S
O1326  Zn1331  1.971   .     S
O1327  Zn1332  1.977   .     S
O1328  Zn1331  2.031   .     S
O1329  Zn1332  2.023   .     S
