data_str_m3_o1_o17_pcu_sym.224
_audit_creation_date              2020-01-03
_audit_creation_method            'Materials Studio'
_symmetry_space_group_name_H-M    'P1'
_symmetry_Int_Tables_number       1
_symmetry_cell_setting            triclinic
loop_
_symmetry_equiv_pos_as_xyz
  x,y,z
_cell_length_a                    32.6490
_cell_length_b                    29.6356
_cell_length_c                    29.8269
_cell_angle_alpha                 90.0168
_cell_angle_beta                  91.4822
_cell_angle_gamma                 90.0029
loop_
_atom_site_label
_atom_site_type_symbol
_atom_site_fract_x
_atom_site_fract_y
_atom_site_fract_z
_atom_site_U_iso_or_equiv
_atom_site_adp_type
_atom_site_occupancy
O1     O     0.10559   0.20487   0.25000   0.00000  Uiso   1.00
O2     O     0.22774   0.12846   0.25000   0.00000  Uiso   1.00
O3     O     0.22774   0.20487   0.25000   0.00000  Uiso   1.00
O4     O     0.10559   0.12846   0.25000   0.00000  Uiso   1.00
C5     C     0.08672   0.16668   0.25330   0.00000  Uiso   1.00
C6     C     0.24661   0.16668   0.24671   0.00000  Uiso   1.00
O7     O     0.16666   0.20489   0.18393   0.00000  Uiso   1.00
O8     O     0.16667   0.12844   0.31607   0.00000  Uiso   1.00
O9     O     0.16667   0.20489   0.31608   0.00000  Uiso   1.00
O10    O     0.16666   0.12844   0.18392   0.00000  Uiso   1.00
C11    C     0.16611   0.16671   0.16361   0.00000  Uiso   1.00
C12    C     0.16722   0.16673   0.33639   0.00000  Uiso   1.00
Zn13   Zn    0.16667   0.21771   0.25000   0.00000  Uiso   1.00
Zn14   Zn    0.16667   0.11563   0.25000   0.00000  Uiso   1.00
C15    C     0.20443   0.16921   0.40790   0.00000  Uiso   1.00
C16    C     0.12892   0.16916   0.09210   0.00000  Uiso   1.00
C17    C     0.16711   0.16779   0.38415   0.00000  Uiso   1.00
C18    C     0.16623   0.16774   0.11585   0.00000  Uiso   1.00
C19    C     0.12955   0.17204   0.40495   0.00000  Uiso   1.00
C20    C     0.20379   0.17198   0.09506   0.00000  Uiso   1.00
C21    C     0.12880   0.17696   0.45178   0.00000  Uiso   1.00
C22    C     0.20455   0.17691   0.04823   0.00000  Uiso   1.00
C23    C     0.16660   0.17723   0.47646   0.00000  Uiso   1.00
C24    C     0.16675   0.17721   0.02355   0.00000  Uiso   1.00
C25    C     0.20432   0.17716   0.45416   0.00000  Uiso   1.00
C26    C     0.12902   0.17713   0.04584   0.00000  Uiso   1.00
C27    C     0.09198   0.18381   0.47473   0.00000  Uiso   1.00
C28    C     0.24137   0.18377   0.02529   0.00000  Uiso   1.00
C29    C     0.09269   0.18654   0.02134   0.00000  Uiso   1.00
C30    C     0.24065   0.18654   0.47869   0.00000  Uiso   1.00
C31    C     0.02080   0.12544   0.25494   0.00000  Uiso   1.00
C32    C     0.31249   0.20818   0.24531   0.00000  Uiso   1.00
C33    C     0.31253   0.12544   0.24503   0.00000  Uiso   1.00
C34    C     0.02085   0.20818   0.25474   0.00000  Uiso   1.00
C35    C     0.29098   0.16677   0.24387   0.00000  Uiso   1.00
C36    C     0.04235   0.16677   0.25614   0.00000  Uiso   1.00
C37    C     0.18410   0.02398   0.28507   0.00000  Uiso   1.00
C38    C     0.14929   0.30938   0.21490   0.00000  Uiso   1.00
C39    C     0.14923   0.02396   0.21493   0.00000  Uiso   1.00
C40    C     0.18404   0.30940   0.28510   0.00000  Uiso   1.00
N41    N     0.16667   0.28573   0.25000   0.00000  Uiso   1.00
N42    N     0.16667   0.04760   0.25000   0.00000  Uiso   1.00
N43    N     0.24154   0.15717   0.38583   0.00000  Uiso   1.00
O44    O     0.25361   0.17983   0.35125   0.00000  Uiso   1.00
O45    O     0.26346   0.12334   0.40053   0.00000  Uiso   1.00
N46    N     0.09180   0.15709   0.11415   0.00000  Uiso   1.00
O47    O     0.07972   0.17971   0.14876   0.00000  Uiso   1.00
O48    O     0.06989   0.12326   0.09939   0.00000  Uiso   1.00
N49    N     0.09267   0.16921   0.37793   0.00000  Uiso   1.00
O50    O     0.07623   0.12998   0.36978   0.00000  Uiso   1.00
O51    O     0.08033   0.20413   0.35491   0.00000  Uiso   1.00
N52    N     0.24067   0.16911   0.12207   0.00000  Uiso   1.00
O53    O     0.25712   0.12987   0.13012   0.00000  Uiso   1.00
O54    O     0.25302   0.20399   0.14516   0.00000  Uiso   1.00
N55    N     0.05367   0.18978   0.45134   0.00000  Uiso   1.00
O56    O     0.04287   0.22966   0.43715   0.00000  Uiso   1.00
O57    O     0.02769   0.15653   0.44910   0.00000  Uiso   1.00
N58    N     0.27968   0.18972   0.04869   0.00000  Uiso   1.00
O59    O     0.29047   0.22957   0.06296   0.00000  Uiso   1.00
O60    O     0.30566   0.15647   0.05083   0.00000  Uiso   1.00
Cl61   Cl    0.04995   0.21095   0.04718   0.00000  Uiso   1.00
Cl62   Cl    0.28340   0.21098   0.45287   0.00000  Uiso   1.00
Cl63   Cl    0.04356   0.07288   0.27014   0.00000  Uiso   1.00
Cl64   Cl    0.28953   0.26096   0.23119   0.00000  Uiso   1.00
Cl65   Cl    0.28976   0.07289   0.22978   0.00000  Uiso   1.00
Cl66   Cl    0.04382   0.26096   0.26891   0.00000  Uiso   1.00
N67    N     0.20316   0.04749   0.32184   0.00000  Uiso   1.00
O68    O     0.23999   0.06344   0.31812   0.00000  Uiso   1.00
O69    O     0.18662   0.04670   0.36105   0.00000  Uiso   1.00
N70    N     0.13022   0.28591   0.17813   0.00000  Uiso   1.00
O71    O     0.09214   0.27358   0.18052   0.00000  Uiso   1.00
O72    O     0.14781   0.28511   0.13950   0.00000  Uiso   1.00
N73    N     0.13020   0.04745   0.17814   0.00000  Uiso   1.00
O74    O     0.09337   0.06339   0.18183   0.00000  Uiso   1.00
O75    O     0.14678   0.04665   0.13895   0.00000  Uiso   1.00
N76    N     0.20309   0.28595   0.32188   0.00000  Uiso   1.00
O77    O     0.24118   0.27369   0.31955   0.00000  Uiso   1.00
O78    O     0.18545   0.28515   0.36049   0.00000  Uiso   1.00
O79    O     0.43892   0.20487   0.25000   0.00000  Uiso   1.00
O80    O     0.56108   0.12846   0.25000   0.00000  Uiso   1.00
O81    O     0.56108   0.20487   0.25000   0.00000  Uiso   1.00
O82    O     0.43892   0.12846   0.25000   0.00000  Uiso   1.00
C83    C     0.42006   0.16668   0.25330   0.00000  Uiso   1.00
C84    C     0.57994   0.16668   0.24671   0.00000  Uiso   1.00
O85    O     0.49999   0.20489   0.18393   0.00000  Uiso   1.00
O86    O     0.50001   0.12844   0.31607   0.00000  Uiso   1.00
O87    O     0.50001   0.20489   0.31608   0.00000  Uiso   1.00
O88    O     0.49999   0.12844   0.18392   0.00000  Uiso   1.00
C89    C     0.49944   0.16671   0.16361   0.00000  Uiso   1.00
C90    C     0.50056   0.16673   0.33639   0.00000  Uiso   1.00
Zn91   Zn    0.50000   0.21771   0.25000   0.00000  Uiso   1.00
Zn92   Zn    0.50000   0.11563   0.25000   0.00000  Uiso   1.00
C93    C     0.53776   0.16921   0.40790   0.00000  Uiso   1.00
C94    C     0.46225   0.16916   0.09210   0.00000  Uiso   1.00
C95    C     0.50044   0.16779   0.38415   0.00000  Uiso   1.00
C96    C     0.49956   0.16774   0.11585   0.00000  Uiso   1.00
C97    C     0.46289   0.17204   0.40495   0.00000  Uiso   1.00
C98    C     0.53712   0.17198   0.09506   0.00000  Uiso   1.00
C99    C     0.46213   0.17696   0.45178   0.00000  Uiso   1.00
C100   C     0.53788   0.17691   0.04823   0.00000  Uiso   1.00
C101   C     0.49993   0.17723   0.47646   0.00000  Uiso   1.00
C102   C     0.50008   0.17721   0.02355   0.00000  Uiso   1.00
C103   C     0.53765   0.17716   0.45416   0.00000  Uiso   1.00
C104   C     0.46236   0.17713   0.04584   0.00000  Uiso   1.00
C105   C     0.42531   0.18381   0.47473   0.00000  Uiso   1.00
C106   C     0.57470   0.18377   0.02529   0.00000  Uiso   1.00
C107   C     0.42603   0.18654   0.02134   0.00000  Uiso   1.00
C108   C     0.57399   0.18654   0.47869   0.00000  Uiso   1.00
C109   C     0.35413   0.12544   0.25494   0.00000  Uiso   1.00
C110   C     0.64582   0.20818   0.24531   0.00000  Uiso   1.00
C111   C     0.64586   0.12544   0.24503   0.00000  Uiso   1.00
C112   C     0.35418   0.20818   0.25474   0.00000  Uiso   1.00
C113   C     0.62432   0.16677   0.24387   0.00000  Uiso   1.00
C114   C     0.37568   0.16677   0.25614   0.00000  Uiso   1.00
C115   C     0.51744   0.02398   0.28507   0.00000  Uiso   1.00
C116   C     0.48262   0.30938   0.21490   0.00000  Uiso   1.00
C117   C     0.48257   0.02396   0.21493   0.00000  Uiso   1.00
C118   C     0.51738   0.30940   0.28510   0.00000  Uiso   1.00
N119   N     0.50000   0.28573   0.25000   0.00000  Uiso   1.00
N120   N     0.50000   0.04760   0.25000   0.00000  Uiso   1.00
N121   N     0.57488   0.15717   0.38583   0.00000  Uiso   1.00
O122   O     0.58695   0.17983   0.35125   0.00000  Uiso   1.00
O123   O     0.59679   0.12334   0.40053   0.00000  Uiso   1.00
N124   N     0.42513   0.15709   0.11415   0.00000  Uiso   1.00
O125   O     0.41305   0.17971   0.14876   0.00000  Uiso   1.00
O126   O     0.40323   0.12326   0.09939   0.00000  Uiso   1.00
N127   N     0.42600   0.16921   0.37793   0.00000  Uiso   1.00
O128   O     0.40957   0.12998   0.36978   0.00000  Uiso   1.00
O129   O     0.41366   0.20413   0.35491   0.00000  Uiso   1.00
N130   N     0.57401   0.16911   0.12207   0.00000  Uiso   1.00
O131   O     0.59045   0.12987   0.13012   0.00000  Uiso   1.00
O132   O     0.58635   0.20399   0.14516   0.00000  Uiso   1.00
N133   N     0.38700   0.18978   0.45134   0.00000  Uiso   1.00
O134   O     0.37621   0.22966   0.43715   0.00000  Uiso   1.00
O135   O     0.36103   0.15653   0.44910   0.00000  Uiso   1.00
N136   N     0.61302   0.18972   0.04869   0.00000  Uiso   1.00
O137   O     0.62381   0.22957   0.06296   0.00000  Uiso   1.00
O138   O     0.63900   0.15647   0.05083   0.00000  Uiso   1.00
Cl139  Cl    0.38329   0.21095   0.04718   0.00000  Uiso   1.00
Cl140  Cl    0.61673   0.21098   0.45287   0.00000  Uiso   1.00
Cl141  Cl    0.37689   0.07288   0.27014   0.00000  Uiso   1.00
Cl142  Cl    0.62286   0.26096   0.23119   0.00000  Uiso   1.00
Cl143  Cl    0.62309   0.07289   0.22978   0.00000  Uiso   1.00
Cl144  Cl    0.37715   0.26096   0.26891   0.00000  Uiso   1.00
N145   N     0.53650   0.04749   0.32184   0.00000  Uiso   1.00
O146   O     0.57332   0.06344   0.31812   0.00000  Uiso   1.00
O147   O     0.51995   0.04670   0.36105   0.00000  Uiso   1.00
N148   N     0.46355   0.28591   0.17813   0.00000  Uiso   1.00
O149   O     0.42548   0.27358   0.18052   0.00000  Uiso   1.00
O150   O     0.48115   0.28511   0.13950   0.00000  Uiso   1.00
N151   N     0.46353   0.04745   0.17814   0.00000  Uiso   1.00
O152   O     0.42670   0.06339   0.18183   0.00000  Uiso   1.00
O153   O     0.48011   0.04665   0.13895   0.00000  Uiso   1.00
N154   N     0.53642   0.28595   0.32188   0.00000  Uiso   1.00
O155   O     0.57451   0.27369   0.31955   0.00000  Uiso   1.00
O156   O     0.51879   0.28515   0.36049   0.00000  Uiso   1.00
O157   O     0.77226   0.20487   0.25000   0.00000  Uiso   1.00
O158   O     0.89441   0.12846   0.25000   0.00000  Uiso   1.00
O159   O     0.89441   0.20487   0.25000   0.00000  Uiso   1.00
O160   O     0.77226   0.12846   0.25000   0.00000  Uiso   1.00
C161   C     0.75339   0.16668   0.25330   0.00000  Uiso   1.00
C162   C     0.91328   0.16668   0.24671   0.00000  Uiso   1.00
O163   O     0.83333   0.20489   0.18393   0.00000  Uiso   1.00
O164   O     0.83334   0.12844   0.31607   0.00000  Uiso   1.00
O165   O     0.83334   0.20489   0.31608   0.00000  Uiso   1.00
O166   O     0.83333   0.12844   0.18392   0.00000  Uiso   1.00
C167   C     0.83278   0.16671   0.16361   0.00000  Uiso   1.00
C168   C     0.83389   0.16673   0.33639   0.00000  Uiso   1.00
Zn169  Zn    0.83333   0.21771   0.25000   0.00000  Uiso   1.00
Zn170  Zn    0.83333   0.11563   0.25000   0.00000  Uiso   1.00
C171   C     0.87109   0.16921   0.40790   0.00000  Uiso   1.00
C172   C     0.79558   0.16916   0.09210   0.00000  Uiso   1.00
C173   C     0.83378   0.16779   0.38415   0.00000  Uiso   1.00
C174   C     0.83289   0.16774   0.11585   0.00000  Uiso   1.00
C175   C     0.79622   0.17204   0.40495   0.00000  Uiso   1.00
C176   C     0.87046   0.17198   0.09506   0.00000  Uiso   1.00
C177   C     0.79546   0.17696   0.45178   0.00000  Uiso   1.00
C178   C     0.87121   0.17691   0.04823   0.00000  Uiso   1.00
C179   C     0.83326   0.17723   0.47646   0.00000  Uiso   1.00
C180   C     0.83341   0.17721   0.02355   0.00000  Uiso   1.00
C181   C     0.87099   0.17716   0.45416   0.00000  Uiso   1.00
C182   C     0.79569   0.17713   0.04584   0.00000  Uiso   1.00
C183   C     0.75864   0.18381   0.47473   0.00000  Uiso   1.00
C184   C     0.90804   0.18377   0.02529   0.00000  Uiso   1.00
C185   C     0.75936   0.18654   0.02134   0.00000  Uiso   1.00
C186   C     0.90732   0.18654   0.47869   0.00000  Uiso   1.00
C187   C     0.68747   0.12544   0.25494   0.00000  Uiso   1.00
C188   C     0.97915   0.20818   0.24531   0.00000  Uiso   1.00
C189   C     0.97920   0.12544   0.24503   0.00000  Uiso   1.00
C190   C     0.68752   0.20818   0.25474   0.00000  Uiso   1.00
C191   C     0.95765   0.16677   0.24387   0.00000  Uiso   1.00
C192   C     0.70902   0.16677   0.25614   0.00000  Uiso   1.00
C193   C     0.85077   0.02398   0.28507   0.00000  Uiso   1.00
C194   C     0.81595   0.30938   0.21490   0.00000  Uiso   1.00
C195   C     0.81590   0.02396   0.21493   0.00000  Uiso   1.00
C196   C     0.85071   0.30940   0.28510   0.00000  Uiso   1.00
N197   N     0.83333   0.28573   0.25000   0.00000  Uiso   1.00
N198   N     0.83333   0.04760   0.25000   0.00000  Uiso   1.00
N199   N     0.90821   0.15717   0.38583   0.00000  Uiso   1.00
O200   O     0.92028   0.17983   0.35125   0.00000  Uiso   1.00
O201   O     0.93012   0.12334   0.40053   0.00000  Uiso   1.00
N202   N     0.75846   0.15709   0.11415   0.00000  Uiso   1.00
O203   O     0.74639   0.17971   0.14876   0.00000  Uiso   1.00
O204   O     0.73656   0.12326   0.09939   0.00000  Uiso   1.00
N205   N     0.75933   0.16921   0.37793   0.00000  Uiso   1.00
O206   O     0.74290   0.12998   0.36978   0.00000  Uiso   1.00
O207   O     0.74699   0.20413   0.35491   0.00000  Uiso   1.00
N208   N     0.90734   0.16911   0.12207   0.00000  Uiso   1.00
O209   O     0.92378   0.12987   0.13012   0.00000  Uiso   1.00
O210   O     0.91969   0.20399   0.14516   0.00000  Uiso   1.00
N211   N     0.72033   0.18978   0.45134   0.00000  Uiso   1.00
O212   O     0.70954   0.22966   0.43715   0.00000  Uiso   1.00
O213   O     0.69436   0.15653   0.44910   0.00000  Uiso   1.00
N214   N     0.94635   0.18972   0.04869   0.00000  Uiso   1.00
O215   O     0.95714   0.22957   0.06296   0.00000  Uiso   1.00
O216   O     0.97233   0.15647   0.05083   0.00000  Uiso   1.00
Cl217  Cl    0.71662   0.21095   0.04718   0.00000  Uiso   1.00
Cl218  Cl    0.95006   0.21098   0.45287   0.00000  Uiso   1.00
Cl219  Cl    0.71023   0.07288   0.27014   0.00000  Uiso   1.00
Cl220  Cl    0.95619   0.26096   0.23119   0.00000  Uiso   1.00
Cl221  Cl    0.95643   0.07289   0.22978   0.00000  Uiso   1.00
Cl222  Cl    0.71049   0.26096   0.26891   0.00000  Uiso   1.00
N223   N     0.86983   0.04749   0.32184   0.00000  Uiso   1.00
O224   O     0.90665   0.06344   0.31812   0.00000  Uiso   1.00
O225   O     0.85329   0.04670   0.36105   0.00000  Uiso   1.00
N226   N     0.79688   0.28591   0.17813   0.00000  Uiso   1.00
O227   O     0.75881   0.27358   0.18052   0.00000  Uiso   1.00
O228   O     0.81448   0.28511   0.13950   0.00000  Uiso   1.00
N229   N     0.79687   0.04745   0.17814   0.00000  Uiso   1.00
O230   O     0.76004   0.06339   0.18183   0.00000  Uiso   1.00
O231   O     0.81344   0.04665   0.13895   0.00000  Uiso   1.00
N232   N     0.86976   0.28595   0.32188   0.00000  Uiso   1.00
O233   O     0.90785   0.27369   0.31955   0.00000  Uiso   1.00
O234   O     0.85212   0.28515   0.36049   0.00000  Uiso   1.00
O235   O     0.10559   0.53821   0.25000   0.00000  Uiso   1.00
O236   O     0.22774   0.46179   0.25000   0.00000  Uiso   1.00
O237   O     0.22774   0.53821   0.25000   0.00000  Uiso   1.00
O238   O     0.10559   0.46179   0.25000   0.00000  Uiso   1.00
C239   C     0.08672   0.50001   0.25330   0.00000  Uiso   1.00
C240   C     0.24661   0.50001   0.24671   0.00000  Uiso   1.00
O241   O     0.16666   0.53823   0.18393   0.00000  Uiso   1.00
O242   O     0.16667   0.46177   0.31607   0.00000  Uiso   1.00
O243   O     0.16667   0.53823   0.31608   0.00000  Uiso   1.00
O244   O     0.16666   0.46177   0.18392   0.00000  Uiso   1.00
C245   C     0.16611   0.50005   0.16361   0.00000  Uiso   1.00
C246   C     0.16722   0.50006   0.33639   0.00000  Uiso   1.00
Zn247  Zn    0.16667   0.55104   0.25000   0.00000  Uiso   1.00
Zn248  Zn    0.16667   0.44896   0.25000   0.00000  Uiso   1.00
C249   C     0.20443   0.50254   0.40790   0.00000  Uiso   1.00
C250   C     0.12892   0.50249   0.09210   0.00000  Uiso   1.00
C251   C     0.16711   0.50112   0.38415   0.00000  Uiso   1.00
C252   C     0.16623   0.50108   0.11585   0.00000  Uiso   1.00
C253   C     0.12955   0.50538   0.40495   0.00000  Uiso   1.00
C254   C     0.20379   0.50531   0.09506   0.00000  Uiso   1.00
C255   C     0.12880   0.51029   0.45178   0.00000  Uiso   1.00
C256   C     0.20455   0.51025   0.04823   0.00000  Uiso   1.00
C257   C     0.16660   0.51057   0.47646   0.00000  Uiso   1.00
C258   C     0.16675   0.51055   0.02355   0.00000  Uiso   1.00
C259   C     0.20432   0.51049   0.45416   0.00000  Uiso   1.00
C260   C     0.12902   0.51047   0.04584   0.00000  Uiso   1.00
C261   C     0.09198   0.51714   0.47473   0.00000  Uiso   1.00
C262   C     0.24137   0.51710   0.02529   0.00000  Uiso   1.00
C263   C     0.09269   0.51987   0.02134   0.00000  Uiso   1.00
C264   C     0.24065   0.51987   0.47869   0.00000  Uiso   1.00
C265   C     0.02080   0.45877   0.25494   0.00000  Uiso   1.00
C266   C     0.31249   0.54151   0.24531   0.00000  Uiso   1.00
C267   C     0.31253   0.45877   0.24503   0.00000  Uiso   1.00
C268   C     0.02085   0.54151   0.25474   0.00000  Uiso   1.00
C269   C     0.29098   0.50011   0.24387   0.00000  Uiso   1.00
C270   C     0.04235   0.50011   0.25614   0.00000  Uiso   1.00
C271   C     0.18410   0.35731   0.28507   0.00000  Uiso   1.00
C272   C     0.14929   0.64271   0.21490   0.00000  Uiso   1.00
C273   C     0.14923   0.35729   0.21493   0.00000  Uiso   1.00
C274   C     0.18404   0.64274   0.28510   0.00000  Uiso   1.00
N275   N     0.16667   0.61907   0.25000   0.00000  Uiso   1.00
N276   N     0.16667   0.38093   0.25000   0.00000  Uiso   1.00
N277   N     0.24154   0.49050   0.38583   0.00000  Uiso   1.00
O278   O     0.25361   0.51316   0.35125   0.00000  Uiso   1.00
O279   O     0.26346   0.45667   0.40053   0.00000  Uiso   1.00
N280   N     0.09180   0.49042   0.11415   0.00000  Uiso   1.00
O281   O     0.07972   0.51304   0.14876   0.00000  Uiso   1.00
O282   O     0.06989   0.45659   0.09939   0.00000  Uiso   1.00
N283   N     0.09267   0.50254   0.37793   0.00000  Uiso   1.00
O284   O     0.07623   0.46331   0.36978   0.00000  Uiso   1.00
O285   O     0.08033   0.53746   0.35491   0.00000  Uiso   1.00
N286   N     0.24067   0.50244   0.12207   0.00000  Uiso   1.00
O287   O     0.25712   0.46320   0.13012   0.00000  Uiso   1.00
O288   O     0.25302   0.53732   0.14516   0.00000  Uiso   1.00
N289   N     0.05367   0.52311   0.45134   0.00000  Uiso   1.00
O290   O     0.04287   0.56299   0.43715   0.00000  Uiso   1.00
O291   O     0.02769   0.48986   0.44910   0.00000  Uiso   1.00
N292   N     0.27968   0.52305   0.04869   0.00000  Uiso   1.00
O293   O     0.29047   0.56290   0.06296   0.00000  Uiso   1.00
O294   O     0.30566   0.48981   0.05083   0.00000  Uiso   1.00
Cl295  Cl    0.04995   0.54429   0.04718   0.00000  Uiso   1.00
Cl296  Cl    0.28340   0.54431   0.45287   0.00000  Uiso   1.00
Cl297  Cl    0.04356   0.40621   0.27014   0.00000  Uiso   1.00
Cl298  Cl    0.28953   0.59430   0.23119   0.00000  Uiso   1.00
Cl299  Cl    0.28976   0.40622   0.22978   0.00000  Uiso   1.00
Cl300  Cl    0.04382   0.59429   0.26891   0.00000  Uiso   1.00
N301   N     0.20316   0.38083   0.32184   0.00000  Uiso   1.00
O302   O     0.23999   0.39678   0.31812   0.00000  Uiso   1.00
O303   O     0.18662   0.38004   0.36105   0.00000  Uiso   1.00
N304   N     0.13022   0.61924   0.17813   0.00000  Uiso   1.00
O305   O     0.09214   0.60692   0.18052   0.00000  Uiso   1.00
O306   O     0.14781   0.61844   0.13950   0.00000  Uiso   1.00
N307   N     0.13020   0.38078   0.17814   0.00000  Uiso   1.00
O308   O     0.09337   0.39673   0.18183   0.00000  Uiso   1.00
O309   O     0.14678   0.37998   0.13895   0.00000  Uiso   1.00
N310   N     0.20309   0.61928   0.32188   0.00000  Uiso   1.00
O311   O     0.24118   0.60702   0.31955   0.00000  Uiso   1.00
O312   O     0.18545   0.61849   0.36049   0.00000  Uiso   1.00
O313   O     0.43892   0.53821   0.25000   0.00000  Uiso   1.00
O314   O     0.56108   0.46179   0.25000   0.00000  Uiso   1.00
O315   O     0.56108   0.53821   0.25000   0.00000  Uiso   1.00
O316   O     0.43892   0.46179   0.25000   0.00000  Uiso   1.00
C317   C     0.42006   0.50001   0.25330   0.00000  Uiso   1.00
C318   C     0.57994   0.50001   0.24671   0.00000  Uiso   1.00
O319   O     0.49999   0.53823   0.18393   0.00000  Uiso   1.00
O320   O     0.50001   0.46177   0.31607   0.00000  Uiso   1.00
O321   O     0.50001   0.53823   0.31608   0.00000  Uiso   1.00
O322   O     0.49999   0.46177   0.18392   0.00000  Uiso   1.00
C323   C     0.49944   0.50005   0.16361   0.00000  Uiso   1.00
C324   C     0.50056   0.50006   0.33639   0.00000  Uiso   1.00
Zn325  Zn    0.50000   0.55104   0.25000   0.00000  Uiso   1.00
Zn326  Zn    0.50000   0.44896   0.25000   0.00000  Uiso   1.00
C327   C     0.53776   0.50254   0.40790   0.00000  Uiso   1.00
C328   C     0.46225   0.50249   0.09210   0.00000  Uiso   1.00
C329   C     0.50044   0.50112   0.38415   0.00000  Uiso   1.00
C330   C     0.49956   0.50108   0.11585   0.00000  Uiso   1.00
C331   C     0.46289   0.50538   0.40495   0.00000  Uiso   1.00
C332   C     0.53712   0.50531   0.09506   0.00000  Uiso   1.00
C333   C     0.46213   0.51029   0.45178   0.00000  Uiso   1.00
C334   C     0.53788   0.51025   0.04823   0.00000  Uiso   1.00
C335   C     0.49993   0.51057   0.47646   0.00000  Uiso   1.00
C336   C     0.50008   0.51055   0.02355   0.00000  Uiso   1.00
C337   C     0.53765   0.51049   0.45416   0.00000  Uiso   1.00
C338   C     0.46236   0.51047   0.04584   0.00000  Uiso   1.00
C339   C     0.42531   0.51714   0.47473   0.00000  Uiso   1.00
C340   C     0.57470   0.51710   0.02529   0.00000  Uiso   1.00
C341   C     0.42603   0.51987   0.02134   0.00000  Uiso   1.00
C342   C     0.57399   0.51987   0.47869   0.00000  Uiso   1.00
C343   C     0.35413   0.45877   0.25494   0.00000  Uiso   1.00
C344   C     0.64582   0.54151   0.24531   0.00000  Uiso   1.00
C345   C     0.64586   0.45877   0.24503   0.00000  Uiso   1.00
C346   C     0.35418   0.54151   0.25474   0.00000  Uiso   1.00
C347   C     0.62432   0.50011   0.24387   0.00000  Uiso   1.00
C348   C     0.37568   0.50011   0.25614   0.00000  Uiso   1.00
C349   C     0.51744   0.35731   0.28507   0.00000  Uiso   1.00
C350   C     0.48262   0.64271   0.21490   0.00000  Uiso   1.00
C351   C     0.48257   0.35729   0.21493   0.00000  Uiso   1.00
C352   C     0.51738   0.64274   0.28510   0.00000  Uiso   1.00
N353   N     0.50000   0.61907   0.25000   0.00000  Uiso   1.00
N354   N     0.50000   0.38093   0.25000   0.00000  Uiso   1.00
N355   N     0.57488   0.49050   0.38583   0.00000  Uiso   1.00
O356   O     0.58695   0.51316   0.35125   0.00000  Uiso   1.00
O357   O     0.59679   0.45667   0.40053   0.00000  Uiso   1.00
N358   N     0.42513   0.49042   0.11415   0.00000  Uiso   1.00
O359   O     0.41305   0.51304   0.14876   0.00000  Uiso   1.00
O360   O     0.40323   0.45659   0.09939   0.00000  Uiso   1.00
N361   N     0.42600   0.50254   0.37793   0.00000  Uiso   1.00
O362   O     0.40957   0.46331   0.36978   0.00000  Uiso   1.00
O363   O     0.41366   0.53746   0.35491   0.00000  Uiso   1.00
N364   N     0.57401   0.50244   0.12207   0.00000  Uiso   1.00
O365   O     0.59045   0.46320   0.13012   0.00000  Uiso   1.00
O366   O     0.58635   0.53732   0.14516   0.00000  Uiso   1.00
N367   N     0.38700   0.52311   0.45134   0.00000  Uiso   1.00
O368   O     0.37621   0.56299   0.43715   0.00000  Uiso   1.00
O369   O     0.36103   0.48986   0.44910   0.00000  Uiso   1.00
N370   N     0.61302   0.52305   0.04869   0.00000  Uiso   1.00
O371   O     0.62381   0.56290   0.06296   0.00000  Uiso   1.00
O372   O     0.63900   0.48981   0.05083   0.00000  Uiso   1.00
Cl373  Cl    0.38329   0.54429   0.04718   0.00000  Uiso   1.00
Cl374  Cl    0.61673   0.54431   0.45287   0.00000  Uiso   1.00
Cl375  Cl    0.37689   0.40621   0.27014   0.00000  Uiso   1.00
Cl376  Cl    0.62286   0.59430   0.23119   0.00000  Uiso   1.00
Cl377  Cl    0.62309   0.40622   0.22978   0.00000  Uiso   1.00
Cl378  Cl    0.37715   0.59429   0.26891   0.00000  Uiso   1.00
N379   N     0.53650   0.38083   0.32184   0.00000  Uiso   1.00
O380   O     0.57332   0.39678   0.31812   0.00000  Uiso   1.00
O381   O     0.51995   0.38004   0.36105   0.00000  Uiso   1.00
N382   N     0.46355   0.61924   0.17813   0.00000  Uiso   1.00
O383   O     0.42548   0.60692   0.18052   0.00000  Uiso   1.00
O384   O     0.48115   0.61844   0.13950   0.00000  Uiso   1.00
N385   N     0.46353   0.38078   0.17814   0.00000  Uiso   1.00
O386   O     0.42670   0.39673   0.18183   0.00000  Uiso   1.00
O387   O     0.48011   0.37998   0.13895   0.00000  Uiso   1.00
N388   N     0.53642   0.61928   0.32188   0.00000  Uiso   1.00
O389   O     0.57451   0.60702   0.31955   0.00000  Uiso   1.00
O390   O     0.51879   0.61849   0.36049   0.00000  Uiso   1.00
O391   O     0.77226   0.53821   0.25000   0.00000  Uiso   1.00
O392   O     0.89441   0.46179   0.25000   0.00000  Uiso   1.00
O393   O     0.89441   0.53821   0.25000   0.00000  Uiso   1.00
O394   O     0.77226   0.46179   0.25000   0.00000  Uiso   1.00
C395   C     0.75339   0.50001   0.25330   0.00000  Uiso   1.00
C396   C     0.91328   0.50001   0.24671   0.00000  Uiso   1.00
O397   O     0.83333   0.53823   0.18393   0.00000  Uiso   1.00
O398   O     0.83334   0.46177   0.31607   0.00000  Uiso   1.00
O399   O     0.83334   0.53823   0.31608   0.00000  Uiso   1.00
O400   O     0.83333   0.46177   0.18392   0.00000  Uiso   1.00
C401   C     0.83278   0.50005   0.16361   0.00000  Uiso   1.00
C402   C     0.83389   0.50006   0.33639   0.00000  Uiso   1.00
Zn403  Zn    0.83333   0.55104   0.25000   0.00000  Uiso   1.00
Zn404  Zn    0.83333   0.44896   0.25000   0.00000  Uiso   1.00
C405   C     0.87109   0.50254   0.40790   0.00000  Uiso   1.00
C406   C     0.79558   0.50249   0.09210   0.00000  Uiso   1.00
C407   C     0.83378   0.50112   0.38415   0.00000  Uiso   1.00
C408   C     0.83289   0.50108   0.11585   0.00000  Uiso   1.00
C409   C     0.79622   0.50538   0.40495   0.00000  Uiso   1.00
C410   C     0.87046   0.50531   0.09506   0.00000  Uiso   1.00
C411   C     0.79546   0.51029   0.45178   0.00000  Uiso   1.00
C412   C     0.87121   0.51025   0.04823   0.00000  Uiso   1.00
C413   C     0.83326   0.51057   0.47646   0.00000  Uiso   1.00
C414   C     0.83341   0.51055   0.02355   0.00000  Uiso   1.00
C415   C     0.87099   0.51049   0.45416   0.00000  Uiso   1.00
C416   C     0.79569   0.51047   0.04584   0.00000  Uiso   1.00
C417   C     0.75864   0.51714   0.47473   0.00000  Uiso   1.00
C418   C     0.90804   0.51710   0.02529   0.00000  Uiso   1.00
C419   C     0.75936   0.51987   0.02134   0.00000  Uiso   1.00
C420   C     0.90732   0.51987   0.47869   0.00000  Uiso   1.00
C421   C     0.68747   0.45877   0.25494   0.00000  Uiso   1.00
C422   C     0.97915   0.54151   0.24531   0.00000  Uiso   1.00
C423   C     0.97920   0.45877   0.24503   0.00000  Uiso   1.00
C424   C     0.68752   0.54151   0.25474   0.00000  Uiso   1.00
C425   C     0.95765   0.50011   0.24387   0.00000  Uiso   1.00
C426   C     0.70902   0.50011   0.25614   0.00000  Uiso   1.00
C427   C     0.85077   0.35731   0.28507   0.00000  Uiso   1.00
C428   C     0.81595   0.64271   0.21490   0.00000  Uiso   1.00
C429   C     0.81590   0.35729   0.21493   0.00000  Uiso   1.00
C430   C     0.85071   0.64274   0.28510   0.00000  Uiso   1.00
N431   N     0.83333   0.61907   0.25000   0.00000  Uiso   1.00
N432   N     0.83333   0.38093   0.25000   0.00000  Uiso   1.00
N433   N     0.90821   0.49050   0.38583   0.00000  Uiso   1.00
O434   O     0.92028   0.51316   0.35125   0.00000  Uiso   1.00
O435   O     0.93012   0.45667   0.40053   0.00000  Uiso   1.00
N436   N     0.75846   0.49042   0.11415   0.00000  Uiso   1.00
O437   O     0.74639   0.51304   0.14876   0.00000  Uiso   1.00
O438   O     0.73656   0.45659   0.09939   0.00000  Uiso   1.00
N439   N     0.75933   0.50254   0.37793   0.00000  Uiso   1.00
O440   O     0.74290   0.46331   0.36978   0.00000  Uiso   1.00
O441   O     0.74699   0.53746   0.35491   0.00000  Uiso   1.00
N442   N     0.90734   0.50244   0.12207   0.00000  Uiso   1.00
O443   O     0.92378   0.46320   0.13012   0.00000  Uiso   1.00
O444   O     0.91969   0.53732   0.14516   0.00000  Uiso   1.00
N445   N     0.72033   0.52311   0.45134   0.00000  Uiso   1.00
O446   O     0.70954   0.56299   0.43715   0.00000  Uiso   1.00
O447   O     0.69436   0.48986   0.44910   0.00000  Uiso   1.00
N448   N     0.94635   0.52305   0.04869   0.00000  Uiso   1.00
O449   O     0.95714   0.56290   0.06296   0.00000  Uiso   1.00
O450   O     0.97233   0.48981   0.05083   0.00000  Uiso   1.00
Cl451  Cl    0.71662   0.54429   0.04718   0.00000  Uiso   1.00
Cl452  Cl    0.95006   0.54431   0.45287   0.00000  Uiso   1.00
Cl453  Cl    0.71023   0.40621   0.27014   0.00000  Uiso   1.00
Cl454  Cl    0.95619   0.59430   0.23119   0.00000  Uiso   1.00
Cl455  Cl    0.95643   0.40622   0.22978   0.00000  Uiso   1.00
Cl456  Cl    0.71049   0.59429   0.26891   0.00000  Uiso   1.00
N457   N     0.86983   0.38083   0.32184   0.00000  Uiso   1.00
O458   O     0.90665   0.39678   0.31812   0.00000  Uiso   1.00
O459   O     0.85329   0.38004   0.36105   0.00000  Uiso   1.00
N460   N     0.79688   0.61924   0.17813   0.00000  Uiso   1.00
O461   O     0.75881   0.60692   0.18052   0.00000  Uiso   1.00
O462   O     0.81448   0.61844   0.13950   0.00000  Uiso   1.00
N463   N     0.79687   0.38078   0.17814   0.00000  Uiso   1.00
O464   O     0.76004   0.39673   0.18183   0.00000  Uiso   1.00
O465   O     0.81344   0.37998   0.13895   0.00000  Uiso   1.00
N466   N     0.86976   0.61928   0.32188   0.00000  Uiso   1.00
O467   O     0.90785   0.60702   0.31955   0.00000  Uiso   1.00
O468   O     0.85212   0.61849   0.36049   0.00000  Uiso   1.00
O469   O     0.10559   0.87154   0.25000   0.00000  Uiso   1.00
O470   O     0.22774   0.79513   0.25000   0.00000  Uiso   1.00
O471   O     0.22774   0.87154   0.25000   0.00000  Uiso   1.00
O472   O     0.10559   0.79513   0.25000   0.00000  Uiso   1.00
C473   C     0.08672   0.83335   0.25330   0.00000  Uiso   1.00
C474   C     0.24661   0.83335   0.24671   0.00000  Uiso   1.00
O475   O     0.16666   0.87156   0.18393   0.00000  Uiso   1.00
O476   O     0.16667   0.79511   0.31607   0.00000  Uiso   1.00
O477   O     0.16667   0.87156   0.31608   0.00000  Uiso   1.00
O478   O     0.16666   0.79511   0.18392   0.00000  Uiso   1.00
C479   C     0.16611   0.83338   0.16361   0.00000  Uiso   1.00
C480   C     0.16722   0.83339   0.33639   0.00000  Uiso   1.00
Zn481  Zn    0.16667   0.88437   0.25000   0.00000  Uiso   1.00
Zn482  Zn    0.16667   0.78229   0.25000   0.00000  Uiso   1.00
C483   C     0.20443   0.83587   0.40790   0.00000  Uiso   1.00
C484   C     0.12892   0.83582   0.09210   0.00000  Uiso   1.00
C485   C     0.16711   0.83446   0.38415   0.00000  Uiso   1.00
C486   C     0.16623   0.83441   0.11585   0.00000  Uiso   1.00
C487   C     0.12955   0.83871   0.40495   0.00000  Uiso   1.00
C488   C     0.20379   0.83865   0.09506   0.00000  Uiso   1.00
C489   C     0.12880   0.84362   0.45178   0.00000  Uiso   1.00
C490   C     0.20455   0.84358   0.04823   0.00000  Uiso   1.00
C491   C     0.16660   0.84390   0.47646   0.00000  Uiso   1.00
C492   C     0.16675   0.84388   0.02355   0.00000  Uiso   1.00
C493   C     0.20432   0.84383   0.45416   0.00000  Uiso   1.00
C494   C     0.12902   0.84380   0.04584   0.00000  Uiso   1.00
C495   C     0.09198   0.85048   0.47473   0.00000  Uiso   1.00
C496   C     0.24137   0.85044   0.02529   0.00000  Uiso   1.00
C497   C     0.09269   0.85320   0.02134   0.00000  Uiso   1.00
C498   C     0.24065   0.85320   0.47869   0.00000  Uiso   1.00
C499   C     0.02080   0.79210   0.25494   0.00000  Uiso   1.00
C500   C     0.31249   0.87484   0.24531   0.00000  Uiso   1.00
C501   C     0.31253   0.79211   0.24503   0.00000  Uiso   1.00
C502   C     0.02085   0.87484   0.25474   0.00000  Uiso   1.00
C503   C     0.29098   0.83344   0.24387   0.00000  Uiso   1.00
C504   C     0.04235   0.83344   0.25614   0.00000  Uiso   1.00
C505   C     0.18410   0.69064   0.28507   0.00000  Uiso   1.00
C506   C     0.14929   0.97605   0.21490   0.00000  Uiso   1.00
C507   C     0.14923   0.69062   0.21493   0.00000  Uiso   1.00
C508   C     0.18404   0.97607   0.28510   0.00000  Uiso   1.00
N509   N     0.16667   0.95240   0.25000   0.00000  Uiso   1.00
N510   N     0.16667   0.71427   0.25000   0.00000  Uiso   1.00
N511   N     0.24154   0.82384   0.38583   0.00000  Uiso   1.00
O512   O     0.25361   0.84649   0.35125   0.00000  Uiso   1.00
O513   O     0.26346   0.79000   0.40053   0.00000  Uiso   1.00
N514   N     0.09180   0.82375   0.11415   0.00000  Uiso   1.00
O515   O     0.07972   0.84638   0.14876   0.00000  Uiso   1.00
O516   O     0.06989   0.78992   0.09939   0.00000  Uiso   1.00
N517   N     0.09267   0.83588   0.37793   0.00000  Uiso   1.00
O518   O     0.07623   0.79665   0.36978   0.00000  Uiso   1.00
O519   O     0.08033   0.87080   0.35491   0.00000  Uiso   1.00
N520   N     0.24067   0.83577   0.12207   0.00000  Uiso   1.00
O521   O     0.25712   0.79653   0.13012   0.00000  Uiso   1.00
O522   O     0.25302   0.87066   0.14516   0.00000  Uiso   1.00
N523   N     0.05367   0.85645   0.45134   0.00000  Uiso   1.00
O524   O     0.04287   0.89632   0.43715   0.00000  Uiso   1.00
O525   O     0.02769   0.82320   0.44910   0.00000  Uiso   1.00
N526   N     0.27968   0.85638   0.04869   0.00000  Uiso   1.00
O527   O     0.29047   0.89624   0.06296   0.00000  Uiso   1.00
O528   O     0.30566   0.82314   0.05083   0.00000  Uiso   1.00
Cl529  Cl    0.04995   0.87762   0.04718   0.00000  Uiso   1.00
Cl530  Cl    0.28340   0.87764   0.45287   0.00000  Uiso   1.00
Cl531  Cl    0.04356   0.73954   0.27014   0.00000  Uiso   1.00
Cl532  Cl    0.28953   0.92763   0.23119   0.00000  Uiso   1.00
Cl533  Cl    0.28976   0.73955   0.22978   0.00000  Uiso   1.00
Cl534  Cl    0.04382   0.92762   0.26891   0.00000  Uiso   1.00
N535   N     0.20316   0.71416   0.32184   0.00000  Uiso   1.00
O536   O     0.23999   0.73011   0.31812   0.00000  Uiso   1.00
O537   O     0.18662   0.71337   0.36105   0.00000  Uiso   1.00
N538   N     0.13022   0.95257   0.17813   0.00000  Uiso   1.00
O539   O     0.09214   0.94025   0.18052   0.00000  Uiso   1.00
O540   O     0.14781   0.95178   0.13950   0.00000  Uiso   1.00
N541   N     0.13020   0.71412   0.17814   0.00000  Uiso   1.00
O542   O     0.09337   0.73006   0.18183   0.00000  Uiso   1.00
O543   O     0.14678   0.71332   0.13895   0.00000  Uiso   1.00
N544   N     0.20309   0.95262   0.32188   0.00000  Uiso   1.00
O545   O     0.24118   0.94035   0.31955   0.00000  Uiso   1.00
O546   O     0.18545   0.95182   0.36049   0.00000  Uiso   1.00
O547   O     0.43892   0.87154   0.25000   0.00000  Uiso   1.00
O548   O     0.56108   0.79513   0.25000   0.00000  Uiso   1.00
O549   O     0.56108   0.87154   0.25000   0.00000  Uiso   1.00
O550   O     0.43892   0.79513   0.25000   0.00000  Uiso   1.00
C551   C     0.42006   0.83335   0.25330   0.00000  Uiso   1.00
C552   C     0.57994   0.83335   0.24671   0.00000  Uiso   1.00
O553   O     0.49999   0.87156   0.18393   0.00000  Uiso   1.00
O554   O     0.50001   0.79511   0.31607   0.00000  Uiso   1.00
O555   O     0.50001   0.87156   0.31608   0.00000  Uiso   1.00
O556   O     0.49999   0.79511   0.18392   0.00000  Uiso   1.00
C557   C     0.49944   0.83338   0.16361   0.00000  Uiso   1.00
C558   C     0.50056   0.83339   0.33639   0.00000  Uiso   1.00
Zn559  Zn    0.50000   0.88437   0.25000   0.00000  Uiso   1.00
Zn560  Zn    0.50000   0.78229   0.25000   0.00000  Uiso   1.00
C561   C     0.53776   0.83587   0.40790   0.00000  Uiso   1.00
C562   C     0.46225   0.83582   0.09210   0.00000  Uiso   1.00
C563   C     0.50044   0.83446   0.38415   0.00000  Uiso   1.00
C564   C     0.49956   0.83441   0.11585   0.00000  Uiso   1.00
C565   C     0.46289   0.83871   0.40495   0.00000  Uiso   1.00
C566   C     0.53712   0.83865   0.09506   0.00000  Uiso   1.00
C567   C     0.46213   0.84362   0.45178   0.00000  Uiso   1.00
C568   C     0.53788   0.84358   0.04823   0.00000  Uiso   1.00
C569   C     0.49993   0.84390   0.47646   0.00000  Uiso   1.00
C570   C     0.50008   0.84388   0.02355   0.00000  Uiso   1.00
C571   C     0.53765   0.84383   0.45416   0.00000  Uiso   1.00
C572   C     0.46236   0.84380   0.04584   0.00000  Uiso   1.00
C573   C     0.42531   0.85048   0.47473   0.00000  Uiso   1.00
C574   C     0.57470   0.85044   0.02529   0.00000  Uiso   1.00
C575   C     0.42603   0.85320   0.02134   0.00000  Uiso   1.00
C576   C     0.57399   0.85320   0.47869   0.00000  Uiso   1.00
C577   C     0.35413   0.79210   0.25494   0.00000  Uiso   1.00
C578   C     0.64582   0.87484   0.24531   0.00000  Uiso   1.00
C579   C     0.64586   0.79211   0.24503   0.00000  Uiso   1.00
C580   C     0.35418   0.87484   0.25474   0.00000  Uiso   1.00
C581   C     0.62432   0.83344   0.24387   0.00000  Uiso   1.00
C582   C     0.37568   0.83344   0.25614   0.00000  Uiso   1.00
C583   C     0.51744   0.69064   0.28507   0.00000  Uiso   1.00
C584   C     0.48262   0.97605   0.21490   0.00000  Uiso   1.00
C585   C     0.48257   0.69062   0.21493   0.00000  Uiso   1.00
C586   C     0.51738   0.97607   0.28510   0.00000  Uiso   1.00
N587   N     0.50000   0.95240   0.25000   0.00000  Uiso   1.00
N588   N     0.50000   0.71427   0.25000   0.00000  Uiso   1.00
N589   N     0.57488   0.82384   0.38583   0.00000  Uiso   1.00
O590   O     0.58695   0.84649   0.35125   0.00000  Uiso   1.00
O591   O     0.59679   0.79000   0.40053   0.00000  Uiso   1.00
N592   N     0.42513   0.82375   0.11415   0.00000  Uiso   1.00
O593   O     0.41305   0.84638   0.14876   0.00000  Uiso   1.00
O594   O     0.40323   0.78992   0.09939   0.00000  Uiso   1.00
N595   N     0.42600   0.83588   0.37793   0.00000  Uiso   1.00
O596   O     0.40957   0.79665   0.36978   0.00000  Uiso   1.00
O597   O     0.41366   0.87080   0.35491   0.00000  Uiso   1.00
N598   N     0.57401   0.83577   0.12207   0.00000  Uiso   1.00
O599   O     0.59045   0.79653   0.13012   0.00000  Uiso   1.00
O600   O     0.58635   0.87066   0.14516   0.00000  Uiso   1.00
N601   N     0.38700   0.85645   0.45134   0.00000  Uiso   1.00
O602   O     0.37621   0.89632   0.43715   0.00000  Uiso   1.00
O603   O     0.36103   0.82320   0.44910   0.00000  Uiso   1.00
N604   N     0.61302   0.85638   0.04869   0.00000  Uiso   1.00
O605   O     0.62381   0.89624   0.06296   0.00000  Uiso   1.00
O606   O     0.63900   0.82314   0.05083   0.00000  Uiso   1.00
Cl607  Cl    0.38329   0.87762   0.04718   0.00000  Uiso   1.00
Cl608  Cl    0.61673   0.87764   0.45287   0.00000  Uiso   1.00
Cl609  Cl    0.37689   0.73954   0.27014   0.00000  Uiso   1.00
Cl610  Cl    0.62286   0.92763   0.23119   0.00000  Uiso   1.00
Cl611  Cl    0.62309   0.73955   0.22978   0.00000  Uiso   1.00
Cl612  Cl    0.37715   0.92762   0.26891   0.00000  Uiso   1.00
N613   N     0.53650   0.71416   0.32184   0.00000  Uiso   1.00
O614   O     0.57332   0.73011   0.31812   0.00000  Uiso   1.00
O615   O     0.51995   0.71337   0.36105   0.00000  Uiso   1.00
N616   N     0.46355   0.95257   0.17813   0.00000  Uiso   1.00
O617   O     0.42548   0.94025   0.18052   0.00000  Uiso   1.00
O618   O     0.48115   0.95178   0.13950   0.00000  Uiso   1.00
N619   N     0.46353   0.71412   0.17814   0.00000  Uiso   1.00
O620   O     0.42670   0.73006   0.18183   0.00000  Uiso   1.00
O621   O     0.48011   0.71332   0.13895   0.00000  Uiso   1.00
N622   N     0.53642   0.95262   0.32188   0.00000  Uiso   1.00
O623   O     0.57451   0.94035   0.31955   0.00000  Uiso   1.00
O624   O     0.51879   0.95182   0.36049   0.00000  Uiso   1.00
O625   O     0.77226   0.87154   0.25000   0.00000  Uiso   1.00
O626   O     0.89441   0.79513   0.25000   0.00000  Uiso   1.00
O627   O     0.89441   0.87154   0.25000   0.00000  Uiso   1.00
O628   O     0.77226   0.79513   0.25000   0.00000  Uiso   1.00
C629   C     0.75339   0.83335   0.25330   0.00000  Uiso   1.00
C630   C     0.91328   0.83335   0.24671   0.00000  Uiso   1.00
O631   O     0.83333   0.87156   0.18393   0.00000  Uiso   1.00
O632   O     0.83334   0.79511   0.31607   0.00000  Uiso   1.00
O633   O     0.83334   0.87156   0.31608   0.00000  Uiso   1.00
O634   O     0.83333   0.79511   0.18392   0.00000  Uiso   1.00
C635   C     0.83278   0.83338   0.16361   0.00000  Uiso   1.00
C636   C     0.83389   0.83339   0.33639   0.00000  Uiso   1.00
Zn637  Zn    0.83333   0.88437   0.25000   0.00000  Uiso   1.00
Zn638  Zn    0.83333   0.78229   0.25000   0.00000  Uiso   1.00
C639   C     0.87109   0.83587   0.40790   0.00000  Uiso   1.00
C640   C     0.79558   0.83582   0.09210   0.00000  Uiso   1.00
C641   C     0.83378   0.83446   0.38415   0.00000  Uiso   1.00
C642   C     0.83289   0.83441   0.11585   0.00000  Uiso   1.00
C643   C     0.79622   0.83871   0.40495   0.00000  Uiso   1.00
C644   C     0.87046   0.83865   0.09506   0.00000  Uiso   1.00
C645   C     0.79546   0.84362   0.45178   0.00000  Uiso   1.00
C646   C     0.87121   0.84358   0.04823   0.00000  Uiso   1.00
C647   C     0.83326   0.84390   0.47646   0.00000  Uiso   1.00
C648   C     0.83341   0.84388   0.02355   0.00000  Uiso   1.00
C649   C     0.87099   0.84383   0.45416   0.00000  Uiso   1.00
C650   C     0.79569   0.84380   0.04584   0.00000  Uiso   1.00
C651   C     0.75864   0.85048   0.47473   0.00000  Uiso   1.00
C652   C     0.90804   0.85044   0.02529   0.00000  Uiso   1.00
C653   C     0.75936   0.85320   0.02134   0.00000  Uiso   1.00
C654   C     0.90732   0.85320   0.47869   0.00000  Uiso   1.00
C655   C     0.68747   0.79210   0.25494   0.00000  Uiso   1.00
C656   C     0.97915   0.87484   0.24531   0.00000  Uiso   1.00
C657   C     0.97920   0.79211   0.24503   0.00000  Uiso   1.00
C658   C     0.68752   0.87484   0.25474   0.00000  Uiso   1.00
C659   C     0.95765   0.83344   0.24387   0.00000  Uiso   1.00
C660   C     0.70902   0.83344   0.25614   0.00000  Uiso   1.00
C661   C     0.85077   0.69064   0.28507   0.00000  Uiso   1.00
C662   C     0.81595   0.97605   0.21490   0.00000  Uiso   1.00
C663   C     0.81590   0.69062   0.21493   0.00000  Uiso   1.00
C664   C     0.85071   0.97607   0.28510   0.00000  Uiso   1.00
N665   N     0.83333   0.95240   0.25000   0.00000  Uiso   1.00
N666   N     0.83333   0.71427   0.25000   0.00000  Uiso   1.00
N667   N     0.90821   0.82384   0.38583   0.00000  Uiso   1.00
O668   O     0.92028   0.84649   0.35125   0.00000  Uiso   1.00
O669   O     0.93012   0.79000   0.40053   0.00000  Uiso   1.00
N670   N     0.75846   0.82375   0.11415   0.00000  Uiso   1.00
O671   O     0.74639   0.84638   0.14876   0.00000  Uiso   1.00
O672   O     0.73656   0.78992   0.09939   0.00000  Uiso   1.00
N673   N     0.75933   0.83588   0.37793   0.00000  Uiso   1.00
O674   O     0.74290   0.79665   0.36978   0.00000  Uiso   1.00
O675   O     0.74699   0.87080   0.35491   0.00000  Uiso   1.00
N676   N     0.90734   0.83577   0.12207   0.00000  Uiso   1.00
O677   O     0.92378   0.79653   0.13012   0.00000  Uiso   1.00
O678   O     0.91969   0.87066   0.14516   0.00000  Uiso   1.00
N679   N     0.72033   0.85645   0.45134   0.00000  Uiso   1.00
O680   O     0.70954   0.89632   0.43715   0.00000  Uiso   1.00
O681   O     0.69436   0.82320   0.44910   0.00000  Uiso   1.00
N682   N     0.94635   0.85638   0.04869   0.00000  Uiso   1.00
O683   O     0.95714   0.89624   0.06296   0.00000  Uiso   1.00
O684   O     0.97233   0.82314   0.05083   0.00000  Uiso   1.00
Cl685  Cl    0.71662   0.87762   0.04718   0.00000  Uiso   1.00
Cl686  Cl    0.95006   0.87764   0.45287   0.00000  Uiso   1.00
Cl687  Cl    0.71023   0.73954   0.27014   0.00000  Uiso   1.00
Cl688  Cl    0.95619   0.92763   0.23119   0.00000  Uiso   1.00
Cl689  Cl    0.95643   0.73955   0.22978   0.00000  Uiso   1.00
Cl690  Cl    0.71049   0.92762   0.26891   0.00000  Uiso   1.00
N691   N     0.86983   0.71416   0.32184   0.00000  Uiso   1.00
O692   O     0.90665   0.73011   0.31812   0.00000  Uiso   1.00
O693   O     0.85329   0.71337   0.36105   0.00000  Uiso   1.00
N694   N     0.79688   0.95257   0.17813   0.00000  Uiso   1.00
O695   O     0.75881   0.94025   0.18052   0.00000  Uiso   1.00
O696   O     0.81448   0.95178   0.13950   0.00000  Uiso   1.00
N697   N     0.79687   0.71412   0.17814   0.00000  Uiso   1.00
O698   O     0.76004   0.73006   0.18183   0.00000  Uiso   1.00
O699   O     0.81344   0.71332   0.13895   0.00000  Uiso   1.00
N700   N     0.86976   0.95262   0.32188   0.00000  Uiso   1.00
O701   O     0.90785   0.94035   0.31955   0.00000  Uiso   1.00
O702   O     0.85212   0.95182   0.36049   0.00000  Uiso   1.00
O703   O     0.10559   0.20487   0.75000   0.00000  Uiso   1.00
O704   O     0.22774   0.12846   0.75000   0.00000  Uiso   1.00
O705   O     0.22774   0.20487   0.75000   0.00000  Uiso   1.00
O706   O     0.10559   0.12846   0.75000   0.00000  Uiso   1.00
C707   C     0.08672   0.16668   0.75330   0.00000  Uiso   1.00
C708   C     0.24661   0.16668   0.74671   0.00000  Uiso   1.00
O709   O     0.16666   0.20489   0.68393   0.00000  Uiso   1.00
O710   O     0.16667   0.12844   0.81607   0.00000  Uiso   1.00
O711   O     0.16667   0.20489   0.81608   0.00000  Uiso   1.00
O712   O     0.16666   0.12844   0.68392   0.00000  Uiso   1.00
C713   C     0.16611   0.16671   0.66361   0.00000  Uiso   1.00
C714   C     0.16722   0.16673   0.83639   0.00000  Uiso   1.00
Zn715  Zn    0.16667   0.21771   0.75000   0.00000  Uiso   1.00
Zn716  Zn    0.16667   0.11563   0.75000   0.00000  Uiso   1.00
C717   C     0.20443   0.16921   0.90790   0.00000  Uiso   1.00
C718   C     0.12892   0.16916   0.59210   0.00000  Uiso   1.00
C719   C     0.16711   0.16779   0.88415   0.00000  Uiso   1.00
C720   C     0.16623   0.16774   0.61585   0.00000  Uiso   1.00
C721   C     0.12955   0.17204   0.90495   0.00000  Uiso   1.00
C722   C     0.20379   0.17198   0.59506   0.00000  Uiso   1.00
C723   C     0.12880   0.17696   0.95178   0.00000  Uiso   1.00
C724   C     0.20455   0.17691   0.54823   0.00000  Uiso   1.00
C725   C     0.16660   0.17723   0.97646   0.00000  Uiso   1.00
C726   C     0.16675   0.17721   0.52355   0.00000  Uiso   1.00
C727   C     0.20432   0.17716   0.95416   0.00000  Uiso   1.00
C728   C     0.12902   0.17713   0.54584   0.00000  Uiso   1.00
C729   C     0.09198   0.18381   0.97473   0.00000  Uiso   1.00
C730   C     0.24137   0.18377   0.52529   0.00000  Uiso   1.00
C731   C     0.09269   0.18654   0.52134   0.00000  Uiso   1.00
C732   C     0.24065   0.18654   0.97869   0.00000  Uiso   1.00
C733   C     0.02080   0.12544   0.75494   0.00000  Uiso   1.00
C734   C     0.31249   0.20818   0.74531   0.00000  Uiso   1.00
C735   C     0.31253   0.12544   0.74503   0.00000  Uiso   1.00
C736   C     0.02085   0.20818   0.75474   0.00000  Uiso   1.00
C737   C     0.29098   0.16677   0.74387   0.00000  Uiso   1.00
C738   C     0.04235   0.16677   0.75614   0.00000  Uiso   1.00
C739   C     0.18410   0.02398   0.78507   0.00000  Uiso   1.00
C740   C     0.14929   0.30938   0.71490   0.00000  Uiso   1.00
C741   C     0.14923   0.02396   0.71493   0.00000  Uiso   1.00
C742   C     0.18404   0.30940   0.78510   0.00000  Uiso   1.00
N743   N     0.16667   0.28573   0.75000   0.00000  Uiso   1.00
N744   N     0.16667   0.04760   0.75000   0.00000  Uiso   1.00
N745   N     0.24154   0.15717   0.88583   0.00000  Uiso   1.00
O746   O     0.25361   0.17983   0.85125   0.00000  Uiso   1.00
O747   O     0.26346   0.12334   0.90053   0.00000  Uiso   1.00
N748   N     0.09180   0.15709   0.61415   0.00000  Uiso   1.00
O749   O     0.07972   0.17971   0.64876   0.00000  Uiso   1.00
O750   O     0.06989   0.12326   0.59939   0.00000  Uiso   1.00
N751   N     0.09267   0.16921   0.87793   0.00000  Uiso   1.00
O752   O     0.07623   0.12998   0.86978   0.00000  Uiso   1.00
O753   O     0.08033   0.20413   0.85491   0.00000  Uiso   1.00
N754   N     0.24067   0.16911   0.62207   0.00000  Uiso   1.00
O755   O     0.25712   0.12987   0.63012   0.00000  Uiso   1.00
O756   O     0.25302   0.20399   0.64516   0.00000  Uiso   1.00
N757   N     0.05367   0.18978   0.95134   0.00000  Uiso   1.00
O758   O     0.04287   0.22966   0.93715   0.00000  Uiso   1.00
O759   O     0.02769   0.15653   0.94910   0.00000  Uiso   1.00
N760   N     0.27968   0.18972   0.54869   0.00000  Uiso   1.00
O761   O     0.29047   0.22957   0.56296   0.00000  Uiso   1.00
O762   O     0.30566   0.15647   0.55083   0.00000  Uiso   1.00
Cl763  Cl    0.04995   0.21095   0.54718   0.00000  Uiso   1.00
Cl764  Cl    0.28340   0.21098   0.95287   0.00000  Uiso   1.00
Cl765  Cl    0.04356   0.07288   0.77014   0.00000  Uiso   1.00
Cl766  Cl    0.28953   0.26096   0.73119   0.00000  Uiso   1.00
Cl767  Cl    0.28976   0.07289   0.72978   0.00000  Uiso   1.00
Cl768  Cl    0.04382   0.26096   0.76891   0.00000  Uiso   1.00
N769   N     0.20316   0.04749   0.82184   0.00000  Uiso   1.00
O770   O     0.23999   0.06344   0.81812   0.00000  Uiso   1.00
O771   O     0.18662   0.04670   0.86105   0.00000  Uiso   1.00
N772   N     0.13022   0.28591   0.67813   0.00000  Uiso   1.00
O773   O     0.09214   0.27358   0.68052   0.00000  Uiso   1.00
O774   O     0.14781   0.28511   0.63950   0.00000  Uiso   1.00
N775   N     0.13020   0.04745   0.67814   0.00000  Uiso   1.00
O776   O     0.09337   0.06339   0.68183   0.00000  Uiso   1.00
O777   O     0.14678   0.04665   0.63895   0.00000  Uiso   1.00
N778   N     0.20309   0.28595   0.82188   0.00000  Uiso   1.00
O779   O     0.24118   0.27369   0.81955   0.00000  Uiso   1.00
O780   O     0.18545   0.28515   0.86049   0.00000  Uiso   1.00
O781   O     0.43892   0.20487   0.75000   0.00000  Uiso   1.00
O782   O     0.56108   0.12846   0.75000   0.00000  Uiso   1.00
O783   O     0.56108   0.20487   0.75000   0.00000  Uiso   1.00
O784   O     0.43892   0.12846   0.75000   0.00000  Uiso   1.00
C785   C     0.42006   0.16668   0.75330   0.00000  Uiso   1.00
C786   C     0.57994   0.16668   0.74671   0.00000  Uiso   1.00
O787   O     0.49999   0.20489   0.68393   0.00000  Uiso   1.00
O788   O     0.50001   0.12844   0.81607   0.00000  Uiso   1.00
O789   O     0.50001   0.20489   0.81608   0.00000  Uiso   1.00
O790   O     0.49999   0.12844   0.68392   0.00000  Uiso   1.00
C791   C     0.49944   0.16671   0.66361   0.00000  Uiso   1.00
C792   C     0.50056   0.16673   0.83639   0.00000  Uiso   1.00
Zn793  Zn    0.50000   0.21771   0.75000   0.00000  Uiso   1.00
Zn794  Zn    0.50000   0.11563   0.75000   0.00000  Uiso   1.00
C795   C     0.53776   0.16921   0.90790   0.00000  Uiso   1.00
C796   C     0.46225   0.16916   0.59210   0.00000  Uiso   1.00
C797   C     0.50044   0.16779   0.88415   0.00000  Uiso   1.00
C798   C     0.49956   0.16774   0.61585   0.00000  Uiso   1.00
C799   C     0.46289   0.17204   0.90495   0.00000  Uiso   1.00
C800   C     0.53712   0.17198   0.59506   0.00000  Uiso   1.00
C801   C     0.46213   0.17696   0.95178   0.00000  Uiso   1.00
C802   C     0.53788   0.17691   0.54823   0.00000  Uiso   1.00
C803   C     0.49993   0.17723   0.97646   0.00000  Uiso   1.00
C804   C     0.50008   0.17721   0.52355   0.00000  Uiso   1.00
C805   C     0.53765   0.17716   0.95416   0.00000  Uiso   1.00
C806   C     0.46236   0.17713   0.54584   0.00000  Uiso   1.00
C807   C     0.42531   0.18381   0.97473   0.00000  Uiso   1.00
C808   C     0.57470   0.18377   0.52529   0.00000  Uiso   1.00
C809   C     0.42603   0.18654   0.52134   0.00000  Uiso   1.00
C810   C     0.57399   0.18654   0.97869   0.00000  Uiso   1.00
C811   C     0.35413   0.12544   0.75494   0.00000  Uiso   1.00
C812   C     0.64582   0.20818   0.74531   0.00000  Uiso   1.00
C813   C     0.64586   0.12544   0.74503   0.00000  Uiso   1.00
C814   C     0.35418   0.20818   0.75474   0.00000  Uiso   1.00
C815   C     0.62432   0.16677   0.74387   0.00000  Uiso   1.00
C816   C     0.37568   0.16677   0.75614   0.00000  Uiso   1.00
C817   C     0.51744   0.02398   0.78507   0.00000  Uiso   1.00
C818   C     0.48262   0.30938   0.71490   0.00000  Uiso   1.00
C819   C     0.48257   0.02396   0.71493   0.00000  Uiso   1.00
C820   C     0.51738   0.30940   0.78510   0.00000  Uiso   1.00
N821   N     0.50000   0.28573   0.75000   0.00000  Uiso   1.00
N822   N     0.50000   0.04760   0.75000   0.00000  Uiso   1.00
N823   N     0.57488   0.15717   0.88583   0.00000  Uiso   1.00
O824   O     0.58695   0.17983   0.85125   0.00000  Uiso   1.00
O825   O     0.59679   0.12334   0.90053   0.00000  Uiso   1.00
N826   N     0.42513   0.15709   0.61415   0.00000  Uiso   1.00
O827   O     0.41305   0.17971   0.64876   0.00000  Uiso   1.00
O828   O     0.40323   0.12326   0.59939   0.00000  Uiso   1.00
N829   N     0.42600   0.16921   0.87793   0.00000  Uiso   1.00
O830   O     0.40957   0.12998   0.86978   0.00000  Uiso   1.00
O831   O     0.41366   0.20413   0.85491   0.00000  Uiso   1.00
N832   N     0.57401   0.16911   0.62207   0.00000  Uiso   1.00
O833   O     0.59045   0.12987   0.63012   0.00000  Uiso   1.00
O834   O     0.58635   0.20399   0.64516   0.00000  Uiso   1.00
N835   N     0.38700   0.18978   0.95134   0.00000  Uiso   1.00
O836   O     0.37621   0.22966   0.93715   0.00000  Uiso   1.00
O837   O     0.36103   0.15653   0.94910   0.00000  Uiso   1.00
N838   N     0.61302   0.18972   0.54869   0.00000  Uiso   1.00
O839   O     0.62381   0.22957   0.56296   0.00000  Uiso   1.00
O840   O     0.63900   0.15647   0.55083   0.00000  Uiso   1.00
Cl841  Cl    0.38329   0.21095   0.54718   0.00000  Uiso   1.00
Cl842  Cl    0.61673   0.21098   0.95287   0.00000  Uiso   1.00
Cl843  Cl    0.37689   0.07288   0.77014   0.00000  Uiso   1.00
Cl844  Cl    0.62286   0.26096   0.73119   0.00000  Uiso   1.00
Cl845  Cl    0.62309   0.07289   0.72978   0.00000  Uiso   1.00
Cl846  Cl    0.37715   0.26096   0.76891   0.00000  Uiso   1.00
N847   N     0.53650   0.04749   0.82184   0.00000  Uiso   1.00
O848   O     0.57332   0.06344   0.81812   0.00000  Uiso   1.00
O849   O     0.51995   0.04670   0.86105   0.00000  Uiso   1.00
N850   N     0.46355   0.28591   0.67813   0.00000  Uiso   1.00
O851   O     0.42548   0.27358   0.68052   0.00000  Uiso   1.00
O852   O     0.48115   0.28511   0.63950   0.00000  Uiso   1.00
N853   N     0.46353   0.04745   0.67814   0.00000  Uiso   1.00
O854   O     0.42670   0.06339   0.68183   0.00000  Uiso   1.00
O855   O     0.48011   0.04665   0.63895   0.00000  Uiso   1.00
N856   N     0.53642   0.28595   0.82188   0.00000  Uiso   1.00
O857   O     0.57451   0.27369   0.81955   0.00000  Uiso   1.00
O858   O     0.51879   0.28515   0.86049   0.00000  Uiso   1.00
O859   O     0.77226   0.20487   0.75000   0.00000  Uiso   1.00
O860   O     0.89441   0.12846   0.75000   0.00000  Uiso   1.00
O861   O     0.89441   0.20487   0.75000   0.00000  Uiso   1.00
O862   O     0.77226   0.12846   0.75000   0.00000  Uiso   1.00
C863   C     0.75339   0.16668   0.75330   0.00000  Uiso   1.00
C864   C     0.91328   0.16668   0.74671   0.00000  Uiso   1.00
O865   O     0.83333   0.20489   0.68393   0.00000  Uiso   1.00
O866   O     0.83334   0.12844   0.81607   0.00000  Uiso   1.00
O867   O     0.83334   0.20489   0.81608   0.00000  Uiso   1.00
O868   O     0.83333   0.12844   0.68392   0.00000  Uiso   1.00
C869   C     0.83278   0.16671   0.66361   0.00000  Uiso   1.00
C870   C     0.83389   0.16673   0.83639   0.00000  Uiso   1.00
Zn871  Zn    0.83333   0.21771   0.75000   0.00000  Uiso   1.00
Zn872  Zn    0.83333   0.11563   0.75000   0.00000  Uiso   1.00
C873   C     0.87109   0.16921   0.90790   0.00000  Uiso   1.00
C874   C     0.79558   0.16916   0.59210   0.00000  Uiso   1.00
C875   C     0.83378   0.16779   0.88415   0.00000  Uiso   1.00
C876   C     0.83289   0.16774   0.61585   0.00000  Uiso   1.00
C877   C     0.79622   0.17204   0.90495   0.00000  Uiso   1.00
C878   C     0.87046   0.17198   0.59506   0.00000  Uiso   1.00
C879   C     0.79546   0.17696   0.95178   0.00000  Uiso   1.00
C880   C     0.87121   0.17691   0.54823   0.00000  Uiso   1.00
C881   C     0.83326   0.17723   0.97646   0.00000  Uiso   1.00
C882   C     0.83341   0.17721   0.52355   0.00000  Uiso   1.00
C883   C     0.87099   0.17716   0.95416   0.00000  Uiso   1.00
C884   C     0.79569   0.17713   0.54584   0.00000  Uiso   1.00
C885   C     0.75864   0.18381   0.97473   0.00000  Uiso   1.00
C886   C     0.90804   0.18377   0.52529   0.00000  Uiso   1.00
C887   C     0.75936   0.18654   0.52134   0.00000  Uiso   1.00
C888   C     0.90732   0.18654   0.97869   0.00000  Uiso   1.00
C889   C     0.68747   0.12544   0.75494   0.00000  Uiso   1.00
C890   C     0.97915   0.20818   0.74531   0.00000  Uiso   1.00
C891   C     0.97920   0.12544   0.74503   0.00000  Uiso   1.00
C892   C     0.68752   0.20818   0.75474   0.00000  Uiso   1.00
C893   C     0.95765   0.16677   0.74387   0.00000  Uiso   1.00
C894   C     0.70902   0.16677   0.75614   0.00000  Uiso   1.00
C895   C     0.85077   0.02398   0.78507   0.00000  Uiso   1.00
C896   C     0.81595   0.30938   0.71490   0.00000  Uiso   1.00
C897   C     0.81590   0.02396   0.71493   0.00000  Uiso   1.00
C898   C     0.85071   0.30940   0.78510   0.00000  Uiso   1.00
N899   N     0.83333   0.28573   0.75000   0.00000  Uiso   1.00
N900   N     0.83333   0.04760   0.75000   0.00000  Uiso   1.00
N901   N     0.90821   0.15717   0.88583   0.00000  Uiso   1.00
O902   O     0.92028   0.17983   0.85125   0.00000  Uiso   1.00
O903   O     0.93012   0.12334   0.90053   0.00000  Uiso   1.00
N904   N     0.75846   0.15709   0.61415   0.00000  Uiso   1.00
O905   O     0.74639   0.17971   0.64876   0.00000  Uiso   1.00
O906   O     0.73656   0.12326   0.59939   0.00000  Uiso   1.00
N907   N     0.75933   0.16921   0.87793   0.00000  Uiso   1.00
O908   O     0.74290   0.12998   0.86978   0.00000  Uiso   1.00
O909   O     0.74699   0.20413   0.85491   0.00000  Uiso   1.00
N910   N     0.90734   0.16911   0.62207   0.00000  Uiso   1.00
O911   O     0.92378   0.12987   0.63012   0.00000  Uiso   1.00
O912   O     0.91969   0.20399   0.64516   0.00000  Uiso   1.00
N913   N     0.72033   0.18978   0.95134   0.00000  Uiso   1.00
O914   O     0.70954   0.22966   0.93715   0.00000  Uiso   1.00
O915   O     0.69436   0.15653   0.94910   0.00000  Uiso   1.00
N916   N     0.94635   0.18972   0.54869   0.00000  Uiso   1.00
O917   O     0.95714   0.22957   0.56296   0.00000  Uiso   1.00
O918   O     0.97233   0.15647   0.55083   0.00000  Uiso   1.00
Cl919  Cl    0.71662   0.21095   0.54718   0.00000  Uiso   1.00
Cl920  Cl    0.95006   0.21098   0.95287   0.00000  Uiso   1.00
Cl921  Cl    0.71023   0.07288   0.77014   0.00000  Uiso   1.00
Cl922  Cl    0.95619   0.26096   0.73119   0.00000  Uiso   1.00
Cl923  Cl    0.95643   0.07289   0.72978   0.00000  Uiso   1.00
Cl924  Cl    0.71049   0.26096   0.76891   0.00000  Uiso   1.00
N925   N     0.86983   0.04749   0.82184   0.00000  Uiso   1.00
O926   O     0.90665   0.06344   0.81812   0.00000  Uiso   1.00
O927   O     0.85329   0.04670   0.86105   0.00000  Uiso   1.00
N928   N     0.79688   0.28591   0.67813   0.00000  Uiso   1.00
O929   O     0.75881   0.27358   0.68052   0.00000  Uiso   1.00
O930   O     0.81448   0.28511   0.63950   0.00000  Uiso   1.00
N931   N     0.79687   0.04745   0.67814   0.00000  Uiso   1.00
O932   O     0.76004   0.06339   0.68183   0.00000  Uiso   1.00
O933   O     0.81344   0.04665   0.63895   0.00000  Uiso   1.00
N934   N     0.86976   0.28595   0.82188   0.00000  Uiso   1.00
O935   O     0.90785   0.27369   0.81955   0.00000  Uiso   1.00
O936   O     0.85212   0.28515   0.86049   0.00000  Uiso   1.00
O937   O     0.10559   0.53821   0.75000   0.00000  Uiso   1.00
O938   O     0.22774   0.46179   0.75000   0.00000  Uiso   1.00
O939   O     0.22774   0.53821   0.75000   0.00000  Uiso   1.00
O940   O     0.10559   0.46179   0.75000   0.00000  Uiso   1.00
C941   C     0.08672   0.50001   0.75330   0.00000  Uiso   1.00
C942   C     0.24661   0.50001   0.74671   0.00000  Uiso   1.00
O943   O     0.16666   0.53823   0.68393   0.00000  Uiso   1.00
O944   O     0.16667   0.46177   0.81607   0.00000  Uiso   1.00
O945   O     0.16667   0.53823   0.81608   0.00000  Uiso   1.00
O946   O     0.16666   0.46177   0.68392   0.00000  Uiso   1.00
C947   C     0.16611   0.50005   0.66361   0.00000  Uiso   1.00
C948   C     0.16722   0.50006   0.83639   0.00000  Uiso   1.00
Zn949  Zn    0.16667   0.55104   0.75000   0.00000  Uiso   1.00
Zn950  Zn    0.16667   0.44896   0.75000   0.00000  Uiso   1.00
C951   C     0.20443   0.50254   0.90790   0.00000  Uiso   1.00
C952   C     0.12892   0.50249   0.59210   0.00000  Uiso   1.00
C953   C     0.16711   0.50112   0.88415   0.00000  Uiso   1.00
C954   C     0.16623   0.50108   0.61585   0.00000  Uiso   1.00
C955   C     0.12955   0.50538   0.90495   0.00000  Uiso   1.00
C956   C     0.20379   0.50531   0.59506   0.00000  Uiso   1.00
C957   C     0.12880   0.51029   0.95178   0.00000  Uiso   1.00
C958   C     0.20455   0.51025   0.54823   0.00000  Uiso   1.00
C959   C     0.16660   0.51057   0.97646   0.00000  Uiso   1.00
C960   C     0.16675   0.51055   0.52355   0.00000  Uiso   1.00
C961   C     0.20432   0.51049   0.95416   0.00000  Uiso   1.00
C962   C     0.12902   0.51047   0.54584   0.00000  Uiso   1.00
C963   C     0.09198   0.51714   0.97473   0.00000  Uiso   1.00
C964   C     0.24137   0.51710   0.52529   0.00000  Uiso   1.00
C965   C     0.09269   0.51987   0.52134   0.00000  Uiso   1.00
C966   C     0.24065   0.51987   0.97869   0.00000  Uiso   1.00
C967   C     0.02080   0.45877   0.75494   0.00000  Uiso   1.00
C968   C     0.31249   0.54151   0.74531   0.00000  Uiso   1.00
C969   C     0.31253   0.45877   0.74503   0.00000  Uiso   1.00
C970   C     0.02085   0.54151   0.75474   0.00000  Uiso   1.00
C971   C     0.29098   0.50011   0.74387   0.00000  Uiso   1.00
C972   C     0.04235   0.50011   0.75614   0.00000  Uiso   1.00
C973   C     0.18410   0.35731   0.78507   0.00000  Uiso   1.00
C974   C     0.14929   0.64271   0.71490   0.00000  Uiso   1.00
C975   C     0.14923   0.35729   0.71493   0.00000  Uiso   1.00
C976   C     0.18404   0.64274   0.78510   0.00000  Uiso   1.00
N977   N     0.16667   0.61907   0.75000   0.00000  Uiso   1.00
N978   N     0.16667   0.38093   0.75000   0.00000  Uiso   1.00
N979   N     0.24154   0.49050   0.88583   0.00000  Uiso   1.00
O980   O     0.25361   0.51316   0.85125   0.00000  Uiso   1.00
O981   O     0.26346   0.45667   0.90053   0.00000  Uiso   1.00
N982   N     0.09180   0.49042   0.61415   0.00000  Uiso   1.00
O983   O     0.07972   0.51304   0.64876   0.00000  Uiso   1.00
O984   O     0.06989   0.45659   0.59939   0.00000  Uiso   1.00
N985   N     0.09267   0.50254   0.87793   0.00000  Uiso   1.00
O986   O     0.07623   0.46331   0.86978   0.00000  Uiso   1.00
O987   O     0.08033   0.53746   0.85491   0.00000  Uiso   1.00
N988   N     0.24067   0.50244   0.62207   0.00000  Uiso   1.00
O989   O     0.25712   0.46320   0.63012   0.00000  Uiso   1.00
O990   O     0.25302   0.53732   0.64516   0.00000  Uiso   1.00
N991   N     0.05367   0.52311   0.95134   0.00000  Uiso   1.00
O992   O     0.04287   0.56299   0.93715   0.00000  Uiso   1.00
O993   O     0.02769   0.48986   0.94910   0.00000  Uiso   1.00
N994   N     0.27968   0.52305   0.54869   0.00000  Uiso   1.00
O995   O     0.29047   0.56290   0.56296   0.00000  Uiso   1.00
O996   O     0.30566   0.48981   0.55083   0.00000  Uiso   1.00
Cl997  Cl    0.04995   0.54429   0.54718   0.00000  Uiso   1.00
Cl998  Cl    0.28340   0.54431   0.95287   0.00000  Uiso   1.00
Cl999  Cl    0.04356   0.40621   0.77014   0.00000  Uiso   1.00
Cl1000 Cl    0.28953   0.59430   0.73119   0.00000  Uiso   1.00
Cl1001 Cl    0.28976   0.40622   0.72978   0.00000  Uiso   1.00
Cl1002 Cl    0.04382   0.59429   0.76891   0.00000  Uiso   1.00
N1003  N     0.20316   0.38083   0.82184   0.00000  Uiso   1.00
O1004  O     0.23999   0.39678   0.81812   0.00000  Uiso   1.00
O1005  O     0.18662   0.38004   0.86105   0.00000  Uiso   1.00
N1006  N     0.13022   0.61924   0.67813   0.00000  Uiso   1.00
O1007  O     0.09214   0.60692   0.68052   0.00000  Uiso   1.00
O1008  O     0.14781   0.61844   0.63950   0.00000  Uiso   1.00
N1009  N     0.13020   0.38078   0.67814   0.00000  Uiso   1.00
O1010  O     0.09337   0.39673   0.68183   0.00000  Uiso   1.00
O1011  O     0.14678   0.37998   0.63895   0.00000  Uiso   1.00
N1012  N     0.20309   0.61928   0.82188   0.00000  Uiso   1.00
O1013  O     0.24118   0.60702   0.81955   0.00000  Uiso   1.00
O1014  O     0.18545   0.61849   0.86049   0.00000  Uiso   1.00
O1015  O     0.43892   0.53821   0.75000   0.00000  Uiso   1.00
O1016  O     0.56108   0.46179   0.75000   0.00000  Uiso   1.00
O1017  O     0.56108   0.53821   0.75000   0.00000  Uiso   1.00
O1018  O     0.43892   0.46179   0.75000   0.00000  Uiso   1.00
C1019  C     0.42006   0.50001   0.75330   0.00000  Uiso   1.00
C1020  C     0.57994   0.50001   0.74671   0.00000  Uiso   1.00
O1021  O     0.49999   0.53823   0.68393   0.00000  Uiso   1.00
O1022  O     0.50001   0.46177   0.81607   0.00000  Uiso   1.00
O1023  O     0.50001   0.53823   0.81608   0.00000  Uiso   1.00
O1024  O     0.49999   0.46177   0.68392   0.00000  Uiso   1.00
C1025  C     0.49944   0.50005   0.66361   0.00000  Uiso   1.00
C1026  C     0.50056   0.50006   0.83639   0.00000  Uiso   1.00
Zn1027 Zn    0.50000   0.55104   0.75000   0.00000  Uiso   1.00
Zn1028 Zn    0.50000   0.44896   0.75000   0.00000  Uiso   1.00
C1029  C     0.53776   0.50254   0.90790   0.00000  Uiso   1.00
C1030  C     0.46225   0.50249   0.59210   0.00000  Uiso   1.00
C1031  C     0.50044   0.50112   0.88415   0.00000  Uiso   1.00
C1032  C     0.49956   0.50108   0.61585   0.00000  Uiso   1.00
C1033  C     0.46289   0.50538   0.90495   0.00000  Uiso   1.00
C1034  C     0.53712   0.50531   0.59506   0.00000  Uiso   1.00
C1035  C     0.46213   0.51029   0.95178   0.00000  Uiso   1.00
C1036  C     0.53788   0.51025   0.54823   0.00000  Uiso   1.00
C1037  C     0.49993   0.51057   0.97646   0.00000  Uiso   1.00
C1038  C     0.50008   0.51055   0.52355   0.00000  Uiso   1.00
C1039  C     0.53765   0.51049   0.95416   0.00000  Uiso   1.00
C1040  C     0.46236   0.51047   0.54584   0.00000  Uiso   1.00
C1041  C     0.42531   0.51714   0.97473   0.00000  Uiso   1.00
C1042  C     0.57470   0.51710   0.52529   0.00000  Uiso   1.00
C1043  C     0.42603   0.51987   0.52134   0.00000  Uiso   1.00
C1044  C     0.57399   0.51987   0.97869   0.00000  Uiso   1.00
C1045  C     0.35413   0.45877   0.75494   0.00000  Uiso   1.00
C1046  C     0.64582   0.54151   0.74531   0.00000  Uiso   1.00
C1047  C     0.64586   0.45877   0.74503   0.00000  Uiso   1.00
C1048  C     0.35418   0.54151   0.75474   0.00000  Uiso   1.00
C1049  C     0.62432   0.50011   0.74387   0.00000  Uiso   1.00
C1050  C     0.37568   0.50011   0.75614   0.00000  Uiso   1.00
C1051  C     0.51744   0.35731   0.78507   0.00000  Uiso   1.00
C1052  C     0.48262   0.64271   0.71490   0.00000  Uiso   1.00
C1053  C     0.48257   0.35729   0.71493   0.00000  Uiso   1.00
C1054  C     0.51738   0.64274   0.78510   0.00000  Uiso   1.00
N1055  N     0.50000   0.61907   0.75000   0.00000  Uiso   1.00
N1056  N     0.50000   0.38093   0.75000   0.00000  Uiso   1.00
N1057  N     0.57488   0.49050   0.88583   0.00000  Uiso   1.00
O1058  O     0.58695   0.51316   0.85125   0.00000  Uiso   1.00
O1059  O     0.59679   0.45667   0.90053   0.00000  Uiso   1.00
N1060  N     0.42513   0.49042   0.61415   0.00000  Uiso   1.00
O1061  O     0.41305   0.51304   0.64876   0.00000  Uiso   1.00
O1062  O     0.40323   0.45659   0.59939   0.00000  Uiso   1.00
N1063  N     0.42600   0.50254   0.87793   0.00000  Uiso   1.00
O1064  O     0.40957   0.46331   0.86978   0.00000  Uiso   1.00
O1065  O     0.41366   0.53746   0.85491   0.00000  Uiso   1.00
N1066  N     0.57401   0.50244   0.62207   0.00000  Uiso   1.00
O1067  O     0.59045   0.46320   0.63012   0.00000  Uiso   1.00
O1068  O     0.58635   0.53732   0.64516   0.00000  Uiso   1.00
N1069  N     0.38700   0.52311   0.95134   0.00000  Uiso   1.00
O1070  O     0.37621   0.56299   0.93715   0.00000  Uiso   1.00
O1071  O     0.36103   0.48986   0.94910   0.00000  Uiso   1.00
N1072  N     0.61302   0.52305   0.54869   0.00000  Uiso   1.00
O1073  O     0.62381   0.56290   0.56296   0.00000  Uiso   1.00
O1074  O     0.63900   0.48981   0.55083   0.00000  Uiso   1.00
Cl1075 Cl    0.38329   0.54429   0.54718   0.00000  Uiso   1.00
Cl1076 Cl    0.61673   0.54431   0.95287   0.00000  Uiso   1.00
Cl1077 Cl    0.37689   0.40621   0.77014   0.00000  Uiso   1.00
Cl1078 Cl    0.62286   0.59430   0.73119   0.00000  Uiso   1.00
Cl1079 Cl    0.62309   0.40622   0.72978   0.00000  Uiso   1.00
Cl1080 Cl    0.37715   0.59429   0.76891   0.00000  Uiso   1.00
N1081  N     0.53650   0.38083   0.82184   0.00000  Uiso   1.00
O1082  O     0.57332   0.39678   0.81812   0.00000  Uiso   1.00
O1083  O     0.51995   0.38004   0.86105   0.00000  Uiso   1.00
N1084  N     0.46355   0.61924   0.67813   0.00000  Uiso   1.00
O1085  O     0.42548   0.60692   0.68052   0.00000  Uiso   1.00
O1086  O     0.48115   0.61844   0.63950   0.00000  Uiso   1.00
N1087  N     0.46353   0.38078   0.67814   0.00000  Uiso   1.00
O1088  O     0.42670   0.39673   0.68183   0.00000  Uiso   1.00
O1089  O     0.48011   0.37998   0.63895   0.00000  Uiso   1.00
N1090  N     0.53642   0.61928   0.82188   0.00000  Uiso   1.00
O1091  O     0.57451   0.60702   0.81955   0.00000  Uiso   1.00
O1092  O     0.51879   0.61849   0.86049   0.00000  Uiso   1.00
O1093  O     0.77226   0.53821   0.75000   0.00000  Uiso   1.00
O1094  O     0.89441   0.46179   0.75000   0.00000  Uiso   1.00
O1095  O     0.89441   0.53821   0.75000   0.00000  Uiso   1.00
O1096  O     0.77226   0.46179   0.75000   0.00000  Uiso   1.00
C1097  C     0.75339   0.50001   0.75330   0.00000  Uiso   1.00
C1098  C     0.91328   0.50001   0.74671   0.00000  Uiso   1.00
O1099  O     0.83333   0.53823   0.68393   0.00000  Uiso   1.00
O1100  O     0.83334   0.46177   0.81607   0.00000  Uiso   1.00
O1101  O     0.83334   0.53823   0.81608   0.00000  Uiso   1.00
O1102  O     0.83333   0.46177   0.68392   0.00000  Uiso   1.00
C1103  C     0.83278   0.50005   0.66361   0.00000  Uiso   1.00
C1104  C     0.83389   0.50006   0.83639   0.00000  Uiso   1.00
Zn1105 Zn    0.83333   0.55104   0.75000   0.00000  Uiso   1.00
Zn1106 Zn    0.83333   0.44896   0.75000   0.00000  Uiso   1.00
C1107  C     0.87109   0.50254   0.90790   0.00000  Uiso   1.00
C1108  C     0.79558   0.50249   0.59210   0.00000  Uiso   1.00
C1109  C     0.83378   0.50112   0.88415   0.00000  Uiso   1.00
C1110  C     0.83289   0.50108   0.61585   0.00000  Uiso   1.00
C1111  C     0.79622   0.50538   0.90495   0.00000  Uiso   1.00
C1112  C     0.87046   0.50531   0.59506   0.00000  Uiso   1.00
C1113  C     0.79546   0.51029   0.95178   0.00000  Uiso   1.00
C1114  C     0.87121   0.51025   0.54823   0.00000  Uiso   1.00
C1115  C     0.83326   0.51057   0.97646   0.00000  Uiso   1.00
C1116  C     0.83341   0.51055   0.52355   0.00000  Uiso   1.00
C1117  C     0.87099   0.51049   0.95416   0.00000  Uiso   1.00
C1118  C     0.79569   0.51047   0.54584   0.00000  Uiso   1.00
C1119  C     0.75864   0.51714   0.97473   0.00000  Uiso   1.00
C1120  C     0.90804   0.51710   0.52529   0.00000  Uiso   1.00
C1121  C     0.75936   0.51987   0.52134   0.00000  Uiso   1.00
C1122  C     0.90732   0.51987   0.97869   0.00000  Uiso   1.00
C1123  C     0.68747   0.45877   0.75494   0.00000  Uiso   1.00
C1124  C     0.97915   0.54151   0.74531   0.00000  Uiso   1.00
C1125  C     0.97920   0.45877   0.74503   0.00000  Uiso   1.00
C1126  C     0.68752   0.54151   0.75474   0.00000  Uiso   1.00
C1127  C     0.95765   0.50011   0.74387   0.00000  Uiso   1.00
C1128  C     0.70902   0.50011   0.75614   0.00000  Uiso   1.00
C1129  C     0.85077   0.35731   0.78507   0.00000  Uiso   1.00
C1130  C     0.81595   0.64271   0.71490   0.00000  Uiso   1.00
C1131  C     0.81590   0.35729   0.71493   0.00000  Uiso   1.00
C1132  C     0.85071   0.64274   0.78510   0.00000  Uiso   1.00
N1133  N     0.83333   0.61907   0.75000   0.00000  Uiso   1.00
N1134  N     0.83333   0.38093   0.75000   0.00000  Uiso   1.00
N1135  N     0.90821   0.49050   0.88583   0.00000  Uiso   1.00
O1136  O     0.92028   0.51316   0.85125   0.00000  Uiso   1.00
O1137  O     0.93012   0.45667   0.90053   0.00000  Uiso   1.00
N1138  N     0.75846   0.49042   0.61415   0.00000  Uiso   1.00
O1139  O     0.74639   0.51304   0.64876   0.00000  Uiso   1.00
O1140  O     0.73656   0.45659   0.59939   0.00000  Uiso   1.00
N1141  N     0.75933   0.50254   0.87793   0.00000  Uiso   1.00
O1142  O     0.74290   0.46331   0.86978   0.00000  Uiso   1.00
O1143  O     0.74699   0.53746   0.85491   0.00000  Uiso   1.00
N1144  N     0.90734   0.50244   0.62207   0.00000  Uiso   1.00
O1145  O     0.92378   0.46320   0.63012   0.00000  Uiso   1.00
O1146  O     0.91969   0.53732   0.64516   0.00000  Uiso   1.00
N1147  N     0.72033   0.52311   0.95134   0.00000  Uiso   1.00
O1148  O     0.70954   0.56299   0.93715   0.00000  Uiso   1.00
O1149  O     0.69436   0.48986   0.94910   0.00000  Uiso   1.00
N1150  N     0.94635   0.52305   0.54869   0.00000  Uiso   1.00
O1151  O     0.95714   0.56290   0.56296   0.00000  Uiso   1.00
O1152  O     0.97233   0.48981   0.55083   0.00000  Uiso   1.00
Cl1153 Cl    0.71662   0.54429   0.54718   0.00000  Uiso   1.00
Cl1154 Cl    0.95006   0.54431   0.95287   0.00000  Uiso   1.00
Cl1155 Cl    0.71023   0.40621   0.77014   0.00000  Uiso   1.00
Cl1156 Cl    0.95619   0.59430   0.73119   0.00000  Uiso   1.00
Cl1157 Cl    0.95643   0.40622   0.72978   0.00000  Uiso   1.00
Cl1158 Cl    0.71049   0.59429   0.76891   0.00000  Uiso   1.00
N1159  N     0.86983   0.38083   0.82184   0.00000  Uiso   1.00
O1160  O     0.90665   0.39678   0.81812   0.00000  Uiso   1.00
O1161  O     0.85329   0.38004   0.86105   0.00000  Uiso   1.00
N1162  N     0.79688   0.61924   0.67813   0.00000  Uiso   1.00
O1163  O     0.75881   0.60692   0.68052   0.00000  Uiso   1.00
O1164  O     0.81448   0.61844   0.63950   0.00000  Uiso   1.00
N1165  N     0.79687   0.38078   0.67814   0.00000  Uiso   1.00
O1166  O     0.76004   0.39673   0.68183   0.00000  Uiso   1.00
O1167  O     0.81344   0.37998   0.63895   0.00000  Uiso   1.00
N1168  N     0.86976   0.61928   0.82188   0.00000  Uiso   1.00
O1169  O     0.90785   0.60702   0.81955   0.00000  Uiso   1.00
O1170  O     0.85212   0.61849   0.86049   0.00000  Uiso   1.00
O1171  O     0.10559   0.87154   0.75000   0.00000  Uiso   1.00
O1172  O     0.22774   0.79513   0.75000   0.00000  Uiso   1.00
O1173  O     0.22774   0.87154   0.75000   0.00000  Uiso   1.00
O1174  O     0.10559   0.79513   0.75000   0.00000  Uiso   1.00
C1175  C     0.08672   0.83335   0.75330   0.00000  Uiso   1.00
C1176  C     0.24661   0.83335   0.74671   0.00000  Uiso   1.00
O1177  O     0.16666   0.87156   0.68393   0.00000  Uiso   1.00
O1178  O     0.16667   0.79511   0.81607   0.00000  Uiso   1.00
O1179  O     0.16667   0.87156   0.81608   0.00000  Uiso   1.00
O1180  O     0.16666   0.79511   0.68392   0.00000  Uiso   1.00
C1181  C     0.16611   0.83338   0.66361   0.00000  Uiso   1.00
C1182  C     0.16722   0.83339   0.83639   0.00000  Uiso   1.00
Zn1183 Zn    0.16667   0.88437   0.75000   0.00000  Uiso   1.00
Zn1184 Zn    0.16667   0.78229   0.75000   0.00000  Uiso   1.00
C1185  C     0.20443   0.83587   0.90790   0.00000  Uiso   1.00
C1186  C     0.12892   0.83582   0.59210   0.00000  Uiso   1.00
C1187  C     0.16711   0.83446   0.88415   0.00000  Uiso   1.00
C1188  C     0.16623   0.83441   0.61585   0.00000  Uiso   1.00
C1189  C     0.12955   0.83871   0.90495   0.00000  Uiso   1.00
C1190  C     0.20379   0.83865   0.59506   0.00000  Uiso   1.00
C1191  C     0.12880   0.84362   0.95178   0.00000  Uiso   1.00
C1192  C     0.20455   0.84358   0.54823   0.00000  Uiso   1.00
C1193  C     0.16660   0.84390   0.97646   0.00000  Uiso   1.00
C1194  C     0.16675   0.84388   0.52355   0.00000  Uiso   1.00
C1195  C     0.20432   0.84383   0.95416   0.00000  Uiso   1.00
C1196  C     0.12902   0.84380   0.54584   0.00000  Uiso   1.00
C1197  C     0.09198   0.85048   0.97473   0.00000  Uiso   1.00
C1198  C     0.24137   0.85044   0.52529   0.00000  Uiso   1.00
C1199  C     0.09269   0.85320   0.52134   0.00000  Uiso   1.00
C1200  C     0.24065   0.85320   0.97869   0.00000  Uiso   1.00
C1201  C     0.02080   0.79210   0.75494   0.00000  Uiso   1.00
C1202  C     0.31249   0.87484   0.74531   0.00000  Uiso   1.00
C1203  C     0.31253   0.79211   0.74503   0.00000  Uiso   1.00
C1204  C     0.02085   0.87484   0.75474   0.00000  Uiso   1.00
C1205  C     0.29098   0.83344   0.74387   0.00000  Uiso   1.00
C1206  C     0.04235   0.83344   0.75614   0.00000  Uiso   1.00
C1207  C     0.18410   0.69064   0.78507   0.00000  Uiso   1.00
C1208  C     0.14929   0.97605   0.71490   0.00000  Uiso   1.00
C1209  C     0.14923   0.69062   0.71493   0.00000  Uiso   1.00
C1210  C     0.18404   0.97607   0.78510   0.00000  Uiso   1.00
N1211  N     0.16667   0.95240   0.75000   0.00000  Uiso   1.00
N1212  N     0.16667   0.71427   0.75000   0.00000  Uiso   1.00
N1213  N     0.24154   0.82384   0.88583   0.00000  Uiso   1.00
O1214  O     0.25361   0.84649   0.85125   0.00000  Uiso   1.00
O1215  O     0.26346   0.79000   0.90053   0.00000  Uiso   1.00
N1216  N     0.09180   0.82375   0.61415   0.00000  Uiso   1.00
O1217  O     0.07972   0.84638   0.64876   0.00000  Uiso   1.00
O1218  O     0.06989   0.78992   0.59939   0.00000  Uiso   1.00
N1219  N     0.09267   0.83588   0.87793   0.00000  Uiso   1.00
O1220  O     0.07623   0.79665   0.86978   0.00000  Uiso   1.00
O1221  O     0.08033   0.87080   0.85491   0.00000  Uiso   1.00
N1222  N     0.24067   0.83577   0.62207   0.00000  Uiso   1.00
O1223  O     0.25712   0.79653   0.63012   0.00000  Uiso   1.00
O1224  O     0.25302   0.87066   0.64516   0.00000  Uiso   1.00
N1225  N     0.05367   0.85645   0.95134   0.00000  Uiso   1.00
O1226  O     0.04287   0.89632   0.93715   0.00000  Uiso   1.00
O1227  O     0.02769   0.82320   0.94910   0.00000  Uiso   1.00
N1228  N     0.27968   0.85638   0.54869   0.00000  Uiso   1.00
O1229  O     0.29047   0.89624   0.56296   0.00000  Uiso   1.00
O1230  O     0.30566   0.82314   0.55083   0.00000  Uiso   1.00
Cl1231 Cl    0.04995   0.87762   0.54718   0.00000  Uiso   1.00
Cl1232 Cl    0.28340   0.87764   0.95287   0.00000  Uiso   1.00
Cl1233 Cl    0.04356   0.73954   0.77014   0.00000  Uiso   1.00
Cl1234 Cl    0.28953   0.92763   0.73119   0.00000  Uiso   1.00
Cl1235 Cl    0.28976   0.73955   0.72978   0.00000  Uiso   1.00
Cl1236 Cl    0.04382   0.92762   0.76891   0.00000  Uiso   1.00
N1237  N     0.20316   0.71416   0.82184   0.00000  Uiso   1.00
O1238  O     0.23999   0.73011   0.81812   0.00000  Uiso   1.00
O1239  O     0.18662   0.71337   0.86105   0.00000  Uiso   1.00
N1240  N     0.13022   0.95257   0.67813   0.00000  Uiso   1.00
O1241  O     0.09214   0.94025   0.68052   0.00000  Uiso   1.00
O1242  O     0.14781   0.95178   0.63950   0.00000  Uiso   1.00
N1243  N     0.13020   0.71412   0.67814   0.00000  Uiso   1.00
O1244  O     0.09337   0.73006   0.68183   0.00000  Uiso   1.00
O1245  O     0.14678   0.71332   0.63895   0.00000  Uiso   1.00
N1246  N     0.20309   0.95262   0.82188   0.00000  Uiso   1.00
O1247  O     0.24118   0.94035   0.81955   0.00000  Uiso   1.00
O1248  O     0.18545   0.95182   0.86049   0.00000  Uiso   1.00
O1249  O     0.43892   0.87154   0.75000   0.00000  Uiso   1.00
O1250  O     0.56108   0.79513   0.75000   0.00000  Uiso   1.00
O1251  O     0.56108   0.87154   0.75000   0.00000  Uiso   1.00
O1252  O     0.43892   0.79513   0.75000   0.00000  Uiso   1.00
C1253  C     0.42006   0.83335   0.75330   0.00000  Uiso   1.00
C1254  C     0.57994   0.83335   0.74671   0.00000  Uiso   1.00
O1255  O     0.49999   0.87156   0.68393   0.00000  Uiso   1.00
O1256  O     0.50001   0.79511   0.81607   0.00000  Uiso   1.00
O1257  O     0.50001   0.87156   0.81608   0.00000  Uiso   1.00
O1258  O     0.49999   0.79511   0.68392   0.00000  Uiso   1.00
C1259  C     0.49944   0.83338   0.66361   0.00000  Uiso   1.00
C1260  C     0.50056   0.83339   0.83639   0.00000  Uiso   1.00
Zn1261 Zn    0.50000   0.88437   0.75000   0.00000  Uiso   1.00
Zn1262 Zn    0.50000   0.78229   0.75000   0.00000  Uiso   1.00
C1263  C     0.53776   0.83587   0.90790   0.00000  Uiso   1.00
C1264  C     0.46225   0.83582   0.59210   0.00000  Uiso   1.00
C1265  C     0.50044   0.83446   0.88415   0.00000  Uiso   1.00
C1266  C     0.49956   0.83441   0.61585   0.00000  Uiso   1.00
C1267  C     0.46289   0.83871   0.90495   0.00000  Uiso   1.00
C1268  C     0.53712   0.83865   0.59506   0.00000  Uiso   1.00
C1269  C     0.46213   0.84362   0.95178   0.00000  Uiso   1.00
C1270  C     0.53788   0.84358   0.54823   0.00000  Uiso   1.00
C1271  C     0.49993   0.84390   0.97646   0.00000  Uiso   1.00
C1272  C     0.50008   0.84388   0.52355   0.00000  Uiso   1.00
C1273  C     0.53765   0.84383   0.95416   0.00000  Uiso   1.00
C1274  C     0.46236   0.84380   0.54584   0.00000  Uiso   1.00
C1275  C     0.42531   0.85048   0.97473   0.00000  Uiso   1.00
C1276  C     0.57470   0.85044   0.52529   0.00000  Uiso   1.00
C1277  C     0.42603   0.85320   0.52134   0.00000  Uiso   1.00
C1278  C     0.57399   0.85320   0.97869   0.00000  Uiso   1.00
C1279  C     0.35413   0.79210   0.75494   0.00000  Uiso   1.00
C1280  C     0.64582   0.87484   0.74531   0.00000  Uiso   1.00
C1281  C     0.64586   0.79211   0.74503   0.00000  Uiso   1.00
C1282  C     0.35418   0.87484   0.75474   0.00000  Uiso   1.00
C1283  C     0.62432   0.83344   0.74387   0.00000  Uiso   1.00
C1284  C     0.37568   0.83344   0.75614   0.00000  Uiso   1.00
C1285  C     0.51744   0.69064   0.78507   0.00000  Uiso   1.00
C1286  C     0.48262   0.97605   0.71490   0.00000  Uiso   1.00
C1287  C     0.48257   0.69062   0.71493   0.00000  Uiso   1.00
C1288  C     0.51738   0.97607   0.78510   0.00000  Uiso   1.00
N1289  N     0.50000   0.95240   0.75000   0.00000  Uiso   1.00
N1290  N     0.50000   0.71427   0.75000   0.00000  Uiso   1.00
N1291  N     0.57488   0.82384   0.88583   0.00000  Uiso   1.00
O1292  O     0.58695   0.84649   0.85125   0.00000  Uiso   1.00
O1293  O     0.59679   0.79000   0.90053   0.00000  Uiso   1.00
N1294  N     0.42513   0.82375   0.61415   0.00000  Uiso   1.00
O1295  O     0.41305   0.84638   0.64876   0.00000  Uiso   1.00
O1296  O     0.40323   0.78992   0.59939   0.00000  Uiso   1.00
N1297  N     0.42600   0.83588   0.87793   0.00000  Uiso   1.00
O1298  O     0.40957   0.79665   0.86978   0.00000  Uiso   1.00
O1299  O     0.41366   0.87080   0.85491   0.00000  Uiso   1.00
N1300  N     0.57401   0.83577   0.62207   0.00000  Uiso   1.00
O1301  O     0.59045   0.79653   0.63012   0.00000  Uiso   1.00
O1302  O     0.58635   0.87066   0.64516   0.00000  Uiso   1.00
N1303  N     0.38700   0.85645   0.95134   0.00000  Uiso   1.00
O1304  O     0.37621   0.89632   0.93715   0.00000  Uiso   1.00
O1305  O     0.36103   0.82320   0.94910   0.00000  Uiso   1.00
N1306  N     0.61302   0.85638   0.54869   0.00000  Uiso   1.00
O1307  O     0.62381   0.89624   0.56296   0.00000  Uiso   1.00
O1308  O     0.63900   0.82314   0.55083   0.00000  Uiso   1.00
Cl1309 Cl    0.38329   0.87762   0.54718   0.00000  Uiso   1.00
Cl1310 Cl    0.61673   0.87764   0.95287   0.00000  Uiso   1.00
Cl1311 Cl    0.37689   0.73954   0.77014   0.00000  Uiso   1.00
Cl1312 Cl    0.62286   0.92763   0.73119   0.00000  Uiso   1.00
Cl1313 Cl    0.62309   0.73955   0.72978   0.00000  Uiso   1.00
Cl1314 Cl    0.37715   0.92762   0.76891   0.00000  Uiso   1.00
N1315  N     0.53650   0.71416   0.82184   0.00000  Uiso   1.00
O1316  O     0.57332   0.73011   0.81812   0.00000  Uiso   1.00
O1317  O     0.51995   0.71337   0.86105   0.00000  Uiso   1.00
N1318  N     0.46355   0.95257   0.67813   0.00000  Uiso   1.00
O1319  O     0.42548   0.94025   0.68052   0.00000  Uiso   1.00
O1320  O     0.48115   0.95178   0.63950   0.00000  Uiso   1.00
N1321  N     0.46353   0.71412   0.67814   0.00000  Uiso   1.00
O1322  O     0.42670   0.73006   0.68183   0.00000  Uiso   1.00
O1323  O     0.48011   0.71332   0.63895   0.00000  Uiso   1.00
N1324  N     0.53642   0.95262   0.82188   0.00000  Uiso   1.00
O1325  O     0.57451   0.94035   0.81955   0.00000  Uiso   1.00
O1326  O     0.51879   0.95182   0.86049   0.00000  Uiso   1.00
O1327  O     0.77226   0.87154   0.75000   0.00000  Uiso   1.00
O1328  O     0.89441   0.79513   0.75000   0.00000  Uiso   1.00
O1329  O     0.89441   0.87154   0.75000   0.00000  Uiso   1.00
O1330  O     0.77226   0.79513   0.75000   0.00000  Uiso   1.00
C1331  C     0.75339   0.83335   0.75330   0.00000  Uiso   1.00
C1332  C     0.91328   0.83335   0.74671   0.00000  Uiso   1.00
O1333  O     0.83333   0.87156   0.68393   0.00000  Uiso   1.00
O1334  O     0.83334   0.79511   0.81607   0.00000  Uiso   1.00
O1335  O     0.83334   0.87156   0.81608   0.00000  Uiso   1.00
O1336  O     0.83333   0.79511   0.68392   0.00000  Uiso   1.00
C1337  C     0.83278   0.83338   0.66361   0.00000  Uiso   1.00
C1338  C     0.83389   0.83339   0.83639   0.00000  Uiso   1.00
Zn1339 Zn    0.83333   0.88437   0.75000   0.00000  Uiso   1.00
Zn1340 Zn    0.83333   0.78229   0.75000   0.00000  Uiso   1.00
C1341  C     0.87109   0.83587   0.90790   0.00000  Uiso   1.00
C1342  C     0.79558   0.83582   0.59210   0.00000  Uiso   1.00
C1343  C     0.83378   0.83446   0.88415   0.00000  Uiso   1.00
C1344  C     0.83289   0.83441   0.61585   0.00000  Uiso   1.00
C1345  C     0.79622   0.83871   0.90495   0.00000  Uiso   1.00
C1346  C     0.87046   0.83865   0.59506   0.00000  Uiso   1.00
C1347  C     0.79546   0.84362   0.95178   0.00000  Uiso   1.00
C1348  C     0.87121   0.84358   0.54823   0.00000  Uiso   1.00
C1349  C     0.83326   0.84390   0.97646   0.00000  Uiso   1.00
C1350  C     0.83341   0.84388   0.52355   0.00000  Uiso   1.00
C1351  C     0.87099   0.84383   0.95416   0.00000  Uiso   1.00
C1352  C     0.79569   0.84380   0.54584   0.00000  Uiso   1.00
C1353  C     0.75864   0.85048   0.97473   0.00000  Uiso   1.00
C1354  C     0.90804   0.85044   0.52529   0.00000  Uiso   1.00
C1355  C     0.75936   0.85320   0.52134   0.00000  Uiso   1.00
C1356  C     0.90732   0.85320   0.97869   0.00000  Uiso   1.00
C1357  C     0.68747   0.79210   0.75494   0.00000  Uiso   1.00
C1358  C     0.97915   0.87484   0.74531   0.00000  Uiso   1.00
C1359  C     0.97920   0.79211   0.74503   0.00000  Uiso   1.00
C1360  C     0.68752   0.87484   0.75474   0.00000  Uiso   1.00
C1361  C     0.95765   0.83344   0.74387   0.00000  Uiso   1.00
C1362  C     0.70902   0.83344   0.75614   0.00000  Uiso   1.00
C1363  C     0.85077   0.69064   0.78507   0.00000  Uiso   1.00
C1364  C     0.81595   0.97605   0.71490   0.00000  Uiso   1.00
C1365  C     0.81590   0.69062   0.71493   0.00000  Uiso   1.00
C1366  C     0.85071   0.97607   0.78510   0.00000  Uiso   1.00
N1367  N     0.83333   0.95240   0.75000   0.00000  Uiso   1.00
N1368  N     0.83333   0.71427   0.75000   0.00000  Uiso   1.00
N1369  N     0.90821   0.82384   0.88583   0.00000  Uiso   1.00
O1370  O     0.92028   0.84649   0.85125   0.00000  Uiso   1.00
O1371  O     0.93012   0.79000   0.90053   0.00000  Uiso   1.00
N1372  N     0.75846   0.82375   0.61415   0.00000  Uiso   1.00
O1373  O     0.74639   0.84638   0.64876   0.00000  Uiso   1.00
O1374  O     0.73656   0.78992   0.59939   0.00000  Uiso   1.00
N1375  N     0.75933   0.83588   0.87793   0.00000  Uiso   1.00
O1376  O     0.74290   0.79665   0.86978   0.00000  Uiso   1.00
O1377  O     0.74699   0.87080   0.85491   0.00000  Uiso   1.00
N1378  N     0.90734   0.83577   0.62207   0.00000  Uiso   1.00
O1379  O     0.92378   0.79653   0.63012   0.00000  Uiso   1.00
O1380  O     0.91969   0.87066   0.64516   0.00000  Uiso   1.00
N1381  N     0.72033   0.85645   0.95134   0.00000  Uiso   1.00
O1382  O     0.70954   0.89632   0.93715   0.00000  Uiso   1.00
O1383  O     0.69436   0.82320   0.94910   0.00000  Uiso   1.00
N1384  N     0.94635   0.85638   0.54869   0.00000  Uiso   1.00
O1385  O     0.95714   0.89624   0.56296   0.00000  Uiso   1.00
O1386  O     0.97233   0.82314   0.55083   0.00000  Uiso   1.00
Cl1387 Cl    0.71662   0.87762   0.54718   0.00000  Uiso   1.00
Cl1388 Cl    0.95006   0.87764   0.95287   0.00000  Uiso   1.00
Cl1389 Cl    0.71023   0.73954   0.77014   0.00000  Uiso   1.00
Cl1390 Cl    0.95619   0.92763   0.73119   0.00000  Uiso   1.00
Cl1391 Cl    0.95643   0.73955   0.72978   0.00000  Uiso   1.00
Cl1392 Cl    0.71049   0.92762   0.76891   0.00000  Uiso   1.00
N1393  N     0.86983   0.71416   0.82184   0.00000  Uiso   1.00
O1394  O     0.90665   0.73011   0.81812   0.00000  Uiso   1.00
O1395  O     0.85329   0.71337   0.86105   0.00000  Uiso   1.00
N1396  N     0.79688   0.95257   0.67813   0.00000  Uiso   1.00
O1397  O     0.75881   0.94025   0.68052   0.00000  Uiso   1.00
O1398  O     0.81448   0.95178   0.63950   0.00000  Uiso   1.00
N1399  N     0.79687   0.71412   0.67814   0.00000  Uiso   1.00
O1400  O     0.76004   0.73006   0.68183   0.00000  Uiso   1.00
O1401  O     0.81344   0.71332   0.63895   0.00000  Uiso   1.00
N1402  N     0.86976   0.95262   0.82188   0.00000  Uiso   1.00
O1403  O     0.90785   0.94035   0.81955   0.00000  Uiso   1.00
O1404  O     0.85212   0.95182   0.86049   0.00000  Uiso   1.00
loop_
_geom_bond_atom_site_label_1
_geom_bond_atom_site_label_2
_geom_bond_distance
_geom_bond_site_symmetry_2
_ccdc_geom_bond_type
O1     C5      1.294   .     A
O1     Zn13    2.030   .     S
O2     C6      1.294   .     A
O2     Zn14    2.030   .     S
O3     C6      1.294   .     A
O3     Zn13    2.030   .     S
O4     C5      1.294   .     A
O4     Zn14    2.030   .     S
C5     C36     1.453   .     S
C6     C35     1.453   .     S
O7     C11     1.283   .     A
O7     Zn13    2.007   .     S
O8     C12     1.286   .     A
O8     Zn14    2.007   .     S
O9     Zn13    2.007   .     S
O9     C12     1.283   .     A
O10    Zn14    2.007   .     S
O10    C11     1.286   .     A
C11    C18     1.425   .     S
C12    C17     1.425   .     S
Zn13   N41     2.016   .     S
Zn14   N42     2.016   .     S
C15    C25     1.400   .     A
C15    C17     1.394   .     A
C15    N43     1.439   .     S
C16    C26     1.400   .     A
C16    N46     1.439   .     S
C16    C18     1.394   .     A
C17    C19     1.394   .     A
C18    C20     1.394   .     A
C19    C21     1.405   .     A
C19    N49     1.434   .     S
C20    C22     1.405   .     A
C20    N52     1.434   .     S
C21    C27     1.413   .     A
C21    C23     1.421   .     A
C22    C28     1.413   .     A
C22    C24     1.421   .     A
C23    C25     1.415   .     A
C23    C726    1.404   .     S
C24    C26     1.415   .     A
C24    C725    1.404   1_554 S
C25    C30     1.405   .     A
C26    C29     1.405   .     A
C27    N55     1.427   .     S
C27    C731    1.392   .     S
C28    N58     1.427   .     S
C28    C732    1.392   1_554 S
C29    Cl61    1.766   .     S
C29    C729    1.392   1_554 S
C30    Cl62    1.767   .     S
C30    C730    1.392   .     S
C31    Cl63    1.780   .     S
C31    C36     1.413   .     A
C31    C189    1.383   1_455 S
C32    C35     1.414   .     A
C32    Cl64    1.781   .     S
C32    C112    1.383   .     S
C33    Cl65    1.780   .     S
C33    C35     1.413   .     A
C33    C109    1.383   .     S
C34    Cl66    1.781   .     S
C34    C36     1.414   .     A
C34    C188    1.383   1_455 S
C37    N42     1.370   .     A
C37    N67     1.428   .     S
C37    C508    1.420   1_545 S
C38    N70     1.428   .     S
C38    N41     1.371   .     A
C38    C273    1.420   .     S
C39    N42     1.370   .     A
C39    N73     1.428   .     S
C39    C506    1.420   1_545 S
C40    N76     1.428   .     S
C40    N41     1.371   .     A
C40    C271    1.420   .     S
N43    O44     1.300   .     A
N43    O45     1.301   .     A
N46    O48     1.301   .     A
N46    O47     1.300   .     A
N49    O51     1.300   .     A
N49    O50     1.301   .     A
N52    O54     1.300   .     A
N52    O53     1.301   .     A
N55    O56     1.301   .     A
N55    O57     1.301   .     A
N58    O60     1.301   .     A
N58    O59     1.301   .     A
N67    O68     1.299   .     A
N67    O69     1.301   .     A
N70    O71     1.299   .     A
N70    O72     1.301   .     A
N73    O74     1.299   .     A
N73    O75     1.301   .     A
N76    O78     1.301   .     A
N76    O77     1.299   .     A
O79    C83     1.294   .     A
O79    Zn91    2.030   .     S
O80    C84     1.294   .     A
O80    Zn92    2.030   .     S
O81    C84     1.294   .     A
O81    Zn91    2.030   .     S
O82    C83     1.294   .     A
O82    Zn92    2.030   .     S
C83    C114    1.453   .     S
C84    C113    1.453   .     S
O85    C89     1.283   .     A
O85    Zn91    2.007   .     S
O86    C90     1.286   .     A
O86    Zn92    2.007   .     S
O87    Zn91    2.007   .     S
O87    C90     1.283   .     A
O88    Zn92    2.007   .     S
O88    C89     1.286   .     A
C89    C96     1.425   .     S
C90    C95     1.425   .     S
Zn91   N119    2.016   .     S
Zn92   N120    2.016   .     S
C93    C103    1.400   .     A
C93    C95     1.394   .     A
C93    N121    1.439   .     S
C94    C104    1.400   .     A
C94    N124    1.439   .     S
C94    C96     1.394   .     A
C95    C97     1.394   .     A
C96    C98     1.394   .     A
C97    C99     1.405   .     A
C97    N127    1.434   .     S
C98    C100    1.405   .     A
C98    N130    1.434   .     S
C99    C105    1.413   .     A
C99    C101    1.421   .     A
C100   C106    1.413   .     A
C100   C102    1.421   .     A
C101   C103    1.415   .     A
C101   C804    1.404   .     S
C102   C104    1.415   .     A
C102   C803    1.404   1_554 S
C103   C108    1.405   .     A
C104   C107    1.405   .     A
C105   N133    1.427   .     S
C105   C809    1.392   .     S
C106   N136    1.427   .     S
C106   C810    1.392   1_554 S
C107   Cl139   1.766   .     S
C107   C807    1.392   1_554 S
C108   Cl140   1.767   .     S
C108   C808    1.392   .     S
C109   Cl141   1.780   .     S
C109   C114    1.413   .     A
C110   C113    1.414   .     A
C110   Cl142   1.781   .     S
C110   C190    1.383   .     S
C111   Cl143   1.780   .     S
C111   C113    1.413   .     A
C111   C187    1.383   .     S
C112   Cl144   1.781   .     S
C112   C114    1.414   .     A
C115   N120    1.370   .     A
C115   N145    1.428   .     S
C115   C586    1.420   1_545 S
C116   N148    1.428   .     S
C116   N119    1.371   .     A
C116   C351    1.420   .     S
C117   N120    1.370   .     A
C117   N151    1.428   .     S
C117   C584    1.420   1_545 S
C118   N154    1.428   .     S
C118   N119    1.371   .     A
C118   C349    1.420   .     S
N121   O122    1.300   .     A
N121   O123    1.301   .     A
N124   O126    1.301   .     A
N124   O125    1.300   .     A
N127   O129    1.300   .     A
N127   O128    1.301   .     A
N130   O132    1.300   .     A
N130   O131    1.301   .     A
N133   O134    1.301   .     A
N133   O135    1.301   .     A
N136   O138    1.301   .     A
N136   O137    1.301   .     A
N145   O146    1.299   .     A
N145   O147    1.301   .     A
N148   O149    1.299   .     A
N148   O150    1.301   .     A
N151   O152    1.299   .     A
N151   O153    1.301   .     A
N154   O156    1.301   .     A
N154   O155    1.299   .     A
O157   C161    1.294   .     A
O157   Zn169   2.030   .     S
O158   C162    1.294   .     A
O158   Zn170   2.030   .     S
O159   C162    1.294   .     A
O159   Zn169   2.030   .     S
O160   C161    1.294   .     A
O160   Zn170   2.030   .     S
C161   C192    1.453   .     S
C162   C191    1.453   .     S
O163   C167    1.283   .     A
O163   Zn169   2.007   .     S
O164   C168    1.286   .     A
O164   Zn170   2.007   .     S
O165   Zn169   2.007   .     S
O165   C168    1.283   .     A
O166   Zn170   2.007   .     S
O166   C167    1.286   .     A
C167   C174    1.425   .     S
C168   C173    1.425   .     S
Zn169  N197    2.016   .     S
Zn170  N198    2.016   .     S
C171   C181    1.400   .     A
C171   C173    1.394   .     A
C171   N199    1.439   .     S
C172   C182    1.400   .     A
C172   N202    1.439   .     S
C172   C174    1.394   .     A
C173   C175    1.394   .     A
C174   C176    1.394   .     A
C175   C177    1.405   .     A
C175   N205    1.434   .     S
C176   C178    1.405   .     A
C176   N208    1.434   .     S
C177   C183    1.413   .     A
C177   C179    1.421   .     A
C178   C184    1.413   .     A
C178   C180    1.421   .     A
C179   C181    1.415   .     A
C179   C882    1.404   .     S
C180   C182    1.415   .     A
C180   C881    1.404   1_554 S
C181   C186    1.405   .     A
C182   C185    1.405   .     A
C183   N211    1.427   .     S
C183   C887    1.392   .     S
C184   N214    1.427   .     S
C184   C888    1.392   1_554 S
C185   Cl217   1.766   .     S
C185   C885    1.392   1_554 S
C186   Cl218   1.767   .     S
C186   C886    1.392   .     S
C187   Cl219   1.780   .     S
C187   C192    1.413   .     A
C188   C191    1.414   .     A
C188   Cl220   1.781   .     S
C188   C34     1.383   1_655 S
C189   Cl221   1.780   .     S
C189   C191    1.413   .     A
C189   C31     1.383   1_655 S
C190   Cl222   1.781   .     S
C190   C192    1.414   .     A
C193   N198    1.370   .     A
C193   N223    1.428   .     S
C193   C664    1.420   1_545 S
C194   N226    1.428   .     S
C194   N197    1.371   .     A
C194   C429    1.420   .     S
C195   N198    1.370   .     A
C195   N229    1.428   .     S
C195   C662    1.420   1_545 S
C196   N232    1.428   .     S
C196   N197    1.371   .     A
C196   C427    1.420   .     S
N199   O200    1.300   .     A
N199   O201    1.301   .     A
N202   O204    1.301   .     A
N202   O203    1.300   .     A
N205   O207    1.300   .     A
N205   O206    1.301   .     A
N208   O210    1.300   .     A
N208   O209    1.301   .     A
N211   O212    1.301   .     A
N211   O213    1.301   .     A
N214   O216    1.301   .     A
N214   O215    1.301   .     A
N223   O224    1.299   .     A
N223   O225    1.301   .     A
N226   O227    1.299   .     A
N226   O228    1.301   .     A
N229   O230    1.299   .     A
N229   O231    1.301   .     A
N232   O234    1.301   .     A
N232   O233    1.299   .     A
O235   C239    1.294   .     A
O235   Zn247   2.030   .     S
O236   C240    1.294   .     A
O236   Zn248   2.030   .     S
O237   C240    1.294   .     A
O237   Zn247   2.030   .     S
O238   C239    1.294   .     A
O238   Zn248   2.030   .     S
C239   C270    1.453   .     S
C240   C269    1.453   .     S
O241   C245    1.283   .     A
O241   Zn247   2.007   .     S
O242   C246    1.286   .     A
O242   Zn248   2.007   .     S
O243   Zn247   2.007   .     S
O243   C246    1.283   .     A
O244   Zn248   2.007   .     S
O244   C245    1.286   .     A
C245   C252    1.425   .     S
C246   C251    1.425   .     S
Zn247  N275    2.016   .     S
Zn248  N276    2.016   .     S
C249   C259    1.400   .     A
C249   C251    1.394   .     A
C249   N277    1.439   .     S
C250   C260    1.400   .     A
C250   N280    1.439   .     S
C250   C252    1.394   .     A
C251   C253    1.394   .     A
C252   C254    1.394   .     A
C253   C255    1.405   .     A
C253   N283    1.434   .     S
C254   C256    1.405   .     A
C254   N286    1.434   .     S
C255   C261    1.413   .     A
C255   C257    1.421   .     A
C256   C262    1.413   .     A
C256   C258    1.421   .     A
C257   C259    1.415   .     A
C257   C960    1.404   .     S
C258   C260    1.415   .     A
C258   C959    1.404   1_554 S
C259   C264    1.405   .     A
C260   C263    1.405   .     A
C261   N289    1.427   .     S
C261   C965    1.392   .     S
C262   N292    1.427   .     S
C262   C966    1.392   1_554 S
C263   Cl295   1.766   .     S
C263   C963    1.392   1_554 S
C264   Cl296   1.767   .     S
C264   C964    1.392   .     S
C265   Cl297   1.780   .     S
C265   C270    1.413   .     A
C265   C423    1.383   1_455 S
C266   C269    1.414   .     A
C266   Cl298   1.781   .     S
C266   C346    1.383   .     S
C267   Cl299   1.780   .     S
C267   C269    1.413   .     A
C267   C343    1.383   .     S
C268   Cl300   1.781   .     S
C268   C270    1.414   .     A
C268   C422    1.383   1_455 S
C271   N276    1.370   .     A
C271   N301    1.428   .     S
C272   N304    1.428   .     S
C272   N275    1.371   .     A
C272   C507    1.420   .     S
C273   N276    1.370   .     A
C273   N307    1.428   .     S
C274   N310    1.428   .     S
C274   N275    1.371   .     A
C274   C505    1.420   .     S
N277   O278    1.300   .     A
N277   O279    1.301   .     A
N280   O282    1.301   .     A
N280   O281    1.300   .     A
N283   O285    1.300   .     A
N283   O284    1.301   .     A
N286   O288    1.300   .     A
N286   O287    1.301   .     A
N289   O290    1.301   .     A
N289   O291    1.301   .     A
N292   O294    1.301   .     A
N292   O293    1.301   .     A
N301   O302    1.299   .     A
N301   O303    1.301   .     A
N304   O305    1.299   .     A
N304   O306    1.301   .     A
N307   O308    1.299   .     A
N307   O309    1.301   .     A
N310   O312    1.301   .     A
N310   O311    1.299   .     A
O313   C317    1.294   .     A
O313   Zn325   2.030   .     S
O314   C318    1.294   .     A
O314   Zn326   2.030   .     S
O315   C318    1.294   .     A
O315   Zn325   2.030   .     S
O316   C317    1.294   .     A
O316   Zn326   2.030   .     S
C317   C348    1.453   .     S
C318   C347    1.453   .     S
O319   C323    1.283   .     A
O319   Zn325   2.007   .     S
O320   C324    1.286   .     A
O320   Zn326   2.007   .     S
O321   Zn325   2.007   .     S
O321   C324    1.283   .     A
O322   Zn326   2.007   .     S
O322   C323    1.286   .     A
C323   C330    1.425   .     S
C324   C329    1.425   .     S
Zn325  N353    2.016   .     S
Zn326  N354    2.016   .     S
C327   C337    1.400   .     A
C327   C329    1.394   .     A
C327   N355    1.439   .     S
C328   C338    1.400   .     A
C328   N358    1.439   .     S
C328   C330    1.394   .     A
C329   C331    1.394   .     A
C330   C332    1.394   .     A
C331   C333    1.405   .     A
C331   N361    1.434   .     S
C332   C334    1.405   .     A
C332   N364    1.434   .     S
C333   C339    1.413   .     A
C333   C335    1.421   .     A
C334   C340    1.413   .     A
C334   C336    1.421   .     A
C335   C337    1.415   .     A
C335   C1038   1.404   .     S
C336   C338    1.415   .     A
C336   C1037   1.404   1_554 S
C337   C342    1.405   .     A
C338   C341    1.405   .     A
C339   N367    1.427   .     S
C339   C1043   1.392   .     S
C340   N370    1.427   .     S
C340   C1044   1.392   1_554 S
C341   Cl373   1.766   .     S
C341   C1041   1.392   1_554 S
C342   Cl374   1.767   .     S
C342   C1042   1.392   .     S
C343   Cl375   1.780   .     S
C343   C348    1.413   .     A
C344   C347    1.414   .     A
C344   Cl376   1.781   .     S
C344   C424    1.383   .     S
C345   Cl377   1.780   .     S
C345   C347    1.413   .     A
C345   C421    1.383   .     S
C346   Cl378   1.781   .     S
C346   C348    1.414   .     A
C349   N354    1.370   .     A
C349   N379    1.428   .     S
C350   N382    1.428   .     S
C350   N353    1.371   .     A
C350   C585    1.420   .     S
C351   N354    1.370   .     A
C351   N385    1.428   .     S
C352   N388    1.428   .     S
C352   N353    1.371   .     A
C352   C583    1.420   .     S
N355   O356    1.300   .     A
N355   O357    1.301   .     A
N358   O360    1.301   .     A
N358   O359    1.300   .     A
N361   O363    1.300   .     A
N361   O362    1.301   .     A
N364   O366    1.300   .     A
N364   O365    1.301   .     A
N367   O368    1.301   .     A
N367   O369    1.301   .     A
N370   O372    1.301   .     A
N370   O371    1.301   .     A
N379   O380    1.299   .     A
N379   O381    1.301   .     A
N382   O383    1.299   .     A
N382   O384    1.301   .     A
N385   O386    1.299   .     A
N385   O387    1.301   .     A
N388   O390    1.301   .     A
N388   O389    1.299   .     A
O391   C395    1.294   .     A
O391   Zn403   2.030   .     S
O392   C396    1.294   .     A
O392   Zn404   2.030   .     S
O393   C396    1.294   .     A
O393   Zn403   2.030   .     S
O394   C395    1.294   .     A
O394   Zn404   2.030   .     S
C395   C426    1.453   .     S
C396   C425    1.453   .     S
O397   C401    1.283   .     A
O397   Zn403   2.007   .     S
O398   C402    1.286   .     A
O398   Zn404   2.007   .     S
O399   Zn403   2.007   .     S
O399   C402    1.283   .     A
O400   Zn404   2.007   .     S
O400   C401    1.286   .     A
C401   C408    1.425   .     S
C402   C407    1.425   .     S
Zn403  N431    2.016   .     S
Zn404  N432    2.016   .     S
C405   C415    1.400   .     A
C405   C407    1.394   .     A
C405   N433    1.439   .     S
C406   C416    1.400   .     A
C406   N436    1.439   .     S
C406   C408    1.394   .     A
C407   C409    1.394   .     A
C408   C410    1.394   .     A
C409   C411    1.405   .     A
C409   N439    1.434   .     S
C410   C412    1.405   .     A
C410   N442    1.434   .     S
C411   C417    1.413   .     A
C411   C413    1.421   .     A
C412   C418    1.413   .     A
C412   C414    1.421   .     A
C413   C415    1.415   .     A
C413   C1116   1.404   .     S
C414   C416    1.415   .     A
C414   C1115   1.404   1_554 S
C415   C420    1.405   .     A
C416   C419    1.405   .     A
C417   N445    1.427   .     S
C417   C1121   1.392   .     S
C418   N448    1.427   .     S
C418   C1122   1.392   1_554 S
C419   Cl451   1.766   .     S
C419   C1119   1.392   1_554 S
C420   Cl452   1.767   .     S
C420   C1120   1.392   .     S
C421   Cl453   1.780   .     S
C421   C426    1.413   .     A
C422   C425    1.414   .     A
C422   Cl454   1.781   .     S
C422   C268    1.383   1_655 S
C423   Cl455   1.780   .     S
C423   C425    1.413   .     A
C423   C265    1.383   1_655 S
C424   Cl456   1.781   .     S
C424   C426    1.414   .     A
C427   N432    1.370   .     A
C427   N457    1.428   .     S
C428   N460    1.428   .     S
C428   N431    1.371   .     A
C428   C663    1.420   .     S
C429   N432    1.370   .     A
C429   N463    1.428   .     S
C430   N466    1.428   .     S
C430   N431    1.371   .     A
C430   C661    1.420   .     S
N433   O434    1.300   .     A
N433   O435    1.301   .     A
N436   O438    1.301   .     A
N436   O437    1.300   .     A
N439   O441    1.300   .     A
N439   O440    1.301   .     A
N442   O444    1.300   .     A
N442   O443    1.301   .     A
N445   O446    1.301   .     A
N445   O447    1.301   .     A
N448   O450    1.301   .     A
N448   O449    1.301   .     A
N457   O458    1.299   .     A
N457   O459    1.301   .     A
N460   O461    1.299   .     A
N460   O462    1.301   .     A
N463   O464    1.299   .     A
N463   O465    1.301   .     A
N466   O468    1.301   .     A
N466   O467    1.299   .     A
O469   C473    1.294   .     A
O469   Zn481   2.030   .     S
O470   C474    1.294   .     A
O470   Zn482   2.030   .     S
O471   C474    1.294   .     A
O471   Zn481   2.030   .     S
O472   C473    1.294   .     A
O472   Zn482   2.030   .     S
C473   C504    1.453   .     S
C474   C503    1.453   .     S
O475   C479    1.283   .     A
O475   Zn481   2.007   .     S
O476   C480    1.286   .     A
O476   Zn482   2.007   .     S
O477   Zn481   2.007   .     S
O477   C480    1.283   .     A
O478   Zn482   2.007   .     S
O478   C479    1.286   .     A
C479   C486    1.425   .     S
C480   C485    1.425   .     S
Zn481  N509    2.016   .     S
Zn482  N510    2.016   .     S
C483   C493    1.400   .     A
C483   C485    1.394   .     A
C483   N511    1.439   .     S
C484   C494    1.400   .     A
C484   N514    1.439   .     S
C484   C486    1.394   .     A
C485   C487    1.394   .     A
C486   C488    1.394   .     A
C487   C489    1.405   .     A
C487   N517    1.434   .     S
C488   C490    1.405   .     A
C488   N520    1.434   .     S
C489   C495    1.413   .     A
C489   C491    1.421   .     A
C490   C496    1.413   .     A
C490   C492    1.421   .     A
C491   C493    1.415   .     A
C491   C1194   1.404   .     S
C492   C494    1.415   .     A
C492   C1193   1.404   1_554 S
C493   C498    1.405   .     A
C494   C497    1.405   .     A
C495   N523    1.427   .     S
C495   C1199   1.392   .     S
C496   N526    1.427   .     S
C496   C1200   1.392   1_554 S
C497   Cl529   1.766   .     S
C497   C1197   1.392   1_554 S
C498   Cl530   1.767   .     S
C498   C1198   1.392   .     S
C499   Cl531   1.780   .     S
C499   C504    1.413   .     A
C499   C657    1.383   1_455 S
C500   C503    1.414   .     A
C500   Cl532   1.781   .     S
C500   C580    1.383   .     S
C501   Cl533   1.780   .     S
C501   C503    1.413   .     A
C501   C577    1.383   .     S
C502   Cl534   1.781   .     S
C502   C504    1.414   .     A
C502   C656    1.383   1_455 S
C505   N510    1.370   .     A
C505   N535    1.428   .     S
C506   N538    1.428   .     S
C506   N509    1.371   .     A
C506   C39     1.420   1_565 S
C507   N510    1.370   .     A
C507   N541    1.428   .     S
C508   N544    1.428   .     S
C508   N509    1.371   .     A
C508   C37     1.420   1_565 S
N511   O512    1.300   .     A
N511   O513    1.301   .     A
N514   O516    1.301   .     A
N514   O515    1.300   .     A
N517   O519    1.300   .     A
N517   O518    1.301   .     A
N520   O522    1.300   .     A
N520   O521    1.301   .     A
N523   O524    1.301   .     A
N523   O525    1.301   .     A
N526   O528    1.301   .     A
N526   O527    1.301   .     A
N535   O536    1.299   .     A
N535   O537    1.301   .     A
N538   O539    1.299   .     A
N538   O540    1.301   .     A
N541   O542    1.299   .     A
N541   O543    1.301   .     A
N544   O546    1.301   .     A
N544   O545    1.299   .     A
O547   C551    1.294   .     A
O547   Zn559   2.030   .     S
O548   C552    1.294   .     A
O548   Zn560   2.030   .     S
O549   C552    1.294   .     A
O549   Zn559   2.030   .     S
O550   C551    1.294   .     A
O550   Zn560   2.030   .     S
C551   C582    1.453   .     S
C552   C581    1.453   .     S
O553   C557    1.283   .     A
O553   Zn559   2.007   .     S
O554   C558    1.286   .     A
O554   Zn560   2.007   .     S
O555   Zn559   2.007   .     S
O555   C558    1.283   .     A
O556   Zn560   2.007   .     S
O556   C557    1.286   .     A
C557   C564    1.425   .     S
C558   C563    1.425   .     S
Zn559  N587    2.016   .     S
Zn560  N588    2.016   .     S
C561   C571    1.400   .     A
C561   C563    1.394   .     A
C561   N589    1.439   .     S
C562   C572    1.400   .     A
C562   N592    1.439   .     S
C562   C564    1.394   .     A
C563   C565    1.394   .     A
C564   C566    1.394   .     A
C565   C567    1.405   .     A
C565   N595    1.434   .     S
C566   C568    1.405   .     A
C566   N598    1.434   .     S
C567   C573    1.413   .     A
C567   C569    1.421   .     A
C568   C574    1.413   .     A
C568   C570    1.421   .     A
C569   C571    1.415   .     A
C569   C1272   1.404   .     S
C570   C572    1.415   .     A
C570   C1271   1.404   1_554 S
C571   C576    1.405   .     A
C572   C575    1.405   .     A
C573   N601    1.427   .     S
C573   C1277   1.392   .     S
C574   N604    1.427   .     S
C574   C1278   1.392   1_554 S
C575   Cl607   1.766   .     S
C575   C1275   1.392   1_554 S
C576   Cl608   1.767   .     S
C576   C1276   1.392   .     S
C577   Cl609   1.780   .     S
C577   C582    1.413   .     A
C578   C581    1.414   .     A
C578   Cl610   1.781   .     S
C578   C658    1.383   .     S
C579   Cl611   1.780   .     S
C579   C581    1.413   .     A
C579   C655    1.383   .     S
C580   Cl612   1.781   .     S
C580   C582    1.414   .     A
C583   N588    1.370   .     A
C583   N613    1.428   .     S
C584   N616    1.428   .     S
C584   N587    1.371   .     A
C584   C117    1.420   1_565 S
C585   N588    1.370   .     A
C585   N619    1.428   .     S
C586   N622    1.428   .     S
C586   N587    1.371   .     A
C586   C115    1.420   1_565 S
N589   O590    1.300   .     A
N589   O591    1.301   .     A
N592   O594    1.301   .     A
N592   O593    1.300   .     A
N595   O597    1.300   .     A
N595   O596    1.301   .     A
N598   O600    1.300   .     A
N598   O599    1.301   .     A
N601   O602    1.301   .     A
N601   O603    1.301   .     A
N604   O606    1.301   .     A
N604   O605    1.301   .     A
N613   O614    1.299   .     A
N613   O615    1.301   .     A
N616   O617    1.299   .     A
N616   O618    1.301   .     A
N619   O620    1.299   .     A
N619   O621    1.301   .     A
N622   O624    1.301   .     A
N622   O623    1.299   .     A
O625   C629    1.294   .     A
O625   Zn637   2.030   .     S
O626   C630    1.294   .     A
O626   Zn638   2.030   .     S
O627   C630    1.294   .     A
O627   Zn637   2.030   .     S
O628   C629    1.294   .     A
O628   Zn638   2.030   .     S
C629   C660    1.453   .     S
C630   C659    1.453   .     S
O631   C635    1.283   .     A
O631   Zn637   2.007   .     S
O632   C636    1.286   .     A
O632   Zn638   2.007   .     S
O633   Zn637   2.007   .     S
O633   C636    1.283   .     A
O634   Zn638   2.007   .     S
O634   C635    1.286   .     A
C635   C642    1.425   .     S
C636   C641    1.425   .     S
Zn637  N665    2.016   .     S
Zn638  N666    2.016   .     S
C639   C649    1.400   .     A
C639   C641    1.394   .     A
C639   N667    1.439   .     S
C640   C650    1.400   .     A
C640   N670    1.439   .     S
C640   C642    1.394   .     A
C641   C643    1.394   .     A
C642   C644    1.394   .     A
C643   C645    1.405   .     A
C643   N673    1.434   .     S
C644   C646    1.405   .     A
C644   N676    1.434   .     S
C645   C651    1.413   .     A
C645   C647    1.421   .     A
C646   C652    1.413   .     A
C646   C648    1.421   .     A
C647   C649    1.415   .     A
C647   C1350   1.404   .     S
C648   C650    1.415   .     A
C648   C1349   1.404   1_554 S
C649   C654    1.405   .     A
C650   C653    1.405   .     A
C651   N679    1.427   .     S
C651   C1355   1.392   .     S
C652   N682    1.427   .     S
C652   C1356   1.392   1_554 S
C653   Cl685   1.766   .     S
C653   C1353   1.392   1_554 S
C654   Cl686   1.767   .     S
C654   C1354   1.392   .     S
C655   Cl687   1.780   .     S
C655   C660    1.413   .     A
C656   C659    1.414   .     A
C656   Cl688   1.781   .     S
C656   C502    1.383   1_655 S
C657   Cl689   1.780   .     S
C657   C659    1.413   .     A
C657   C499    1.383   1_655 S
C658   Cl690   1.781   .     S
C658   C660    1.414   .     A
C661   N666    1.370   .     A
C661   N691    1.428   .     S
C662   N694    1.428   .     S
C662   N665    1.371   .     A
C662   C195    1.420   1_565 S
C663   N666    1.370   .     A
C663   N697    1.428   .     S
C664   N700    1.428   .     S
C664   N665    1.371   .     A
C664   C193    1.420   1_565 S
N667   O668    1.300   .     A
N667   O669    1.301   .     A
N670   O672    1.301   .     A
N670   O671    1.300   .     A
N673   O675    1.300   .     A
N673   O674    1.301   .     A
N676   O678    1.300   .     A
N676   O677    1.301   .     A
N679   O680    1.301   .     A
N679   O681    1.301   .     A
N682   O684    1.301   .     A
N682   O683    1.301   .     A
N691   O692    1.299   .     A
N691   O693    1.301   .     A
N694   O695    1.299   .     A
N694   O696    1.301   .     A
N697   O698    1.299   .     A
N697   O699    1.301   .     A
N700   O702    1.301   .     A
N700   O701    1.299   .     A
O703   C707    1.294   .     A
O703   Zn715   2.030   .     S
O704   C708    1.294   .     A
O704   Zn716   2.030   .     S
O705   C708    1.294   .     A
O705   Zn715   2.030   .     S
O706   C707    1.294   .     A
O706   Zn716   2.030   .     S
C707   C738    1.453   .     S
C708   C737    1.453   .     S
O709   C713    1.283   .     A
O709   Zn715   2.007   .     S
O710   C714    1.286   .     A
O710   Zn716   2.007   .     S
O711   Zn715   2.007   .     S
O711   C714    1.283   .     A
O712   Zn716   2.007   .     S
O712   C713    1.286   .     A
C713   C720    1.425   .     S
C714   C719    1.425   .     S
Zn715  N743    2.016   .     S
Zn716  N744    2.016   .     S
C717   C727    1.400   .     A
C717   C719    1.394   .     A
C717   N745    1.439   .     S
C718   C728    1.400   .     A
C718   N748    1.439   .     S
C718   C720    1.394   .     A
C719   C721    1.394   .     A
C720   C722    1.394   .     A
C721   C723    1.405   .     A
C721   N751    1.434   .     S
C722   C724    1.405   .     A
C722   N754    1.434   .     S
C723   C729    1.413   .     A
C723   C725    1.421   .     A
C724   C730    1.413   .     A
C724   C726    1.421   .     A
C725   C727    1.415   .     A
C725   C24     1.404   1_556 S
C726   C728    1.415   .     A
C727   C732    1.405   .     A
C728   C731    1.405   .     A
C729   N757    1.427   .     S
C729   C29     1.392   1_556 S
C730   N760    1.427   .     S
C731   Cl763   1.766   .     S
C732   Cl764   1.767   .     S
C732   C28     1.392   1_556 S
C733   Cl765   1.780   .     S
C733   C738    1.413   .     A
C733   C891    1.383   1_455 S
C734   C737    1.414   .     A
C734   Cl766   1.781   .     S
C734   C814    1.383   .     S
C735   Cl767   1.780   .     S
C735   C737    1.413   .     A
C735   C811    1.383   .     S
C736   Cl768   1.781   .     S
C736   C738    1.414   .     A
C736   C890    1.383   1_455 S
C739   N744    1.370   .     A
C739   N769    1.428   .     S
C739   C1210   1.420   1_545 S
C740   N772    1.428   .     S
C740   N743    1.371   .     A
C740   C975    1.420   .     S
C741   N744    1.370   .     A
C741   N775    1.428   .     S
C741   C1208   1.420   1_545 S
C742   N778    1.428   .     S
C742   N743    1.371   .     A
C742   C973    1.420   .     S
N745   O746    1.300   .     A
N745   O747    1.301   .     A
N748   O750    1.301   .     A
N748   O749    1.300   .     A
N751   O753    1.300   .     A
N751   O752    1.301   .     A
N754   O756    1.300   .     A
N754   O755    1.301   .     A
N757   O758    1.301   .     A
N757   O759    1.301   .     A
N760   O762    1.301   .     A
N760   O761    1.301   .     A
N769   O770    1.299   .     A
N769   O771    1.301   .     A
N772   O773    1.299   .     A
N772   O774    1.301   .     A
N775   O776    1.299   .     A
N775   O777    1.301   .     A
N778   O780    1.301   .     A
N778   O779    1.299   .     A
O781   C785    1.294   .     A
O781   Zn793   2.030   .     S
O782   C786    1.294   .     A
O782   Zn794   2.030   .     S
O783   C786    1.294   .     A
O783   Zn793   2.030   .     S
O784   C785    1.294   .     A
O784   Zn794   2.030   .     S
C785   C816    1.453   .     S
C786   C815    1.453   .     S
O787   C791    1.283   .     A
O787   Zn793   2.007   .     S
O788   C792    1.286   .     A
O788   Zn794   2.007   .     S
O789   Zn793   2.007   .     S
O789   C792    1.283   .     A
O790   Zn794   2.007   .     S
O790   C791    1.286   .     A
C791   C798    1.425   .     S
C792   C797    1.425   .     S
Zn793  N821    2.016   .     S
Zn794  N822    2.016   .     S
C795   C805    1.400   .     A
C795   C797    1.394   .     A
C795   N823    1.439   .     S
C796   C806    1.400   .     A
C796   N826    1.439   .     S
C796   C798    1.394   .     A
C797   C799    1.394   .     A
C798   C800    1.394   .     A
C799   C801    1.405   .     A
C799   N829    1.434   .     S
C800   C802    1.405   .     A
C800   N832    1.434   .     S
C801   C807    1.413   .     A
C801   C803    1.421   .     A
C802   C808    1.413   .     A
C802   C804    1.421   .     A
C803   C805    1.415   .     A
C803   C102    1.404   1_556 S
C804   C806    1.415   .     A
C805   C810    1.405   .     A
C806   C809    1.405   .     A
C807   N835    1.427   .     S
C807   C107    1.392   1_556 S
C808   N838    1.427   .     S
C809   Cl841   1.766   .     S
C810   Cl842   1.767   .     S
C810   C106    1.392   1_556 S
C811   Cl843   1.780   .     S
C811   C816    1.413   .     A
C812   C815    1.414   .     A
C812   Cl844   1.781   .     S
C812   C892    1.383   .     S
C813   Cl845   1.780   .     S
C813   C815    1.413   .     A
C813   C889    1.383   .     S
C814   Cl846   1.781   .     S
C814   C816    1.414   .     A
C817   N822    1.370   .     A
C817   N847    1.428   .     S
C817   C1288   1.420   1_545 S
C818   N850    1.428   .     S
C818   N821    1.371   .     A
C818   C1053   1.420   .     S
C819   N822    1.370   .     A
C819   N853    1.428   .     S
C819   C1286   1.420   1_545 S
C820   N856    1.428   .     S
C820   N821    1.371   .     A
C820   C1051   1.420   .     S
N823   O824    1.300   .     A
N823   O825    1.301   .     A
N826   O828    1.301   .     A
N826   O827    1.300   .     A
N829   O831    1.300   .     A
N829   O830    1.301   .     A
N832   O834    1.300   .     A
N832   O833    1.301   .     A
N835   O836    1.301   .     A
N835   O837    1.301   .     A
N838   O840    1.301   .     A
N838   O839    1.301   .     A
N847   O848    1.299   .     A
N847   O849    1.301   .     A
N850   O851    1.299   .     A
N850   O852    1.301   .     A
N853   O854    1.299   .     A
N853   O855    1.301   .     A
N856   O858    1.301   .     A
N856   O857    1.299   .     A
O859   C863    1.294   .     A
O859   Zn871   2.030   .     S
O860   C864    1.294   .     A
O860   Zn872   2.030   .     S
O861   C864    1.294   .     A
O861   Zn871   2.030   .     S
O862   C863    1.294   .     A
O862   Zn872   2.030   .     S
C863   C894    1.453   .     S
C864   C893    1.453   .     S
O865   C869    1.283   .     A
O865   Zn871   2.007   .     S
O866   C870    1.286   .     A
O866   Zn872   2.007   .     S
O867   Zn871   2.007   .     S
O867   C870    1.283   .     A
O868   Zn872   2.007   .     S
O868   C869    1.286   .     A
C869   C876    1.425   .     S
C870   C875    1.425   .     S
Zn871  N899    2.016   .     S
Zn872  N900    2.016   .     S
C873   C883    1.400   .     A
C873   C875    1.394   .     A
C873   N901    1.439   .     S
C874   C884    1.400   .     A
C874   N904    1.439   .     S
C874   C876    1.394   .     A
C875   C877    1.394   .     A
C876   C878    1.394   .     A
C877   C879    1.405   .     A
C877   N907    1.434   .     S
C878   C880    1.405   .     A
C878   N910    1.434   .     S
C879   C885    1.413   .     A
C879   C881    1.421   .     A
C880   C886    1.413   .     A
C880   C882    1.421   .     A
C881   C883    1.415   .     A
C881   C180    1.404   1_556 S
C882   C884    1.415   .     A
C883   C888    1.405   .     A
C884   C887    1.405   .     A
C885   N913    1.427   .     S
C885   C185    1.392   1_556 S
C886   N916    1.427   .     S
C887   Cl919   1.766   .     S
C888   Cl920   1.767   .     S
C888   C184    1.392   1_556 S
C889   Cl921   1.780   .     S
C889   C894    1.413   .     A
C890   C893    1.414   .     A
C890   Cl922   1.781   .     S
C890   C736    1.383   1_655 S
C891   Cl923   1.780   .     S
C891   C893    1.413   .     A
C891   C733    1.383   1_655 S
C892   Cl924   1.781   .     S
C892   C894    1.414   .     A
C895   N900    1.370   .     A
C895   N925    1.428   .     S
C895   C1366   1.420   1_545 S
C896   N928    1.428   .     S
C896   N899    1.371   .     A
C896   C1131   1.420   .     S
C897   N900    1.370   .     A
C897   N931    1.428   .     S
C897   C1364   1.420   1_545 S
C898   N934    1.428   .     S
C898   N899    1.371   .     A
C898   C1129   1.420   .     S
N901   O902    1.300   .     A
N901   O903    1.301   .     A
N904   O906    1.301   .     A
N904   O905    1.300   .     A
N907   O909    1.300   .     A
N907   O908    1.301   .     A
N910   O912    1.300   .     A
N910   O911    1.301   .     A
N913   O914    1.301   .     A
N913   O915    1.301   .     A
N916   O918    1.301   .     A
N916   O917    1.301   .     A
N925   O926    1.299   .     A
N925   O927    1.301   .     A
N928   O929    1.299   .     A
N928   O930    1.301   .     A
N931   O932    1.299   .     A
N931   O933    1.301   .     A
N934   O936    1.301   .     A
N934   O935    1.299   .     A
O937   C941    1.294   .     A
O937   Zn949   2.030   .     S
O938   C942    1.294   .     A
O938   Zn950   2.030   .     S
O939   C942    1.294   .     A
O939   Zn949   2.030   .     S
O940   C941    1.294   .     A
O940   Zn950   2.030   .     S
C941   C972    1.453   .     S
C942   C971    1.453   .     S
O943   C947    1.283   .     A
O943   Zn949   2.007   .     S
O944   C948    1.286   .     A
O944   Zn950   2.007   .     S
O945   Zn949   2.007   .     S
O945   C948    1.283   .     A
O946   Zn950   2.007   .     S
O946   C947    1.286   .     A
C947   C954    1.425   .     S
C948   C953    1.425   .     S
Zn949  N977    2.016   .     S
Zn950  N978    2.016   .     S
C951   C961    1.400   .     A
C951   C953    1.394   .     A
C951   N979    1.439   .     S
C952   C962    1.400   .     A
C952   N982    1.439   .     S
C952   C954    1.394   .     A
C953   C955    1.394   .     A
C954   C956    1.394   .     A
C955   C957    1.405   .     A
C955   N985    1.434   .     S
C956   C958    1.405   .     A
C956   N988    1.434   .     S
C957   C963    1.413   .     A
C957   C959    1.421   .     A
C958   C964    1.413   .     A
C958   C960    1.421   .     A
C959   C961    1.415   .     A
C959   C258    1.404   1_556 S
C960   C962    1.415   .     A
C961   C966    1.405   .     A
C962   C965    1.405   .     A
C963   N991    1.427   .     S
C963   C263    1.392   1_556 S
C964   N994    1.427   .     S
C965   Cl997   1.766   .     S
C966   Cl998   1.767   .     S
C966   C262    1.392   1_556 S
C967   Cl999   1.780   .     S
C967   C972    1.413   .     A
C967   C1125   1.383   1_455 S
C968   C971    1.414   .     A
C968   Cl1000  1.781   .     S
C968   C1048   1.383   .     S
C969   Cl1001  1.780   .     S
C969   C971    1.413   .     A
C969   C1045   1.383   .     S
C970   Cl1002  1.781   .     S
C970   C972    1.414   .     A
C970   C1124   1.383   1_455 S
C973   N978    1.370   .     A
C973   N1003   1.428   .     S
C974   N1006   1.428   .     S
C974   N977    1.371   .     A
C974   C1209   1.420   .     S
C975   N978    1.370   .     A
C975   N1009   1.428   .     S
C976   N1012   1.428   .     S
C976   N977    1.371   .     A
C976   C1207   1.420   .     S
N979   O980    1.300   .     A
N979   O981    1.301   .     A
N982   O984    1.301   .     A
N982   O983    1.300   .     A
N985   O987    1.300   .     A
N985   O986    1.301   .     A
N988   O990    1.300   .     A
N988   O989    1.301   .     A
N991   O992    1.301   .     A
N991   O993    1.301   .     A
N994   O996    1.301   .     A
N994   O995    1.301   .     A
N1003  O1004   1.299   .     A
N1003  O1005   1.301   .     A
N1006  O1007   1.299   .     A
N1006  O1008   1.301   .     A
N1009  O1010   1.299   .     A
N1009  O1011   1.301   .     A
N1012  O1014   1.301   .     A
N1012  O1013   1.299   .     A
O1015  C1019   1.294   .     A
O1015  Zn1027  2.030   .     S
O1016  C1020   1.294   .     A
O1016  Zn1028  2.030   .     S
O1017  C1020   1.294   .     A
O1017  Zn1027  2.030   .     S
O1018  C1019   1.294   .     A
O1018  Zn1028  2.030   .     S
C1019  C1050   1.453   .     S
C1020  C1049   1.453   .     S
O1021  C1025   1.283   .     A
O1021  Zn1027  2.007   .     S
O1022  C1026   1.286   .     A
O1022  Zn1028  2.007   .     S
O1023  Zn1027  2.007   .     S
O1023  C1026   1.283   .     A
O1024  Zn1028  2.007   .     S
O1024  C1025   1.286   .     A
C1025  C1032   1.425   .     S
C1026  C1031   1.425   .     S
Zn1027 N1055   2.016   .     S
Zn1028 N1056   2.016   .     S
C1029  C1039   1.400   .     A
C1029  C1031   1.394   .     A
C1029  N1057   1.439   .     S
C1030  C1040   1.400   .     A
C1030  N1060   1.439   .     S
C1030  C1032   1.394   .     A
C1031  C1033   1.394   .     A
C1032  C1034   1.394   .     A
C1033  C1035   1.405   .     A
C1033  N1063   1.434   .     S
C1034  C1036   1.405   .     A
C1034  N1066   1.434   .     S
C1035  C1041   1.413   .     A
C1035  C1037   1.421   .     A
C1036  C1042   1.413   .     A
C1036  C1038   1.421   .     A
C1037  C1039   1.415   .     A
C1037  C336    1.404   1_556 S
C1038  C1040   1.415   .     A
C1039  C1044   1.405   .     A
C1040  C1043   1.405   .     A
C1041  N1069   1.427   .     S
C1041  C341    1.392   1_556 S
C1042  N1072   1.427   .     S
C1043  Cl1075  1.766   .     S
C1044  Cl1076  1.767   .     S
C1044  C340    1.392   1_556 S
C1045  Cl1077  1.780   .     S
C1045  C1050   1.413   .     A
C1046  C1049   1.414   .     A
C1046  Cl1078  1.781   .     S
C1046  C1126   1.383   .     S
C1047  Cl1079  1.780   .     S
C1047  C1049   1.413   .     A
C1047  C1123   1.383   .     S
C1048  Cl1080  1.781   .     S
C1048  C1050   1.414   .     A
C1051  N1056   1.370   .     A
C1051  N1081   1.428   .     S
C1052  N1084   1.428   .     S
C1052  N1055   1.371   .     A
C1052  C1287   1.420   .     S
C1053  N1056   1.370   .     A
C1053  N1087   1.428   .     S
C1054  N1090   1.428   .     S
C1054  N1055   1.371   .     A
C1054  C1285   1.420   .     S
N1057  O1058   1.300   .     A
N1057  O1059   1.301   .     A
N1060  O1062   1.301   .     A
N1060  O1061   1.300   .     A
N1063  O1065   1.300   .     A
N1063  O1064   1.301   .     A
N1066  O1068   1.300   .     A
N1066  O1067   1.301   .     A
N1069  O1070   1.301   .     A
N1069  O1071   1.301   .     A
N1072  O1074   1.301   .     A
N1072  O1073   1.301   .     A
N1081  O1082   1.299   .     A
N1081  O1083   1.301   .     A
N1084  O1085   1.299   .     A
N1084  O1086   1.301   .     A
N1087  O1088   1.299   .     A
N1087  O1089   1.301   .     A
N1090  O1092   1.301   .     A
N1090  O1091   1.299   .     A
O1093  C1097   1.294   .     A
O1093  Zn1105  2.030   .     S
O1094  C1098   1.294   .     A
O1094  Zn1106  2.030   .     S
O1095  C1098   1.294   .     A
O1095  Zn1105  2.030   .     S
O1096  C1097   1.294   .     A
O1096  Zn1106  2.030   .     S
C1097  C1128   1.453   .     S
C1098  C1127   1.453   .     S
O1099  C1103   1.283   .     A
O1099  Zn1105  2.007   .     S
O1100  C1104   1.286   .     A
O1100  Zn1106  2.007   .     S
O1101  Zn1105  2.007   .     S
O1101  C1104   1.283   .     A
O1102  Zn1106  2.007   .     S
O1102  C1103   1.286   .     A
C1103  C1110   1.425   .     S
C1104  C1109   1.425   .     S
Zn1105 N1133   2.016   .     S
Zn1106 N1134   2.016   .     S
C1107  C1117   1.400   .     A
C1107  C1109   1.394   .     A
C1107  N1135   1.439   .     S
C1108  C1118   1.400   .     A
C1108  N1138   1.439   .     S
C1108  C1110   1.394   .     A
C1109  C1111   1.394   .     A
C1110  C1112   1.394   .     A
C1111  C1113   1.405   .     A
C1111  N1141   1.434   .     S
C1112  C1114   1.405   .     A
C1112  N1144   1.434   .     S
C1113  C1119   1.413   .     A
C1113  C1115   1.421   .     A
C1114  C1120   1.413   .     A
C1114  C1116   1.421   .     A
C1115  C1117   1.415   .     A
C1115  C414    1.404   1_556 S
C1116  C1118   1.415   .     A
C1117  C1122   1.405   .     A
C1118  C1121   1.405   .     A
C1119  N1147   1.427   .     S
C1119  C419    1.392   1_556 S
C1120  N1150   1.427   .     S
C1121  Cl1153  1.766   .     S
C1122  Cl1154  1.767   .     S
C1122  C418    1.392   1_556 S
C1123  Cl1155  1.780   .     S
C1123  C1128   1.413   .     A
C1124  C1127   1.414   .     A
C1124  Cl1156  1.781   .     S
C1124  C970    1.383   1_655 S
C1125  Cl1157  1.780   .     S
C1125  C1127   1.413   .     A
C1125  C967    1.383   1_655 S
C1126  Cl1158  1.781   .     S
C1126  C1128   1.414   .     A
C1129  N1134   1.370   .     A
C1129  N1159   1.428   .     S
C1130  N1162   1.428   .     S
C1130  N1133   1.371   .     A
C1130  C1365   1.420   .     S
C1131  N1134   1.370   .     A
C1131  N1165   1.428   .     S
C1132  N1168   1.428   .     S
C1132  N1133   1.371   .     A
C1132  C1363   1.420   .     S
N1135  O1136   1.300   .     A
N1135  O1137   1.301   .     A
N1138  O1140   1.301   .     A
N1138  O1139   1.300   .     A
N1141  O1143   1.300   .     A
N1141  O1142   1.301   .     A
N1144  O1146   1.300   .     A
N1144  O1145   1.301   .     A
N1147  O1148   1.301   .     A
N1147  O1149   1.301   .     A
N1150  O1152   1.301   .     A
N1150  O1151   1.301   .     A
N1159  O1160   1.299   .     A
N1159  O1161   1.301   .     A
N1162  O1163   1.299   .     A
N1162  O1164   1.301   .     A
N1165  O1166   1.299   .     A
N1165  O1167   1.301   .     A
N1168  O1170   1.301   .     A
N1168  O1169   1.299   .     A
O1171  C1175   1.294   .     A
O1171  Zn1183  2.030   .     S
O1172  C1176   1.294   .     A
O1172  Zn1184  2.030   .     S
O1173  C1176   1.294   .     A
O1173  Zn1183  2.030   .     S
O1174  C1175   1.294   .     A
O1174  Zn1184  2.030   .     S
C1175  C1206   1.453   .     S
C1176  C1205   1.453   .     S
O1177  C1181   1.283   .     A
O1177  Zn1183  2.007   .     S
O1178  C1182   1.286   .     A
O1178  Zn1184  2.007   .     S
O1179  Zn1183  2.007   .     S
O1179  C1182   1.283   .     A
O1180  Zn1184  2.007   .     S
O1180  C1181   1.286   .     A
C1181  C1188   1.425   .     S
C1182  C1187   1.425   .     S
Zn1183 N1211   2.016   .     S
Zn1184 N1212   2.016   .     S
C1185  C1195   1.400   .     A
C1185  C1187   1.394   .     A
C1185  N1213   1.439   .     S
C1186  C1196   1.400   .     A
C1186  N1216   1.439   .     S
C1186  C1188   1.394   .     A
C1187  C1189   1.394   .     A
C1188  C1190   1.394   .     A
C1189  C1191   1.405   .     A
C1189  N1219   1.434   .     S
C1190  C1192   1.405   .     A
C1190  N1222   1.434   .     S
C1191  C1197   1.413   .     A
C1191  C1193   1.421   .     A
C1192  C1198   1.413   .     A
C1192  C1194   1.421   .     A
C1193  C1195   1.415   .     A
C1193  C492    1.404   1_556 S
C1194  C1196   1.415   .     A
C1195  C1200   1.405   .     A
C1196  C1199   1.405   .     A
C1197  N1225   1.427   .     S
C1197  C497    1.392   1_556 S
C1198  N1228   1.427   .     S
C1199  Cl1231  1.766   .     S
C1200  Cl1232  1.767   .     S
C1200  C496    1.392   1_556 S
C1201  Cl1233  1.780   .     S
C1201  C1206   1.413   .     A
C1201  C1359   1.383   1_455 S
C1202  C1205   1.414   .     A
C1202  Cl1234  1.781   .     S
C1202  C1282   1.383   .     S
C1203  Cl1235  1.780   .     S
C1203  C1205   1.413   .     A
C1203  C1279   1.383   .     S
C1204  Cl1236  1.781   .     S
C1204  C1206   1.414   .     A
C1204  C1358   1.383   1_455 S
C1207  N1212   1.370   .     A
C1207  N1237   1.428   .     S
C1208  N1240   1.428   .     S
C1208  N1211   1.371   .     A
C1208  C741    1.420   1_565 S
C1209  N1212   1.370   .     A
C1209  N1243   1.428   .     S
C1210  N1246   1.428   .     S
C1210  N1211   1.371   .     A
C1210  C739    1.420   1_565 S
N1213  O1214   1.300   .     A
N1213  O1215   1.301   .     A
N1216  O1218   1.301   .     A
N1216  O1217   1.300   .     A
N1219  O1221   1.300   .     A
N1219  O1220   1.301   .     A
N1222  O1224   1.300   .     A
N1222  O1223   1.301   .     A
N1225  O1226   1.301   .     A
N1225  O1227   1.301   .     A
N1228  O1230   1.301   .     A
N1228  O1229   1.301   .     A
N1237  O1238   1.299   .     A
N1237  O1239   1.301   .     A
N1240  O1241   1.299   .     A
N1240  O1242   1.301   .     A
N1243  O1244   1.299   .     A
N1243  O1245   1.301   .     A
N1246  O1248   1.301   .     A
N1246  O1247   1.299   .     A
O1249  C1253   1.294   .     A
O1249  Zn1261  2.030   .     S
O1250  C1254   1.294   .     A
O1250  Zn1262  2.030   .     S
O1251  C1254   1.294   .     A
O1251  Zn1261  2.030   .     S
O1252  C1253   1.294   .     A
O1252  Zn1262  2.030   .     S
C1253  C1284   1.453   .     S
C1254  C1283   1.453   .     S
O1255  C1259   1.283   .     A
O1255  Zn1261  2.007   .     S
O1256  C1260   1.286   .     A
O1256  Zn1262  2.007   .     S
O1257  Zn1261  2.007   .     S
O1257  C1260   1.283   .     A
O1258  Zn1262  2.007   .     S
O1258  C1259   1.286   .     A
C1259  C1266   1.425   .     S
C1260  C1265   1.425   .     S
Zn1261 N1289   2.016   .     S
Zn1262 N1290   2.016   .     S
C1263  C1273   1.400   .     A
C1263  C1265   1.394   .     A
C1263  N1291   1.439   .     S
C1264  C1274   1.400   .     A
C1264  N1294   1.439   .     S
C1264  C1266   1.394   .     A
C1265  C1267   1.394   .     A
C1266  C1268   1.394   .     A
C1267  C1269   1.405   .     A
C1267  N1297   1.434   .     S
C1268  C1270   1.405   .     A
C1268  N1300   1.434   .     S
C1269  C1275   1.413   .     A
C1269  C1271   1.421   .     A
C1270  C1276   1.413   .     A
C1270  C1272   1.421   .     A
C1271  C1273   1.415   .     A
C1271  C570    1.404   1_556 S
C1272  C1274   1.415   .     A
C1273  C1278   1.405   .     A
C1274  C1277   1.405   .     A
C1275  N1303   1.427   .     S
C1275  C575    1.392   1_556 S
C1276  N1306   1.427   .     S
C1277  Cl1309  1.766   .     S
C1278  Cl1310  1.767   .     S
C1278  C574    1.392   1_556 S
C1279  Cl1311  1.780   .     S
C1279  C1284   1.413   .     A
C1280  C1283   1.414   .     A
C1280  Cl1312  1.781   .     S
C1280  C1360   1.383   .     S
C1281  Cl1313  1.780   .     S
C1281  C1283   1.413   .     A
C1281  C1357   1.383   .     S
C1282  Cl1314  1.781   .     S
C1282  C1284   1.414   .     A
C1285  N1290   1.370   .     A
C1285  N1315   1.428   .     S
C1286  N1318   1.428   .     S
C1286  N1289   1.371   .     A
C1286  C819    1.420   1_565 S
C1287  N1290   1.370   .     A
C1287  N1321   1.428   .     S
C1288  N1324   1.428   .     S
C1288  N1289   1.371   .     A
C1288  C817    1.420   1_565 S
N1291  O1292   1.300   .     A
N1291  O1293   1.301   .     A
N1294  O1296   1.301   .     A
N1294  O1295   1.300   .     A
N1297  O1299   1.300   .     A
N1297  O1298   1.301   .     A
N1300  O1302   1.300   .     A
N1300  O1301   1.301   .     A
N1303  O1304   1.301   .     A
N1303  O1305   1.301   .     A
N1306  O1308   1.301   .     A
N1306  O1307   1.301   .     A
N1315  O1316   1.299   .     A
N1315  O1317   1.301   .     A
N1318  O1319   1.299   .     A
N1318  O1320   1.301   .     A
N1321  O1322   1.299   .     A
N1321  O1323   1.301   .     A
N1324  O1326   1.301   .     A
N1324  O1325   1.299   .     A
O1327  C1331   1.294   .     A
O1327  Zn1339  2.030   .     S
O1328  C1332   1.294   .     A
O1328  Zn1340  2.030   .     S
O1329  C1332   1.294   .     A
O1329  Zn1339  2.030   .     S
O1330  C1331   1.294   .     A
O1330  Zn1340  2.030   .     S
C1331  C1362   1.453   .     S
C1332  C1361   1.453   .     S
O1333  C1337   1.283   .     A
O1333  Zn1339  2.007   .     S
O1334  C1338   1.286   .     A
O1334  Zn1340  2.007   .     S
O1335  Zn1339  2.007   .     S
O1335  C1338   1.283   .     A
O1336  Zn1340  2.007   .     S
O1336  C1337   1.286   .     A
C1337  C1344   1.425   .     S
C1338  C1343   1.425   .     S
Zn1339 N1367   2.016   .     S
Zn1340 N1368   2.016   .     S
C1341  C1351   1.400   .     A
C1341  C1343   1.394   .     A
C1341  N1369   1.439   .     S
C1342  C1352   1.400   .     A
C1342  N1372   1.439   .     S
C1342  C1344   1.394   .     A
C1343  C1345   1.394   .     A
C1344  C1346   1.394   .     A
C1345  C1347   1.405   .     A
C1345  N1375   1.434   .     S
C1346  C1348   1.405   .     A
C1346  N1378   1.434   .     S
C1347  C1353   1.413   .     A
C1347  C1349   1.421   .     A
C1348  C1354   1.413   .     A
C1348  C1350   1.421   .     A
C1349  C1351   1.415   .     A
C1349  C648    1.404   1_556 S
C1350  C1352   1.415   .     A
C1351  C1356   1.405   .     A
C1352  C1355   1.405   .     A
C1353  N1381   1.427   .     S
C1353  C653    1.392   1_556 S
C1354  N1384   1.427   .     S
C1355  Cl1387  1.766   .     S
C1356  Cl1388  1.767   .     S
C1356  C652    1.392   1_556 S
C1357  Cl1389  1.780   .     S
C1357  C1362   1.413   .     A
C1358  C1361   1.414   .     A
C1358  Cl1390  1.781   .     S
C1358  C1204   1.383   1_655 S
C1359  Cl1391  1.780   .     S
C1359  C1361   1.413   .     A
C1359  C1201   1.383   1_655 S
C1360  Cl1392  1.781   .     S
C1360  C1362   1.414   .     A
C1363  N1368   1.370   .     A
C1363  N1393   1.428   .     S
C1364  N1396   1.428   .     S
C1364  N1367   1.371   .     A
C1364  C897    1.420   1_565 S
C1365  N1368   1.370   .     A
C1365  N1399   1.428   .     S
C1366  N1402   1.428   .     S
C1366  N1367   1.371   .     A
C1366  C895    1.420   1_565 S
N1369  O1370   1.300   .     A
N1369  O1371   1.301   .     A
N1372  O1374   1.301   .     A
N1372  O1373   1.300   .     A
N1375  O1377   1.300   .     A
N1375  O1376   1.301   .     A
N1378  O1380   1.300   .     A
N1378  O1379   1.301   .     A
N1381  O1382   1.301   .     A
N1381  O1383   1.301   .     A
N1384  O1386   1.301   .     A
N1384  O1385   1.301   .     A
N1393  O1394   1.299   .     A
N1393  O1395   1.301   .     A
N1396  O1397   1.299   .     A
N1396  O1398   1.301   .     A
N1399  O1400   1.299   .     A
N1399  O1401   1.301   .     A
N1402  O1404   1.301   .     A
N1402  O1403   1.299   .     A
