data_str_m3_o1_o16_pcu_sym.42
_audit_creation_date              2020-01-03
_audit_creation_method            'Materials Studio'
_symmetry_space_group_name_H-M    'P1'
_symmetry_Int_Tables_number       1
_symmetry_cell_setting            triclinic
loop_
_symmetry_equiv_pos_as_xyz
  x,y,z
_cell_length_a                    29.5861
_cell_length_b                    32.3600
_cell_length_c                    26.1384
_cell_angle_alpha                 90.5233
_cell_angle_beta                  69.7843
_cell_angle_gamma                 90.3183
loop_
_atom_site_label
_atom_site_type_symbol
_atom_site_fract_x
_atom_site_fract_y
_atom_site_fract_z
_atom_site_U_iso_or_equiv
_atom_site_adp_type
_atom_site_occupancy
C1     C     0.16675   0.24650   0.25008   0.00000  Uiso   1.00
C2     C     0.12172   0.16637   0.41257   0.00000  Uiso   1.00
C3     C     0.20258   0.31137   0.26265   0.00000  Uiso   1.00
C4     C     0.13971   0.16641   0.35255   0.00000  Uiso   1.00
C5     C     0.20365   0.02038   0.26166   0.00000  Uiso   1.00
C6     C     0.16771   0.04192   0.24785   0.00000  Uiso   1.00
C7     C     0.13271   0.01972   0.23281   0.00000  Uiso   1.00
C8     C     0.13269   0.31071   0.23417   0.00000  Uiso   1.00
C9     C     0.16714   0.29025   0.24939   0.00000  Uiso   1.00
C10    C     0.32133   0.14635   0.21015   0.00000  Uiso   1.00
C11    C     0.03597   0.14682   0.20981   0.00000  Uiso   1.00
C12    C     0.14317   0.15954   0.49337   0.00000  Uiso   1.00
C13    C     0.01255   0.18709   0.28955   0.00000  Uiso   1.00
C14    C     0.29801   0.18791   0.28956   0.00000  Uiso   1.00
C15    C     0.16692   0.08650   0.24916   0.00000  Uiso   1.00
C16    C     0.19349   0.16626   0.14770   0.00000  Uiso   1.00
C17    C     0.25859   0.12282   0.00812   0.00000  Uiso   1.00
C18    C     0.20995   0.16004   0.08908   0.00000  Uiso   1.00
C19    C     0.07871   0.18768   0.44339   0.00000  Uiso   1.00
C20    C     0.06553   0.19023   0.00075   0.00000  Uiso   1.00
C21    C     0.09825   0.17667   0.02481   0.00000  Uiso   1.00
C22    C     0.24293   0.03986   0.27396   0.00000  Uiso   1.00
C23    C     0.15087   0.14850   0.43930   0.00000  Uiso   1.00
C24    C     0.09717   0.03836   0.21377   0.00000  Uiso   1.00
C25    C     0.26288   0.21363   0.33166   0.00000  Uiso   1.00
C26    C     0.24952   0.07141   0.41523   0.00000  Uiso   1.00
C27    C     0.30690   0.10555   0.47810   0.00000  Uiso   1.00
C28    C     0.04936   0.20879   0.41558   0.00000  Uiso   1.00
C29    C     0.01999   0.21015   0.03613   0.00000  Uiso   1.00
C30    C     0.18061   0.15282   0.01431   0.00000  Uiso   1.00
C31    C     0.22115   0.12775   0.48558   0.00000  Uiso   1.00
C32    C     0.22063   0.10747   0.43755   0.00000  Uiso   1.00
C33    C     0.18716   0.11935   0.41372   0.00000  Uiso   1.00
C34    C     0.17857   0.17142   0.06316   0.00000  Uiso   1.00
C35    C     0.25086   0.13693   0.06133   0.00000  Uiso   1.00
H36    H     0.27661   0.12988   0.08112   0.00000  Uiso   1.00
H37    H     0.23273   0.22757   0.32446   0.00000  Uiso   1.00
H38    H     0.32612   0.08886   0.00004   0.00000  Uiso   1.00
H39    H     0.06669   0.22889   0.38131   0.00000  Uiso   1.00
H40    H     0.33194   0.22886   0.01905   0.00000  Uiso   1.00
H41    H     0.10607   0.29360   0.22246   0.00000  Uiso   1.00
H42    H     0.31285   0.13011   0.17823   0.00000  Uiso   1.00
H43    H     0.06382   0.13146   0.17709   0.00000  Uiso   1.00
H44    H     0.02227   0.20396   0.32008   0.00000  Uiso   1.00
H45    H     0.15092   0.19356   0.08373   0.00000  Uiso   1.00
H46    H     0.08785   0.17941   0.06856   0.00000  Uiso   1.00
H47    H     0.18823   0.10425   0.37613   0.00000  Uiso   1.00
H48    H     0.22957   0.29483   0.27383   0.00000  Uiso   1.00
N49    N     0.04760   0.16668   0.25002   0.00000  Uiso   1.00
N50    N     0.28573   0.16665   0.25000   0.00000  Uiso   1.00
N51    N     0.27464   0.05537   0.28319   0.00000  Uiso   1.00
N52    N     0.06847   0.05257   0.19840   0.00000  Uiso   1.00
N53    N     0.27241   0.04230   0.39776   0.00000  Uiso   1.00
O54    O     0.12846   0.22775   0.25000   0.00000  Uiso   1.00
O55    O     0.32721   0.11238   0.42967   0.00000  Uiso   1.00
O56    O     0.00599   0.20301   0.42960   0.00000  Uiso   1.00
O57    O     0.00573   0.20607   0.08559   0.00000  Uiso   1.00
O58    O     0.20490   0.22774   0.25000   0.00000  Uiso   1.00
O59    O     0.10947   0.16666   0.32681   0.00000  Uiso   1.00
O60    O     0.18591   0.16665   0.32681   0.00000  Uiso   1.00
O61    O     0.12843   0.10559   0.24999   0.00000  Uiso   1.00
O62    O     0.20488   0.10558   0.24999   0.00000  Uiso   1.00
O63    O     0.14742   0.16668   0.17319   0.00000  Uiso   1.00
O64    O     0.22387   0.16667   0.17319   0.00000  Uiso   1.00
O65    O     0.26781   0.22035   0.37548   0.00000  Uiso   1.00
Zn66   Zn    0.11562   0.16667   0.25000   0.00000  Uiso   1.00
Zn67   Zn    0.21771   0.16666   0.25000   0.00000  Uiso   1.00
C68    C     0.50009   0.24650   0.25008   0.00000  Uiso   1.00
C69    C     0.45505   0.16637   0.41257   0.00000  Uiso   1.00
C70    C     0.53591   0.31137   0.26265   0.00000  Uiso   1.00
C71    C     0.47305   0.16641   0.35255   0.00000  Uiso   1.00
C72    C     0.53698   0.02038   0.26166   0.00000  Uiso   1.00
C73    C     0.50105   0.04192   0.24785   0.00000  Uiso   1.00
C74    C     0.46604   0.01972   0.23281   0.00000  Uiso   1.00
C75    C     0.46603   0.31071   0.23417   0.00000  Uiso   1.00
C76    C     0.50048   0.29025   0.24939   0.00000  Uiso   1.00
C77    C     0.65466   0.14635   0.21015   0.00000  Uiso   1.00
C78    C     0.36930   0.14682   0.20981   0.00000  Uiso   1.00
C79    C     0.47651   0.15954   0.49337   0.00000  Uiso   1.00
C80    C     0.34589   0.18709   0.28955   0.00000  Uiso   1.00
C81    C     0.63135   0.18791   0.28956   0.00000  Uiso   1.00
C82    C     0.50025   0.08650   0.24916   0.00000  Uiso   1.00
C83    C     0.52682   0.16626   0.14770   0.00000  Uiso   1.00
C84    C     0.59192   0.12282   0.00812   0.00000  Uiso   1.00
C85    C     0.54329   0.16004   0.08908   0.00000  Uiso   1.00
C86    C     0.41205   0.18768   0.44339   0.00000  Uiso   1.00
C87    C     0.39887   0.19023   0.00075   0.00000  Uiso   1.00
C88    C     0.43159   0.17667   0.02481   0.00000  Uiso   1.00
C89    C     0.57627   0.03986   0.27396   0.00000  Uiso   1.00
C90    C     0.48421   0.14850   0.43930   0.00000  Uiso   1.00
C91    C     0.43050   0.03836   0.21377   0.00000  Uiso   1.00
C92    C     0.59621   0.21363   0.33166   0.00000  Uiso   1.00
C93    C     0.58286   0.07141   0.41523   0.00000  Uiso   1.00
C94    C     0.64023   0.10555   0.47810   0.00000  Uiso   1.00
C95    C     0.38269   0.20879   0.41558   0.00000  Uiso   1.00
C96    C     0.35333   0.21015   0.03613   0.00000  Uiso   1.00
C97    C     0.51394   0.15282   0.01431   0.00000  Uiso   1.00
C98    C     0.55448   0.12775   0.48558   0.00000  Uiso   1.00
C99    C     0.55396   0.10747   0.43755   0.00000  Uiso   1.00
C100   C     0.52049   0.11935   0.41372   0.00000  Uiso   1.00
C101   C     0.51190   0.17142   0.06316   0.00000  Uiso   1.00
C102   C     0.58420   0.13693   0.06133   0.00000  Uiso   1.00
H103   H     0.60994   0.12988   0.08112   0.00000  Uiso   1.00
H104   H     0.56606   0.22757   0.32446   0.00000  Uiso   1.00
H105   H     0.65945   0.08886   0.00004   0.00000  Uiso   1.00
H106   H     0.40003   0.22889   0.38131   0.00000  Uiso   1.00
H107   H     0.66527   0.22886   0.01905   0.00000  Uiso   1.00
H108   H     0.43940   0.29360   0.22246   0.00000  Uiso   1.00
H109   H     0.64618   0.13011   0.17823   0.00000  Uiso   1.00
H110   H     0.39716   0.13146   0.17709   0.00000  Uiso   1.00
H111   H     0.35560   0.20396   0.32008   0.00000  Uiso   1.00
H112   H     0.48425   0.19356   0.08373   0.00000  Uiso   1.00
H113   H     0.42118   0.17941   0.06856   0.00000  Uiso   1.00
H114   H     0.52156   0.10425   0.37613   0.00000  Uiso   1.00
H115   H     0.56291   0.29483   0.27383   0.00000  Uiso   1.00
N116   N     0.38093   0.16668   0.25002   0.00000  Uiso   1.00
N117   N     0.61906   0.16665   0.25000   0.00000  Uiso   1.00
N118   N     0.60797   0.05537   0.28319   0.00000  Uiso   1.00
N119   N     0.40180   0.05257   0.19840   0.00000  Uiso   1.00
N120   N     0.60575   0.04230   0.39776   0.00000  Uiso   1.00
O121   O     0.46179   0.22775   0.25000   0.00000  Uiso   1.00
O122   O     0.66054   0.11238   0.42967   0.00000  Uiso   1.00
O123   O     0.33932   0.20301   0.42960   0.00000  Uiso   1.00
O124   O     0.33906   0.20607   0.08559   0.00000  Uiso   1.00
O125   O     0.53823   0.22774   0.25000   0.00000  Uiso   1.00
O126   O     0.44280   0.16666   0.32681   0.00000  Uiso   1.00
O127   O     0.51924   0.16665   0.32681   0.00000  Uiso   1.00
O128   O     0.46177   0.10559   0.24999   0.00000  Uiso   1.00
O129   O     0.53821   0.10558   0.24999   0.00000  Uiso   1.00
O130   O     0.48076   0.16668   0.17319   0.00000  Uiso   1.00
O131   O     0.55720   0.16667   0.17319   0.00000  Uiso   1.00
O132   O     0.60115   0.22035   0.37548   0.00000  Uiso   1.00
Zn133  Zn    0.44896   0.16667   0.25000   0.00000  Uiso   1.00
Zn134  Zn    0.55104   0.16666   0.25000   0.00000  Uiso   1.00
C135   C     0.83342   0.24650   0.25008   0.00000  Uiso   1.00
C136   C     0.78838   0.16637   0.41257   0.00000  Uiso   1.00
C137   C     0.86925   0.31137   0.26265   0.00000  Uiso   1.00
C138   C     0.80638   0.16641   0.35255   0.00000  Uiso   1.00
C139   C     0.87032   0.02038   0.26166   0.00000  Uiso   1.00
C140   C     0.83438   0.04192   0.24785   0.00000  Uiso   1.00
C141   C     0.79937   0.01972   0.23281   0.00000  Uiso   1.00
C142   C     0.79936   0.31071   0.23417   0.00000  Uiso   1.00
C143   C     0.83381   0.29025   0.24939   0.00000  Uiso   1.00
C144   C     0.98799   0.14635   0.21015   0.00000  Uiso   1.00
C145   C     0.70264   0.14682   0.20981   0.00000  Uiso   1.00
C146   C     0.80984   0.15954   0.49337   0.00000  Uiso   1.00
C147   C     0.67922   0.18709   0.28955   0.00000  Uiso   1.00
C148   C     0.96468   0.18791   0.28956   0.00000  Uiso   1.00
C149   C     0.83358   0.08650   0.24916   0.00000  Uiso   1.00
C150   C     0.86016   0.16626   0.14770   0.00000  Uiso   1.00
C151   C     0.92525   0.12282   0.00812   0.00000  Uiso   1.00
C152   C     0.87662   0.16004   0.08908   0.00000  Uiso   1.00
C153   C     0.74538   0.18768   0.44339   0.00000  Uiso   1.00
C154   C     0.73220   0.19023   0.00075   0.00000  Uiso   1.00
C155   C     0.76492   0.17667   0.02481   0.00000  Uiso   1.00
C156   C     0.90960   0.03986   0.27396   0.00000  Uiso   1.00
C157   C     0.81754   0.14850   0.43930   0.00000  Uiso   1.00
C158   C     0.76384   0.03836   0.21377   0.00000  Uiso   1.00
C159   C     0.92954   0.21363   0.33166   0.00000  Uiso   1.00
C160   C     0.91619   0.07141   0.41523   0.00000  Uiso   1.00
C161   C     0.97356   0.10555   0.47810   0.00000  Uiso   1.00
C162   C     0.71602   0.20879   0.41558   0.00000  Uiso   1.00
C163   C     0.68666   0.21015   0.03613   0.00000  Uiso   1.00
C164   C     0.84728   0.15282   0.01431   0.00000  Uiso   1.00
C165   C     0.88781   0.12775   0.48558   0.00000  Uiso   1.00
C166   C     0.88730   0.10747   0.43755   0.00000  Uiso   1.00
C167   C     0.85382   0.11935   0.41372   0.00000  Uiso   1.00
C168   C     0.84524   0.17142   0.06316   0.00000  Uiso   1.00
C169   C     0.91753   0.13693   0.06133   0.00000  Uiso   1.00
H170   H     0.94327   0.12988   0.08112   0.00000  Uiso   1.00
H171   H     0.89940   0.22757   0.32446   0.00000  Uiso   1.00
H172   H     0.99278   0.08886   0.00004   0.00000  Uiso   1.00
H173   H     0.73336   0.22889   0.38131   0.00000  Uiso   1.00
H174   H     0.99860   0.22886   0.01905   0.00000  Uiso   1.00
H175   H     0.77274   0.29360   0.22246   0.00000  Uiso   1.00
H176   H     0.97952   0.13011   0.17823   0.00000  Uiso   1.00
H177   H     0.73049   0.13146   0.17709   0.00000  Uiso   1.00
H178   H     0.68893   0.20396   0.32008   0.00000  Uiso   1.00
H179   H     0.81758   0.19356   0.08373   0.00000  Uiso   1.00
H180   H     0.75451   0.17941   0.06856   0.00000  Uiso   1.00
H181   H     0.85489   0.10425   0.37613   0.00000  Uiso   1.00
H182   H     0.89624   0.29483   0.27383   0.00000  Uiso   1.00
N183   N     0.71426   0.16668   0.25002   0.00000  Uiso   1.00
N184   N     0.95239   0.16665   0.25000   0.00000  Uiso   1.00
N185   N     0.94131   0.05537   0.28319   0.00000  Uiso   1.00
N186   N     0.73513   0.05257   0.19840   0.00000  Uiso   1.00
N187   N     0.93908   0.04230   0.39776   0.00000  Uiso   1.00
O188   O     0.79512   0.22775   0.25000   0.00000  Uiso   1.00
O189   O     0.99388   0.11238   0.42967   0.00000  Uiso   1.00
O190   O     0.67266   0.20301   0.42960   0.00000  Uiso   1.00
O191   O     0.67240   0.20607   0.08559   0.00000  Uiso   1.00
O192   O     0.87157   0.22774   0.25000   0.00000  Uiso   1.00
O193   O     0.77613   0.16666   0.32681   0.00000  Uiso   1.00
O194   O     0.85258   0.16665   0.32681   0.00000  Uiso   1.00
O195   O     0.79510   0.10559   0.24999   0.00000  Uiso   1.00
O196   O     0.87154   0.10558   0.24999   0.00000  Uiso   1.00
O197   O     0.81409   0.16668   0.17319   0.00000  Uiso   1.00
O198   O     0.89053   0.16667   0.17319   0.00000  Uiso   1.00
O199   O     0.93448   0.22035   0.37548   0.00000  Uiso   1.00
Zn200  Zn    0.78229   0.16667   0.25000   0.00000  Uiso   1.00
Zn201  Zn    0.88438   0.16666   0.25000   0.00000  Uiso   1.00
C202   C     0.16675   0.57983   0.25008   0.00000  Uiso   1.00
C203   C     0.12172   0.49971   0.41257   0.00000  Uiso   1.00
C204   C     0.20258   0.64470   0.26265   0.00000  Uiso   1.00
C205   C     0.13971   0.49974   0.35255   0.00000  Uiso   1.00
C206   C     0.20365   0.35372   0.26166   0.00000  Uiso   1.00
C207   C     0.16771   0.37525   0.24785   0.00000  Uiso   1.00
C208   C     0.13271   0.35306   0.23281   0.00000  Uiso   1.00
C209   C     0.13269   0.64404   0.23417   0.00000  Uiso   1.00
C210   C     0.16714   0.62359   0.24939   0.00000  Uiso   1.00
C211   C     0.32133   0.47968   0.21015   0.00000  Uiso   1.00
C212   C     0.03597   0.48015   0.20981   0.00000  Uiso   1.00
C213   C     0.14317   0.49287   0.49337   0.00000  Uiso   1.00
C214   C     0.01255   0.52043   0.28955   0.00000  Uiso   1.00
C215   C     0.29801   0.52124   0.28956   0.00000  Uiso   1.00
C216   C     0.16692   0.41983   0.24916   0.00000  Uiso   1.00
C217   C     0.19349   0.49960   0.14770   0.00000  Uiso   1.00
C218   C     0.25859   0.45615   0.00812   0.00000  Uiso   1.00
C219   C     0.20995   0.49337   0.08908   0.00000  Uiso   1.00
C220   C     0.07871   0.52101   0.44339   0.00000  Uiso   1.00
C221   C     0.06553   0.52357   0.00075   0.00000  Uiso   1.00
C222   C     0.09825   0.51000   0.02481   0.00000  Uiso   1.00
C223   C     0.24293   0.37319   0.27396   0.00000  Uiso   1.00
C224   C     0.15087   0.48183   0.43930   0.00000  Uiso   1.00
C225   C     0.09717   0.37169   0.21377   0.00000  Uiso   1.00
C226   C     0.26288   0.54696   0.33166   0.00000  Uiso   1.00
C227   C     0.24952   0.40474   0.41523   0.00000  Uiso   1.00
C228   C     0.30690   0.43888   0.47810   0.00000  Uiso   1.00
C229   C     0.04936   0.54213   0.41558   0.00000  Uiso   1.00
C230   C     0.01999   0.54348   0.03613   0.00000  Uiso   1.00
C231   C     0.18061   0.48616   0.01431   0.00000  Uiso   1.00
C232   C     0.22115   0.46108   0.48558   0.00000  Uiso   1.00
C233   C     0.22063   0.44080   0.43755   0.00000  Uiso   1.00
C234   C     0.18716   0.45269   0.41372   0.00000  Uiso   1.00
C235   C     0.17857   0.50475   0.06316   0.00000  Uiso   1.00
C236   C     0.25086   0.47027   0.06133   0.00000  Uiso   1.00
H237   H     0.27661   0.46321   0.08112   0.00000  Uiso   1.00
H238   H     0.23273   0.56091   0.32446   0.00000  Uiso   1.00
H239   H     0.32612   0.42219   0.00004   0.00000  Uiso   1.00
H240   H     0.06669   0.56222   0.38131   0.00000  Uiso   1.00
H241   H     0.33194   0.56220   0.01905   0.00000  Uiso   1.00
H242   H     0.10607   0.62694   0.22246   0.00000  Uiso   1.00
H243   H     0.31285   0.46345   0.17823   0.00000  Uiso   1.00
H244   H     0.06382   0.46479   0.17709   0.00000  Uiso   1.00
H245   H     0.02227   0.53729   0.32008   0.00000  Uiso   1.00
H246   H     0.15092   0.52689   0.08373   0.00000  Uiso   1.00
H247   H     0.08785   0.51274   0.06856   0.00000  Uiso   1.00
H248   H     0.18823   0.43758   0.37613   0.00000  Uiso   1.00
H249   H     0.22957   0.62817   0.27383   0.00000  Uiso   1.00
N250   N     0.04760   0.50001   0.25002   0.00000  Uiso   1.00
N251   N     0.28573   0.49998   0.25000   0.00000  Uiso   1.00
N252   N     0.27464   0.38871   0.28319   0.00000  Uiso   1.00
N253   N     0.06847   0.38591   0.19840   0.00000  Uiso   1.00
N254   N     0.27241   0.37564   0.39776   0.00000  Uiso   1.00
O255   O     0.12846   0.56108   0.25000   0.00000  Uiso   1.00
O256   O     0.32721   0.44571   0.42967   0.00000  Uiso   1.00
O257   O     0.00599   0.53635   0.42960   0.00000  Uiso   1.00
O258   O     0.00573   0.53941   0.08559   0.00000  Uiso   1.00
O259   O     0.20490   0.56107   0.25000   0.00000  Uiso   1.00
O260   O     0.10947   0.50000   0.32681   0.00000  Uiso   1.00
O261   O     0.18591   0.49999   0.32681   0.00000  Uiso   1.00
O262   O     0.12843   0.43893   0.24999   0.00000  Uiso   1.00
O263   O     0.20488   0.43892   0.24999   0.00000  Uiso   1.00
O264   O     0.14742   0.50001   0.17319   0.00000  Uiso   1.00
O265   O     0.22387   0.50000   0.17319   0.00000  Uiso   1.00
O266   O     0.26781   0.55368   0.37548   0.00000  Uiso   1.00
Zn267  Zn    0.11562   0.50001   0.25000   0.00000  Uiso   1.00
Zn268  Zn    0.21771   0.49999   0.25000   0.00000  Uiso   1.00
C269   C     0.50009   0.57983   0.25008   0.00000  Uiso   1.00
C270   C     0.45505   0.49971   0.41257   0.00000  Uiso   1.00
C271   C     0.53591   0.64470   0.26265   0.00000  Uiso   1.00
C272   C     0.47305   0.49974   0.35255   0.00000  Uiso   1.00
C273   C     0.53698   0.35372   0.26166   0.00000  Uiso   1.00
C274   C     0.50105   0.37525   0.24785   0.00000  Uiso   1.00
C275   C     0.46604   0.35306   0.23281   0.00000  Uiso   1.00
C276   C     0.46603   0.64404   0.23417   0.00000  Uiso   1.00
C277   C     0.50048   0.62359   0.24939   0.00000  Uiso   1.00
C278   C     0.65466   0.47968   0.21015   0.00000  Uiso   1.00
C279   C     0.36930   0.48015   0.20981   0.00000  Uiso   1.00
C280   C     0.47651   0.49287   0.49337   0.00000  Uiso   1.00
C281   C     0.34589   0.52043   0.28955   0.00000  Uiso   1.00
C282   C     0.63135   0.52124   0.28956   0.00000  Uiso   1.00
C283   C     0.50025   0.41983   0.24916   0.00000  Uiso   1.00
C284   C     0.52682   0.49960   0.14770   0.00000  Uiso   1.00
C285   C     0.59192   0.45615   0.00812   0.00000  Uiso   1.00
C286   C     0.54329   0.49337   0.08908   0.00000  Uiso   1.00
C287   C     0.41205   0.52101   0.44339   0.00000  Uiso   1.00
C288   C     0.39887   0.52357   0.00075   0.00000  Uiso   1.00
C289   C     0.43159   0.51000   0.02481   0.00000  Uiso   1.00
C290   C     0.57627   0.37319   0.27396   0.00000  Uiso   1.00
C291   C     0.48421   0.48183   0.43930   0.00000  Uiso   1.00
C292   C     0.43050   0.37169   0.21377   0.00000  Uiso   1.00
C293   C     0.59621   0.54696   0.33166   0.00000  Uiso   1.00
C294   C     0.58286   0.40474   0.41523   0.00000  Uiso   1.00
C295   C     0.64023   0.43888   0.47810   0.00000  Uiso   1.00
C296   C     0.38269   0.54213   0.41558   0.00000  Uiso   1.00
C297   C     0.35333   0.54348   0.03613   0.00000  Uiso   1.00
C298   C     0.51394   0.48616   0.01431   0.00000  Uiso   1.00
C299   C     0.55448   0.46108   0.48558   0.00000  Uiso   1.00
C300   C     0.55396   0.44080   0.43755   0.00000  Uiso   1.00
C301   C     0.52049   0.45269   0.41372   0.00000  Uiso   1.00
C302   C     0.51190   0.50475   0.06316   0.00000  Uiso   1.00
C303   C     0.58420   0.47027   0.06133   0.00000  Uiso   1.00
H304   H     0.60994   0.46321   0.08112   0.00000  Uiso   1.00
H305   H     0.56606   0.56091   0.32446   0.00000  Uiso   1.00
H306   H     0.65945   0.42219   0.00004   0.00000  Uiso   1.00
H307   H     0.40003   0.56222   0.38131   0.00000  Uiso   1.00
H308   H     0.66527   0.56220   0.01905   0.00000  Uiso   1.00
H309   H     0.43940   0.62694   0.22246   0.00000  Uiso   1.00
H310   H     0.64618   0.46345   0.17823   0.00000  Uiso   1.00
H311   H     0.39716   0.46479   0.17709   0.00000  Uiso   1.00
H312   H     0.35560   0.53729   0.32008   0.00000  Uiso   1.00
H313   H     0.48425   0.52689   0.08373   0.00000  Uiso   1.00
H314   H     0.42118   0.51274   0.06856   0.00000  Uiso   1.00
H315   H     0.52156   0.43758   0.37613   0.00000  Uiso   1.00
H316   H     0.56291   0.62817   0.27383   0.00000  Uiso   1.00
N317   N     0.38093   0.50001   0.25002   0.00000  Uiso   1.00
N318   N     0.61906   0.49998   0.25000   0.00000  Uiso   1.00
N319   N     0.60797   0.38871   0.28319   0.00000  Uiso   1.00
N320   N     0.40180   0.38591   0.19840   0.00000  Uiso   1.00
N321   N     0.60575   0.37564   0.39776   0.00000  Uiso   1.00
O322   O     0.46179   0.56108   0.25000   0.00000  Uiso   1.00
O323   O     0.66054   0.44571   0.42967   0.00000  Uiso   1.00
O324   O     0.33932   0.53635   0.42960   0.00000  Uiso   1.00
O325   O     0.33906   0.53941   0.08559   0.00000  Uiso   1.00
O326   O     0.53823   0.56107   0.25000   0.00000  Uiso   1.00
O327   O     0.44280   0.50000   0.32681   0.00000  Uiso   1.00
O328   O     0.51924   0.49999   0.32681   0.00000  Uiso   1.00
O329   O     0.46177   0.43893   0.24999   0.00000  Uiso   1.00
O330   O     0.53821   0.43892   0.24999   0.00000  Uiso   1.00
O331   O     0.48076   0.50001   0.17319   0.00000  Uiso   1.00
O332   O     0.55720   0.50000   0.17319   0.00000  Uiso   1.00
O333   O     0.60115   0.55368   0.37548   0.00000  Uiso   1.00
Zn334  Zn    0.44896   0.50001   0.25000   0.00000  Uiso   1.00
Zn335  Zn    0.55104   0.49999   0.25000   0.00000  Uiso   1.00
C336   C     0.83342   0.57983   0.25008   0.00000  Uiso   1.00
C337   C     0.78838   0.49971   0.41257   0.00000  Uiso   1.00
C338   C     0.86925   0.64470   0.26265   0.00000  Uiso   1.00
C339   C     0.80638   0.49974   0.35255   0.00000  Uiso   1.00
C340   C     0.87032   0.35372   0.26166   0.00000  Uiso   1.00
C341   C     0.83438   0.37525   0.24785   0.00000  Uiso   1.00
C342   C     0.79937   0.35306   0.23281   0.00000  Uiso   1.00
C343   C     0.79936   0.64404   0.23417   0.00000  Uiso   1.00
C344   C     0.83381   0.62359   0.24939   0.00000  Uiso   1.00
C345   C     0.98799   0.47968   0.21015   0.00000  Uiso   1.00
C346   C     0.70264   0.48015   0.20981   0.00000  Uiso   1.00
C347   C     0.80984   0.49287   0.49337   0.00000  Uiso   1.00
C348   C     0.67922   0.52043   0.28955   0.00000  Uiso   1.00
C349   C     0.96468   0.52124   0.28956   0.00000  Uiso   1.00
C350   C     0.83358   0.41983   0.24916   0.00000  Uiso   1.00
C351   C     0.86016   0.49960   0.14770   0.00000  Uiso   1.00
C352   C     0.92525   0.45615   0.00812   0.00000  Uiso   1.00
C353   C     0.87662   0.49337   0.08908   0.00000  Uiso   1.00
C354   C     0.74538   0.52101   0.44339   0.00000  Uiso   1.00
C355   C     0.73220   0.52357   0.00075   0.00000  Uiso   1.00
C356   C     0.76492   0.51000   0.02481   0.00000  Uiso   1.00
C357   C     0.90960   0.37319   0.27396   0.00000  Uiso   1.00
C358   C     0.81754   0.48183   0.43930   0.00000  Uiso   1.00
C359   C     0.76384   0.37169   0.21377   0.00000  Uiso   1.00
C360   C     0.92954   0.54696   0.33166   0.00000  Uiso   1.00
C361   C     0.91619   0.40474   0.41523   0.00000  Uiso   1.00
C362   C     0.97356   0.43888   0.47810   0.00000  Uiso   1.00
C363   C     0.71602   0.54213   0.41558   0.00000  Uiso   1.00
C364   C     0.68666   0.54348   0.03613   0.00000  Uiso   1.00
C365   C     0.84728   0.48616   0.01431   0.00000  Uiso   1.00
C366   C     0.88781   0.46108   0.48558   0.00000  Uiso   1.00
C367   C     0.88730   0.44080   0.43755   0.00000  Uiso   1.00
C368   C     0.85382   0.45269   0.41372   0.00000  Uiso   1.00
C369   C     0.84524   0.50475   0.06316   0.00000  Uiso   1.00
C370   C     0.91753   0.47027   0.06133   0.00000  Uiso   1.00
H371   H     0.94327   0.46321   0.08112   0.00000  Uiso   1.00
H372   H     0.89940   0.56091   0.32446   0.00000  Uiso   1.00
H373   H     0.99278   0.42219   0.00004   0.00000  Uiso   1.00
H374   H     0.73336   0.56222   0.38131   0.00000  Uiso   1.00
H375   H     0.99860   0.56220   0.01905   0.00000  Uiso   1.00
H376   H     0.77274   0.62694   0.22246   0.00000  Uiso   1.00
H377   H     0.97952   0.46345   0.17823   0.00000  Uiso   1.00
H378   H     0.73049   0.46479   0.17709   0.00000  Uiso   1.00
H379   H     0.68893   0.53729   0.32008   0.00000  Uiso   1.00
H380   H     0.81758   0.52689   0.08373   0.00000  Uiso   1.00
H381   H     0.75451   0.51274   0.06856   0.00000  Uiso   1.00
H382   H     0.85489   0.43758   0.37613   0.00000  Uiso   1.00
H383   H     0.89624   0.62817   0.27383   0.00000  Uiso   1.00
N384   N     0.71426   0.50001   0.25002   0.00000  Uiso   1.00
N385   N     0.95239   0.49998   0.25000   0.00000  Uiso   1.00
N386   N     0.94131   0.38871   0.28319   0.00000  Uiso   1.00
N387   N     0.73513   0.38591   0.19840   0.00000  Uiso   1.00
N388   N     0.93908   0.37564   0.39776   0.00000  Uiso   1.00
O389   O     0.79512   0.56108   0.25000   0.00000  Uiso   1.00
O390   O     0.99388   0.44571   0.42967   0.00000  Uiso   1.00
O391   O     0.67266   0.53635   0.42960   0.00000  Uiso   1.00
O392   O     0.67240   0.53941   0.08559   0.00000  Uiso   1.00
O393   O     0.87157   0.56107   0.25000   0.00000  Uiso   1.00
O394   O     0.77613   0.50000   0.32681   0.00000  Uiso   1.00
O395   O     0.85258   0.49999   0.32681   0.00000  Uiso   1.00
O396   O     0.79510   0.43893   0.24999   0.00000  Uiso   1.00
O397   O     0.87154   0.43892   0.24999   0.00000  Uiso   1.00
O398   O     0.81409   0.50001   0.17319   0.00000  Uiso   1.00
O399   O     0.89053   0.50000   0.17319   0.00000  Uiso   1.00
O400   O     0.93448   0.55368   0.37548   0.00000  Uiso   1.00
Zn401  Zn    0.78229   0.50001   0.25000   0.00000  Uiso   1.00
Zn402  Zn    0.88438   0.49999   0.25000   0.00000  Uiso   1.00
C403   C     0.16675   0.91317   0.25008   0.00000  Uiso   1.00
C404   C     0.12172   0.83304   0.41257   0.00000  Uiso   1.00
C405   C     0.20258   0.97804   0.26265   0.00000  Uiso   1.00
C406   C     0.13971   0.83307   0.35255   0.00000  Uiso   1.00
C407   C     0.20365   0.68705   0.26166   0.00000  Uiso   1.00
C408   C     0.16771   0.70859   0.24785   0.00000  Uiso   1.00
C409   C     0.13271   0.68639   0.23281   0.00000  Uiso   1.00
C410   C     0.13269   0.97738   0.23417   0.00000  Uiso   1.00
C411   C     0.16714   0.95692   0.24939   0.00000  Uiso   1.00
C412   C     0.32133   0.81301   0.21015   0.00000  Uiso   1.00
C413   C     0.03597   0.81349   0.20981   0.00000  Uiso   1.00
C414   C     0.14317   0.82621   0.49337   0.00000  Uiso   1.00
C415   C     0.01255   0.85376   0.28955   0.00000  Uiso   1.00
C416   C     0.29801   0.85458   0.28956   0.00000  Uiso   1.00
C417   C     0.16692   0.75316   0.24916   0.00000  Uiso   1.00
C418   C     0.19349   0.83293   0.14770   0.00000  Uiso   1.00
C419   C     0.25859   0.78948   0.00812   0.00000  Uiso   1.00
C420   C     0.20995   0.82671   0.08908   0.00000  Uiso   1.00
C421   C     0.07871   0.85434   0.44339   0.00000  Uiso   1.00
C422   C     0.06553   0.85690   0.00075   0.00000  Uiso   1.00
C423   C     0.09825   0.84333   0.02481   0.00000  Uiso   1.00
C424   C     0.24293   0.70653   0.27396   0.00000  Uiso   1.00
C425   C     0.15087   0.81516   0.43930   0.00000  Uiso   1.00
C426   C     0.09717   0.70502   0.21377   0.00000  Uiso   1.00
C427   C     0.26288   0.88029   0.33166   0.00000  Uiso   1.00
C428   C     0.24952   0.73808   0.41523   0.00000  Uiso   1.00
C429   C     0.30690   0.77221   0.47810   0.00000  Uiso   1.00
C430   C     0.04936   0.87546   0.41558   0.00000  Uiso   1.00
C431   C     0.01999   0.87682   0.03613   0.00000  Uiso   1.00
C432   C     0.18061   0.81949   0.01431   0.00000  Uiso   1.00
C433   C     0.22115   0.79441   0.48558   0.00000  Uiso   1.00
C434   C     0.22063   0.77414   0.43755   0.00000  Uiso   1.00
C435   C     0.18716   0.78602   0.41372   0.00000  Uiso   1.00
C436   C     0.17857   0.83809   0.06316   0.00000  Uiso   1.00
C437   C     0.25086   0.80360   0.06133   0.00000  Uiso   1.00
H438   H     0.27661   0.79655   0.08112   0.00000  Uiso   1.00
H439   H     0.23273   0.89424   0.32446   0.00000  Uiso   1.00
H440   H     0.32612   0.75552   0.00004   0.00000  Uiso   1.00
H441   H     0.06669   0.89555   0.38131   0.00000  Uiso   1.00
H442   H     0.33194   0.89553   0.01905   0.00000  Uiso   1.00
H443   H     0.10607   0.96027   0.22246   0.00000  Uiso   1.00
H444   H     0.31285   0.79678   0.17823   0.00000  Uiso   1.00
H445   H     0.06382   0.79812   0.17709   0.00000  Uiso   1.00
H446   H     0.02227   0.87063   0.32008   0.00000  Uiso   1.00
H447   H     0.15092   0.86022   0.08373   0.00000  Uiso   1.00
H448   H     0.08785   0.84607   0.06856   0.00000  Uiso   1.00
H449   H     0.18823   0.77092   0.37613   0.00000  Uiso   1.00
H450   H     0.22957   0.96150   0.27383   0.00000  Uiso   1.00
N451   N     0.04760   0.83334   0.25002   0.00000  Uiso   1.00
N452   N     0.28573   0.83331   0.25000   0.00000  Uiso   1.00
N453   N     0.27464   0.72204   0.28319   0.00000  Uiso   1.00
N454   N     0.06847   0.71924   0.19840   0.00000  Uiso   1.00
N455   N     0.27241   0.70897   0.39776   0.00000  Uiso   1.00
O456   O     0.12846   0.89442   0.25000   0.00000  Uiso   1.00
O457   O     0.32721   0.77904   0.42967   0.00000  Uiso   1.00
O458   O     0.00599   0.86968   0.42960   0.00000  Uiso   1.00
O459   O     0.00573   0.87274   0.08559   0.00000  Uiso   1.00
O460   O     0.20490   0.89441   0.25000   0.00000  Uiso   1.00
O461   O     0.10947   0.83333   0.32681   0.00000  Uiso   1.00
O462   O     0.18591   0.83332   0.32681   0.00000  Uiso   1.00
O463   O     0.12843   0.77226   0.24999   0.00000  Uiso   1.00
O464   O     0.20488   0.77225   0.24999   0.00000  Uiso   1.00
O465   O     0.14742   0.83335   0.17319   0.00000  Uiso   1.00
O466   O     0.22387   0.83334   0.17319   0.00000  Uiso   1.00
O467   O     0.26781   0.88702   0.37548   0.00000  Uiso   1.00
Zn468  Zn    0.11562   0.83334   0.25000   0.00000  Uiso   1.00
Zn469  Zn    0.21771   0.83333   0.25000   0.00000  Uiso   1.00
C470   C     0.50009   0.91317   0.25008   0.00000  Uiso   1.00
C471   C     0.45505   0.83304   0.41257   0.00000  Uiso   1.00
C472   C     0.53591   0.97804   0.26265   0.00000  Uiso   1.00
C473   C     0.47305   0.83307   0.35255   0.00000  Uiso   1.00
C474   C     0.53698   0.68705   0.26166   0.00000  Uiso   1.00
C475   C     0.50105   0.70859   0.24785   0.00000  Uiso   1.00
C476   C     0.46604   0.68639   0.23281   0.00000  Uiso   1.00
C477   C     0.46603   0.97738   0.23417   0.00000  Uiso   1.00
C478   C     0.50048   0.95692   0.24939   0.00000  Uiso   1.00
C479   C     0.65466   0.81301   0.21015   0.00000  Uiso   1.00
C480   C     0.36930   0.81349   0.20981   0.00000  Uiso   1.00
C481   C     0.47651   0.82621   0.49337   0.00000  Uiso   1.00
C482   C     0.34589   0.85376   0.28955   0.00000  Uiso   1.00
C483   C     0.63135   0.85458   0.28956   0.00000  Uiso   1.00
C484   C     0.50025   0.75316   0.24916   0.00000  Uiso   1.00
C485   C     0.52682   0.83293   0.14770   0.00000  Uiso   1.00
C486   C     0.59192   0.78948   0.00812   0.00000  Uiso   1.00
C487   C     0.54329   0.82671   0.08908   0.00000  Uiso   1.00
C488   C     0.41205   0.85434   0.44339   0.00000  Uiso   1.00
C489   C     0.39887   0.85690   0.00075   0.00000  Uiso   1.00
C490   C     0.43159   0.84333   0.02481   0.00000  Uiso   1.00
C491   C     0.57627   0.70653   0.27396   0.00000  Uiso   1.00
C492   C     0.48421   0.81516   0.43930   0.00000  Uiso   1.00
C493   C     0.43050   0.70502   0.21377   0.00000  Uiso   1.00
C494   C     0.59621   0.88029   0.33166   0.00000  Uiso   1.00
C495   C     0.58286   0.73808   0.41523   0.00000  Uiso   1.00
C496   C     0.64023   0.77221   0.47810   0.00000  Uiso   1.00
C497   C     0.38269   0.87546   0.41558   0.00000  Uiso   1.00
C498   C     0.35333   0.87682   0.03613   0.00000  Uiso   1.00
C499   C     0.51394   0.81949   0.01431   0.00000  Uiso   1.00
C500   C     0.55448   0.79441   0.48558   0.00000  Uiso   1.00
C501   C     0.55396   0.77414   0.43755   0.00000  Uiso   1.00
C502   C     0.52049   0.78602   0.41372   0.00000  Uiso   1.00
C503   C     0.51190   0.83809   0.06316   0.00000  Uiso   1.00
C504   C     0.58420   0.80360   0.06133   0.00000  Uiso   1.00
H505   H     0.60994   0.79655   0.08112   0.00000  Uiso   1.00
H506   H     0.56606   0.89424   0.32446   0.00000  Uiso   1.00
H507   H     0.65945   0.75552   0.00004   0.00000  Uiso   1.00
H508   H     0.40003   0.89555   0.38131   0.00000  Uiso   1.00
H509   H     0.66527   0.89553   0.01905   0.00000  Uiso   1.00
H510   H     0.43940   0.96027   0.22246   0.00000  Uiso   1.00
H511   H     0.64618   0.79678   0.17823   0.00000  Uiso   1.00
H512   H     0.39716   0.79812   0.17709   0.00000  Uiso   1.00
H513   H     0.35560   0.87063   0.32008   0.00000  Uiso   1.00
H514   H     0.48425   0.86022   0.08373   0.00000  Uiso   1.00
H515   H     0.42118   0.84607   0.06856   0.00000  Uiso   1.00
H516   H     0.52156   0.77092   0.37613   0.00000  Uiso   1.00
H517   H     0.56291   0.96150   0.27383   0.00000  Uiso   1.00
N518   N     0.38093   0.83334   0.25002   0.00000  Uiso   1.00
N519   N     0.61906   0.83331   0.25000   0.00000  Uiso   1.00
N520   N     0.60797   0.72204   0.28319   0.00000  Uiso   1.00
N521   N     0.40180   0.71924   0.19840   0.00000  Uiso   1.00
N522   N     0.60575   0.70897   0.39776   0.00000  Uiso   1.00
O523   O     0.46179   0.89442   0.25000   0.00000  Uiso   1.00
O524   O     0.66054   0.77904   0.42967   0.00000  Uiso   1.00
O525   O     0.33932   0.86968   0.42960   0.00000  Uiso   1.00
O526   O     0.33906   0.87274   0.08559   0.00000  Uiso   1.00
O527   O     0.53823   0.89441   0.25000   0.00000  Uiso   1.00
O528   O     0.44280   0.83333   0.32681   0.00000  Uiso   1.00
O529   O     0.51924   0.83332   0.32681   0.00000  Uiso   1.00
O530   O     0.46177   0.77226   0.24999   0.00000  Uiso   1.00
O531   O     0.53821   0.77225   0.24999   0.00000  Uiso   1.00
O532   O     0.48076   0.83335   0.17319   0.00000  Uiso   1.00
O533   O     0.55720   0.83334   0.17319   0.00000  Uiso   1.00
O534   O     0.60115   0.88702   0.37548   0.00000  Uiso   1.00
Zn535  Zn    0.44896   0.83334   0.25000   0.00000  Uiso   1.00
Zn536  Zn    0.55104   0.83333   0.25000   0.00000  Uiso   1.00
C537   C     0.83342   0.91317   0.25008   0.00000  Uiso   1.00
C538   C     0.78838   0.83304   0.41257   0.00000  Uiso   1.00
C539   C     0.86925   0.97804   0.26265   0.00000  Uiso   1.00
C540   C     0.80638   0.83307   0.35255   0.00000  Uiso   1.00
C541   C     0.87032   0.68705   0.26166   0.00000  Uiso   1.00
C542   C     0.83438   0.70859   0.24785   0.00000  Uiso   1.00
C543   C     0.79937   0.68639   0.23281   0.00000  Uiso   1.00
C544   C     0.79936   0.97738   0.23417   0.00000  Uiso   1.00
C545   C     0.83381   0.95692   0.24939   0.00000  Uiso   1.00
C546   C     0.98799   0.81301   0.21015   0.00000  Uiso   1.00
C547   C     0.70264   0.81349   0.20981   0.00000  Uiso   1.00
C548   C     0.80984   0.82621   0.49337   0.00000  Uiso   1.00
C549   C     0.67922   0.85376   0.28955   0.00000  Uiso   1.00
C550   C     0.96468   0.85458   0.28956   0.00000  Uiso   1.00
C551   C     0.83358   0.75316   0.24916   0.00000  Uiso   1.00
C552   C     0.86016   0.83293   0.14770   0.00000  Uiso   1.00
C553   C     0.92525   0.78948   0.00812   0.00000  Uiso   1.00
C554   C     0.87662   0.82671   0.08908   0.00000  Uiso   1.00
C555   C     0.74538   0.85434   0.44339   0.00000  Uiso   1.00
C556   C     0.73220   0.85690   0.00075   0.00000  Uiso   1.00
C557   C     0.76492   0.84333   0.02481   0.00000  Uiso   1.00
C558   C     0.90960   0.70653   0.27396   0.00000  Uiso   1.00
C559   C     0.81754   0.81516   0.43930   0.00000  Uiso   1.00
C560   C     0.76384   0.70502   0.21377   0.00000  Uiso   1.00
C561   C     0.92954   0.88029   0.33166   0.00000  Uiso   1.00
C562   C     0.91619   0.73808   0.41523   0.00000  Uiso   1.00
C563   C     0.97356   0.77221   0.47810   0.00000  Uiso   1.00
C564   C     0.71602   0.87546   0.41558   0.00000  Uiso   1.00
C565   C     0.68666   0.87682   0.03613   0.00000  Uiso   1.00
C566   C     0.84728   0.81949   0.01431   0.00000  Uiso   1.00
C567   C     0.88781   0.79441   0.48558   0.00000  Uiso   1.00
C568   C     0.88730   0.77414   0.43755   0.00000  Uiso   1.00
C569   C     0.85382   0.78602   0.41372   0.00000  Uiso   1.00
C570   C     0.84524   0.83809   0.06316   0.00000  Uiso   1.00
C571   C     0.91753   0.80360   0.06133   0.00000  Uiso   1.00
H572   H     0.94327   0.79655   0.08112   0.00000  Uiso   1.00
H573   H     0.89940   0.89424   0.32446   0.00000  Uiso   1.00
H574   H     0.99278   0.75552   0.00004   0.00000  Uiso   1.00
H575   H     0.73336   0.89555   0.38131   0.00000  Uiso   1.00
H576   H     0.99860   0.89553   0.01905   0.00000  Uiso   1.00
H577   H     0.77274   0.96027   0.22246   0.00000  Uiso   1.00
H578   H     0.97952   0.79678   0.17823   0.00000  Uiso   1.00
H579   H     0.73049   0.79812   0.17709   0.00000  Uiso   1.00
H580   H     0.68893   0.87063   0.32008   0.00000  Uiso   1.00
H581   H     0.81758   0.86022   0.08373   0.00000  Uiso   1.00
H582   H     0.75451   0.84607   0.06856   0.00000  Uiso   1.00
H583   H     0.85489   0.77092   0.37613   0.00000  Uiso   1.00
H584   H     0.89624   0.96150   0.27383   0.00000  Uiso   1.00
N585   N     0.71426   0.83334   0.25002   0.00000  Uiso   1.00
N586   N     0.95239   0.83331   0.25000   0.00000  Uiso   1.00
N587   N     0.94131   0.72204   0.28319   0.00000  Uiso   1.00
N588   N     0.73513   0.71924   0.19840   0.00000  Uiso   1.00
N589   N     0.93908   0.70897   0.39776   0.00000  Uiso   1.00
O590   O     0.79512   0.89442   0.25000   0.00000  Uiso   1.00
O591   O     0.99388   0.77904   0.42967   0.00000  Uiso   1.00
O592   O     0.67266   0.86968   0.42960   0.00000  Uiso   1.00
O593   O     0.67240   0.87274   0.08559   0.00000  Uiso   1.00
O594   O     0.87157   0.89441   0.25000   0.00000  Uiso   1.00
O595   O     0.77613   0.83333   0.32681   0.00000  Uiso   1.00
O596   O     0.85258   0.83332   0.32681   0.00000  Uiso   1.00
O597   O     0.79510   0.77226   0.24999   0.00000  Uiso   1.00
O598   O     0.87154   0.77225   0.24999   0.00000  Uiso   1.00
O599   O     0.81409   0.83335   0.17319   0.00000  Uiso   1.00
O600   O     0.89053   0.83334   0.17319   0.00000  Uiso   1.00
O601   O     0.93448   0.88702   0.37548   0.00000  Uiso   1.00
Zn602  Zn    0.78229   0.83334   0.25000   0.00000  Uiso   1.00
Zn603  Zn    0.88438   0.83333   0.25000   0.00000  Uiso   1.00
C604   C     0.16675   0.24650   0.75008   0.00000  Uiso   1.00
C605   C     0.12172   0.16637   0.91257   0.00000  Uiso   1.00
C606   C     0.20258   0.31137   0.76265   0.00000  Uiso   1.00
C607   C     0.13971   0.16641   0.85255   0.00000  Uiso   1.00
C608   C     0.20365   0.02038   0.76166   0.00000  Uiso   1.00
C609   C     0.16771   0.04192   0.74785   0.00000  Uiso   1.00
C610   C     0.13271   0.01972   0.73281   0.00000  Uiso   1.00
C611   C     0.13269   0.31071   0.73417   0.00000  Uiso   1.00
C612   C     0.16714   0.29025   0.74939   0.00000  Uiso   1.00
C613   C     0.32133   0.14635   0.71015   0.00000  Uiso   1.00
C614   C     0.03597   0.14682   0.70981   0.00000  Uiso   1.00
C615   C     0.14317   0.15954   0.99337   0.00000  Uiso   1.00
C616   C     0.01255   0.18709   0.78955   0.00000  Uiso   1.00
C617   C     0.29801   0.18791   0.78956   0.00000  Uiso   1.00
C618   C     0.16692   0.08650   0.74916   0.00000  Uiso   1.00
C619   C     0.19349   0.16626   0.64770   0.00000  Uiso   1.00
C620   C     0.25859   0.12282   0.50812   0.00000  Uiso   1.00
C621   C     0.20995   0.16004   0.58908   0.00000  Uiso   1.00
C622   C     0.07871   0.18768   0.94339   0.00000  Uiso   1.00
C623   C     0.06553   0.19023   0.50075   0.00000  Uiso   1.00
C624   C     0.09825   0.17667   0.52481   0.00000  Uiso   1.00
C625   C     0.24293   0.03986   0.77396   0.00000  Uiso   1.00
C626   C     0.15087   0.14850   0.93930   0.00000  Uiso   1.00
C627   C     0.09717   0.03836   0.71377   0.00000  Uiso   1.00
C628   C     0.26288   0.21363   0.83166   0.00000  Uiso   1.00
C629   C     0.24952   0.07141   0.91523   0.00000  Uiso   1.00
C630   C     0.30690   0.10555   0.97810   0.00000  Uiso   1.00
C631   C     0.04936   0.20879   0.91558   0.00000  Uiso   1.00
C632   C     0.01999   0.21015   0.53613   0.00000  Uiso   1.00
C633   C     0.18061   0.15282   0.51431   0.00000  Uiso   1.00
C634   C     0.22115   0.12775   0.98558   0.00000  Uiso   1.00
C635   C     0.22063   0.10747   0.93755   0.00000  Uiso   1.00
C636   C     0.18716   0.11935   0.91372   0.00000  Uiso   1.00
C637   C     0.17857   0.17142   0.56316   0.00000  Uiso   1.00
C638   C     0.25086   0.13693   0.56133   0.00000  Uiso   1.00
H639   H     0.27661   0.12988   0.58112   0.00000  Uiso   1.00
H640   H     0.23273   0.22757   0.82446   0.00000  Uiso   1.00
H641   H     0.32612   0.08886   0.50004   0.00000  Uiso   1.00
H642   H     0.06669   0.22889   0.88131   0.00000  Uiso   1.00
H643   H     0.33194   0.22886   0.51905   0.00000  Uiso   1.00
H644   H     0.10607   0.29360   0.72246   0.00000  Uiso   1.00
H645   H     0.31285   0.13011   0.67823   0.00000  Uiso   1.00
H646   H     0.06382   0.13146   0.67709   0.00000  Uiso   1.00
H647   H     0.02227   0.20396   0.82008   0.00000  Uiso   1.00
H648   H     0.15092   0.19356   0.58373   0.00000  Uiso   1.00
H649   H     0.08785   0.17941   0.56856   0.00000  Uiso   1.00
H650   H     0.18823   0.10425   0.87613   0.00000  Uiso   1.00
H651   H     0.22957   0.29483   0.77383   0.00000  Uiso   1.00
N652   N     0.04760   0.16668   0.75002   0.00000  Uiso   1.00
N653   N     0.28573   0.16665   0.75000   0.00000  Uiso   1.00
N654   N     0.27464   0.05537   0.78319   0.00000  Uiso   1.00
N655   N     0.06847   0.05257   0.69840   0.00000  Uiso   1.00
N656   N     0.27241   0.04230   0.89776   0.00000  Uiso   1.00
O657   O     0.12846   0.22775   0.75000   0.00000  Uiso   1.00
O658   O     0.32721   0.11238   0.92967   0.00000  Uiso   1.00
O659   O     0.00599   0.20301   0.92960   0.00000  Uiso   1.00
O660   O     0.00573   0.20607   0.58559   0.00000  Uiso   1.00
O661   O     0.20490   0.22774   0.75000   0.00000  Uiso   1.00
O662   O     0.10947   0.16666   0.82681   0.00000  Uiso   1.00
O663   O     0.18591   0.16665   0.82681   0.00000  Uiso   1.00
O664   O     0.12843   0.10559   0.74999   0.00000  Uiso   1.00
O665   O     0.20488   0.10558   0.74999   0.00000  Uiso   1.00
O666   O     0.14742   0.16668   0.67319   0.00000  Uiso   1.00
O667   O     0.22387   0.16667   0.67319   0.00000  Uiso   1.00
O668   O     0.26781   0.22035   0.87548   0.00000  Uiso   1.00
Zn669  Zn    0.11562   0.16667   0.75000   0.00000  Uiso   1.00
Zn670  Zn    0.21771   0.16666   0.75000   0.00000  Uiso   1.00
C671   C     0.50009   0.24650   0.75008   0.00000  Uiso   1.00
C672   C     0.45505   0.16637   0.91257   0.00000  Uiso   1.00
C673   C     0.53591   0.31137   0.76265   0.00000  Uiso   1.00
C674   C     0.47305   0.16641   0.85255   0.00000  Uiso   1.00
C675   C     0.53698   0.02038   0.76166   0.00000  Uiso   1.00
C676   C     0.50105   0.04192   0.74785   0.00000  Uiso   1.00
C677   C     0.46604   0.01972   0.73281   0.00000  Uiso   1.00
C678   C     0.46603   0.31071   0.73417   0.00000  Uiso   1.00
C679   C     0.50048   0.29025   0.74939   0.00000  Uiso   1.00
C680   C     0.65466   0.14635   0.71015   0.00000  Uiso   1.00
C681   C     0.36930   0.14682   0.70981   0.00000  Uiso   1.00
C682   C     0.47651   0.15954   0.99337   0.00000  Uiso   1.00
C683   C     0.34589   0.18709   0.78955   0.00000  Uiso   1.00
C684   C     0.63135   0.18791   0.78956   0.00000  Uiso   1.00
C685   C     0.50025   0.08650   0.74916   0.00000  Uiso   1.00
C686   C     0.52682   0.16626   0.64770   0.00000  Uiso   1.00
C687   C     0.59192   0.12282   0.50812   0.00000  Uiso   1.00
C688   C     0.54329   0.16004   0.58908   0.00000  Uiso   1.00
C689   C     0.41205   0.18768   0.94339   0.00000  Uiso   1.00
C690   C     0.39887   0.19023   0.50075   0.00000  Uiso   1.00
C691   C     0.43159   0.17667   0.52481   0.00000  Uiso   1.00
C692   C     0.57627   0.03986   0.77396   0.00000  Uiso   1.00
C693   C     0.48421   0.14850   0.93930   0.00000  Uiso   1.00
C694   C     0.43050   0.03836   0.71377   0.00000  Uiso   1.00
C695   C     0.59621   0.21363   0.83166   0.00000  Uiso   1.00
C696   C     0.58286   0.07141   0.91523   0.00000  Uiso   1.00
C697   C     0.64023   0.10555   0.97810   0.00000  Uiso   1.00
C698   C     0.38269   0.20879   0.91558   0.00000  Uiso   1.00
C699   C     0.35333   0.21015   0.53613   0.00000  Uiso   1.00
C700   C     0.51394   0.15282   0.51431   0.00000  Uiso   1.00
C701   C     0.55448   0.12775   0.98558   0.00000  Uiso   1.00
C702   C     0.55396   0.10747   0.93755   0.00000  Uiso   1.00
C703   C     0.52049   0.11935   0.91372   0.00000  Uiso   1.00
C704   C     0.51190   0.17142   0.56316   0.00000  Uiso   1.00
C705   C     0.58420   0.13693   0.56133   0.00000  Uiso   1.00
H706   H     0.60994   0.12988   0.58112   0.00000  Uiso   1.00
H707   H     0.56606   0.22757   0.82446   0.00000  Uiso   1.00
H708   H     0.65945   0.08886   0.50004   0.00000  Uiso   1.00
H709   H     0.40003   0.22889   0.88131   0.00000  Uiso   1.00
H710   H     0.66527   0.22886   0.51905   0.00000  Uiso   1.00
H711   H     0.43940   0.29360   0.72246   0.00000  Uiso   1.00
H712   H     0.64618   0.13011   0.67823   0.00000  Uiso   1.00
H713   H     0.39716   0.13146   0.67709   0.00000  Uiso   1.00
H714   H     0.35560   0.20396   0.82008   0.00000  Uiso   1.00
H715   H     0.48425   0.19356   0.58373   0.00000  Uiso   1.00
H716   H     0.42118   0.17941   0.56856   0.00000  Uiso   1.00
H717   H     0.52156   0.10425   0.87613   0.00000  Uiso   1.00
H718   H     0.56291   0.29483   0.77383   0.00000  Uiso   1.00
N719   N     0.38093   0.16668   0.75002   0.00000  Uiso   1.00
N720   N     0.61906   0.16665   0.75000   0.00000  Uiso   1.00
N721   N     0.60797   0.05537   0.78319   0.00000  Uiso   1.00
N722   N     0.40180   0.05257   0.69840   0.00000  Uiso   1.00
N723   N     0.60575   0.04230   0.89776   0.00000  Uiso   1.00
O724   O     0.46179   0.22775   0.75000   0.00000  Uiso   1.00
O725   O     0.66054   0.11238   0.92967   0.00000  Uiso   1.00
O726   O     0.33932   0.20301   0.92960   0.00000  Uiso   1.00
O727   O     0.33906   0.20607   0.58559   0.00000  Uiso   1.00
O728   O     0.53823   0.22774   0.75000   0.00000  Uiso   1.00
O729   O     0.44280   0.16666   0.82681   0.00000  Uiso   1.00
O730   O     0.51924   0.16665   0.82681   0.00000  Uiso   1.00
O731   O     0.46177   0.10559   0.74999   0.00000  Uiso   1.00
O732   O     0.53821   0.10558   0.74999   0.00000  Uiso   1.00
O733   O     0.48076   0.16668   0.67319   0.00000  Uiso   1.00
O734   O     0.55720   0.16667   0.67319   0.00000  Uiso   1.00
O735   O     0.60115   0.22035   0.87548   0.00000  Uiso   1.00
Zn736  Zn    0.44896   0.16667   0.75000   0.00000  Uiso   1.00
Zn737  Zn    0.55104   0.16666   0.75000   0.00000  Uiso   1.00
C738   C     0.83342   0.24650   0.75008   0.00000  Uiso   1.00
C739   C     0.78838   0.16637   0.91257   0.00000  Uiso   1.00
C740   C     0.86925   0.31137   0.76265   0.00000  Uiso   1.00
C741   C     0.80638   0.16641   0.85255   0.00000  Uiso   1.00
C742   C     0.87032   0.02038   0.76166   0.00000  Uiso   1.00
C743   C     0.83438   0.04192   0.74785   0.00000  Uiso   1.00
C744   C     0.79937   0.01972   0.73281   0.00000  Uiso   1.00
C745   C     0.79936   0.31071   0.73417   0.00000  Uiso   1.00
C746   C     0.83381   0.29025   0.74939   0.00000  Uiso   1.00
C747   C     0.98799   0.14635   0.71015   0.00000  Uiso   1.00
C748   C     0.70264   0.14682   0.70981   0.00000  Uiso   1.00
C749   C     0.80984   0.15954   0.99337   0.00000  Uiso   1.00
C750   C     0.67922   0.18709   0.78955   0.00000  Uiso   1.00
C751   C     0.96468   0.18791   0.78956   0.00000  Uiso   1.00
C752   C     0.83358   0.08650   0.74916   0.00000  Uiso   1.00
C753   C     0.86016   0.16626   0.64770   0.00000  Uiso   1.00
C754   C     0.92525   0.12282   0.50812   0.00000  Uiso   1.00
C755   C     0.87662   0.16004   0.58908   0.00000  Uiso   1.00
C756   C     0.74538   0.18768   0.94339   0.00000  Uiso   1.00
C757   C     0.73220   0.19023   0.50075   0.00000  Uiso   1.00
C758   C     0.76492   0.17667   0.52481   0.00000  Uiso   1.00
C759   C     0.90960   0.03986   0.77396   0.00000  Uiso   1.00
C760   C     0.81754   0.14850   0.93930   0.00000  Uiso   1.00
C761   C     0.76384   0.03836   0.71377   0.00000  Uiso   1.00
C762   C     0.92954   0.21363   0.83166   0.00000  Uiso   1.00
C763   C     0.91619   0.07141   0.91523   0.00000  Uiso   1.00
C764   C     0.97356   0.10555   0.97810   0.00000  Uiso   1.00
C765   C     0.71602   0.20879   0.91558   0.00000  Uiso   1.00
C766   C     0.68666   0.21015   0.53613   0.00000  Uiso   1.00
C767   C     0.84728   0.15282   0.51431   0.00000  Uiso   1.00
C768   C     0.88781   0.12775   0.98558   0.00000  Uiso   1.00
C769   C     0.88730   0.10747   0.93755   0.00000  Uiso   1.00
C770   C     0.85382   0.11935   0.91372   0.00000  Uiso   1.00
C771   C     0.84524   0.17142   0.56316   0.00000  Uiso   1.00
C772   C     0.91753   0.13693   0.56133   0.00000  Uiso   1.00
H773   H     0.94327   0.12988   0.58112   0.00000  Uiso   1.00
H774   H     0.89940   0.22757   0.82446   0.00000  Uiso   1.00
H775   H     0.99278   0.08886   0.50004   0.00000  Uiso   1.00
H776   H     0.73336   0.22889   0.88131   0.00000  Uiso   1.00
H777   H     0.99860   0.22886   0.51905   0.00000  Uiso   1.00
H778   H     0.77274   0.29360   0.72246   0.00000  Uiso   1.00
H779   H     0.97952   0.13011   0.67823   0.00000  Uiso   1.00
H780   H     0.73049   0.13146   0.67709   0.00000  Uiso   1.00
H781   H     0.68893   0.20396   0.82008   0.00000  Uiso   1.00
H782   H     0.81758   0.19356   0.58373   0.00000  Uiso   1.00
H783   H     0.75451   0.17941   0.56856   0.00000  Uiso   1.00
H784   H     0.85489   0.10425   0.87613   0.00000  Uiso   1.00
H785   H     0.89624   0.29483   0.77383   0.00000  Uiso   1.00
N786   N     0.71426   0.16668   0.75002   0.00000  Uiso   1.00
N787   N     0.95239   0.16665   0.75000   0.00000  Uiso   1.00
N788   N     0.94131   0.05537   0.78319   0.00000  Uiso   1.00
N789   N     0.73513   0.05257   0.69840   0.00000  Uiso   1.00
N790   N     0.93908   0.04230   0.89776   0.00000  Uiso   1.00
O791   O     0.79512   0.22775   0.75000   0.00000  Uiso   1.00
O792   O     0.99388   0.11238   0.92967   0.00000  Uiso   1.00
O793   O     0.67266   0.20301   0.92960   0.00000  Uiso   1.00
O794   O     0.67240   0.20607   0.58559   0.00000  Uiso   1.00
O795   O     0.87157   0.22774   0.75000   0.00000  Uiso   1.00
O796   O     0.77613   0.16666   0.82681   0.00000  Uiso   1.00
O797   O     0.85258   0.16665   0.82681   0.00000  Uiso   1.00
O798   O     0.79510   0.10559   0.74999   0.00000  Uiso   1.00
O799   O     0.87154   0.10558   0.74999   0.00000  Uiso   1.00
O800   O     0.81409   0.16668   0.67319   0.00000  Uiso   1.00
O801   O     0.89053   0.16667   0.67319   0.00000  Uiso   1.00
O802   O     0.93448   0.22035   0.87548   0.00000  Uiso   1.00
Zn803  Zn    0.78229   0.16667   0.75000   0.00000  Uiso   1.00
Zn804  Zn    0.88438   0.16666   0.75000   0.00000  Uiso   1.00
C805   C     0.16675   0.57983   0.75008   0.00000  Uiso   1.00
C806   C     0.12172   0.49971   0.91257   0.00000  Uiso   1.00
C807   C     0.20258   0.64470   0.76265   0.00000  Uiso   1.00
C808   C     0.13971   0.49974   0.85255   0.00000  Uiso   1.00
C809   C     0.20365   0.35372   0.76166   0.00000  Uiso   1.00
C810   C     0.16771   0.37525   0.74785   0.00000  Uiso   1.00
C811   C     0.13271   0.35306   0.73281   0.00000  Uiso   1.00
C812   C     0.13269   0.64404   0.73417   0.00000  Uiso   1.00
C813   C     0.16714   0.62359   0.74939   0.00000  Uiso   1.00
C814   C     0.32133   0.47968   0.71015   0.00000  Uiso   1.00
C815   C     0.03597   0.48015   0.70981   0.00000  Uiso   1.00
C816   C     0.14317   0.49287   0.99337   0.00000  Uiso   1.00
C817   C     0.01255   0.52043   0.78955   0.00000  Uiso   1.00
C818   C     0.29801   0.52124   0.78956   0.00000  Uiso   1.00
C819   C     0.16692   0.41983   0.74916   0.00000  Uiso   1.00
C820   C     0.19349   0.49960   0.64770   0.00000  Uiso   1.00
C821   C     0.25859   0.45615   0.50812   0.00000  Uiso   1.00
C822   C     0.20995   0.49337   0.58908   0.00000  Uiso   1.00
C823   C     0.07871   0.52101   0.94339   0.00000  Uiso   1.00
C824   C     0.06553   0.52357   0.50075   0.00000  Uiso   1.00
C825   C     0.09825   0.51000   0.52481   0.00000  Uiso   1.00
C826   C     0.24293   0.37319   0.77396   0.00000  Uiso   1.00
C827   C     0.15087   0.48183   0.93930   0.00000  Uiso   1.00
C828   C     0.09717   0.37169   0.71377   0.00000  Uiso   1.00
C829   C     0.26288   0.54696   0.83166   0.00000  Uiso   1.00
C830   C     0.24952   0.40474   0.91523   0.00000  Uiso   1.00
C831   C     0.30690   0.43888   0.97810   0.00000  Uiso   1.00
C832   C     0.04936   0.54213   0.91558   0.00000  Uiso   1.00
C833   C     0.01999   0.54348   0.53613   0.00000  Uiso   1.00
C834   C     0.18061   0.48616   0.51431   0.00000  Uiso   1.00
C835   C     0.22115   0.46108   0.98558   0.00000  Uiso   1.00
C836   C     0.22063   0.44080   0.93755   0.00000  Uiso   1.00
C837   C     0.18716   0.45269   0.91372   0.00000  Uiso   1.00
C838   C     0.17857   0.50475   0.56316   0.00000  Uiso   1.00
C839   C     0.25086   0.47027   0.56133   0.00000  Uiso   1.00
H840   H     0.27661   0.46321   0.58112   0.00000  Uiso   1.00
H841   H     0.23273   0.56091   0.82446   0.00000  Uiso   1.00
H842   H     0.32612   0.42219   0.50004   0.00000  Uiso   1.00
H843   H     0.06669   0.56222   0.88131   0.00000  Uiso   1.00
H844   H     0.33194   0.56220   0.51905   0.00000  Uiso   1.00
H845   H     0.10607   0.62694   0.72246   0.00000  Uiso   1.00
H846   H     0.31285   0.46345   0.67823   0.00000  Uiso   1.00
H847   H     0.06382   0.46479   0.67709   0.00000  Uiso   1.00
H848   H     0.02227   0.53729   0.82008   0.00000  Uiso   1.00
H849   H     0.15092   0.52689   0.58373   0.00000  Uiso   1.00
H850   H     0.08785   0.51274   0.56856   0.00000  Uiso   1.00
H851   H     0.18823   0.43758   0.87613   0.00000  Uiso   1.00
H852   H     0.22957   0.62817   0.77383   0.00000  Uiso   1.00
N853   N     0.04760   0.50001   0.75002   0.00000  Uiso   1.00
N854   N     0.28573   0.49998   0.75000   0.00000  Uiso   1.00
N855   N     0.27464   0.38871   0.78319   0.00000  Uiso   1.00
N856   N     0.06847   0.38591   0.69840   0.00000  Uiso   1.00
N857   N     0.27241   0.37564   0.89776   0.00000  Uiso   1.00
O858   O     0.12846   0.56108   0.75000   0.00000  Uiso   1.00
O859   O     0.32721   0.44571   0.92967   0.00000  Uiso   1.00
O860   O     0.00599   0.53635   0.92960   0.00000  Uiso   1.00
O861   O     0.00573   0.53941   0.58559   0.00000  Uiso   1.00
O862   O     0.20490   0.56107   0.75000   0.00000  Uiso   1.00
O863   O     0.10947   0.50000   0.82681   0.00000  Uiso   1.00
O864   O     0.18591   0.49999   0.82681   0.00000  Uiso   1.00
O865   O     0.12843   0.43893   0.74999   0.00000  Uiso   1.00
O866   O     0.20488   0.43892   0.74999   0.00000  Uiso   1.00
O867   O     0.14742   0.50001   0.67319   0.00000  Uiso   1.00
O868   O     0.22387   0.50000   0.67319   0.00000  Uiso   1.00
O869   O     0.26781   0.55368   0.87548   0.00000  Uiso   1.00
Zn870  Zn    0.11562   0.50001   0.75000   0.00000  Uiso   1.00
Zn871  Zn    0.21771   0.49999   0.75000   0.00000  Uiso   1.00
C872   C     0.50009   0.57983   0.75008   0.00000  Uiso   1.00
C873   C     0.45505   0.49971   0.91257   0.00000  Uiso   1.00
C874   C     0.53591   0.64470   0.76265   0.00000  Uiso   1.00
C875   C     0.47305   0.49974   0.85255   0.00000  Uiso   1.00
C876   C     0.53698   0.35372   0.76166   0.00000  Uiso   1.00
C877   C     0.50105   0.37525   0.74785   0.00000  Uiso   1.00
C878   C     0.46604   0.35306   0.73281   0.00000  Uiso   1.00
C879   C     0.46603   0.64404   0.73417   0.00000  Uiso   1.00
C880   C     0.50048   0.62359   0.74939   0.00000  Uiso   1.00
C881   C     0.65466   0.47968   0.71015   0.00000  Uiso   1.00
C882   C     0.36930   0.48015   0.70981   0.00000  Uiso   1.00
C883   C     0.47651   0.49287   0.99337   0.00000  Uiso   1.00
C884   C     0.34589   0.52043   0.78955   0.00000  Uiso   1.00
C885   C     0.63135   0.52124   0.78956   0.00000  Uiso   1.00
C886   C     0.50025   0.41983   0.74916   0.00000  Uiso   1.00
C887   C     0.52682   0.49960   0.64770   0.00000  Uiso   1.00
C888   C     0.59192   0.45615   0.50812   0.00000  Uiso   1.00
C889   C     0.54329   0.49337   0.58908   0.00000  Uiso   1.00
C890   C     0.41205   0.52101   0.94339   0.00000  Uiso   1.00
C891   C     0.39887   0.52357   0.50075   0.00000  Uiso   1.00
C892   C     0.43159   0.51000   0.52481   0.00000  Uiso   1.00
C893   C     0.57627   0.37319   0.77396   0.00000  Uiso   1.00
C894   C     0.48421   0.48183   0.93930   0.00000  Uiso   1.00
C895   C     0.43050   0.37169   0.71377   0.00000  Uiso   1.00
C896   C     0.59621   0.54696   0.83166   0.00000  Uiso   1.00
C897   C     0.58286   0.40474   0.91523   0.00000  Uiso   1.00
C898   C     0.64023   0.43888   0.97810   0.00000  Uiso   1.00
C899   C     0.38269   0.54213   0.91558   0.00000  Uiso   1.00
C900   C     0.35333   0.54348   0.53613   0.00000  Uiso   1.00
C901   C     0.51394   0.48616   0.51431   0.00000  Uiso   1.00
C902   C     0.55448   0.46108   0.98558   0.00000  Uiso   1.00
C903   C     0.55396   0.44080   0.93755   0.00000  Uiso   1.00
C904   C     0.52049   0.45269   0.91372   0.00000  Uiso   1.00
C905   C     0.51190   0.50475   0.56316   0.00000  Uiso   1.00
C906   C     0.58420   0.47027   0.56133   0.00000  Uiso   1.00
H907   H     0.60994   0.46321   0.58112   0.00000  Uiso   1.00
H908   H     0.56606   0.56091   0.82446   0.00000  Uiso   1.00
H909   H     0.65945   0.42219   0.50004   0.00000  Uiso   1.00
H910   H     0.40003   0.56222   0.88131   0.00000  Uiso   1.00
H911   H     0.66527   0.56220   0.51905   0.00000  Uiso   1.00
H912   H     0.43940   0.62694   0.72246   0.00000  Uiso   1.00
H913   H     0.64618   0.46345   0.67823   0.00000  Uiso   1.00
H914   H     0.39716   0.46479   0.67709   0.00000  Uiso   1.00
H915   H     0.35560   0.53729   0.82008   0.00000  Uiso   1.00
H916   H     0.48425   0.52689   0.58373   0.00000  Uiso   1.00
H917   H     0.42118   0.51274   0.56856   0.00000  Uiso   1.00
H918   H     0.52156   0.43758   0.87613   0.00000  Uiso   1.00
H919   H     0.56291   0.62817   0.77383   0.00000  Uiso   1.00
N920   N     0.38093   0.50001   0.75002   0.00000  Uiso   1.00
N921   N     0.61906   0.49998   0.75000   0.00000  Uiso   1.00
N922   N     0.60797   0.38871   0.78319   0.00000  Uiso   1.00
N923   N     0.40180   0.38591   0.69840   0.00000  Uiso   1.00
N924   N     0.60575   0.37564   0.89776   0.00000  Uiso   1.00
O925   O     0.46179   0.56108   0.75000   0.00000  Uiso   1.00
O926   O     0.66054   0.44571   0.92967   0.00000  Uiso   1.00
O927   O     0.33932   0.53635   0.92960   0.00000  Uiso   1.00
O928   O     0.33906   0.53941   0.58559   0.00000  Uiso   1.00
O929   O     0.53823   0.56107   0.75000   0.00000  Uiso   1.00
O930   O     0.44280   0.50000   0.82681   0.00000  Uiso   1.00
O931   O     0.51924   0.49999   0.82681   0.00000  Uiso   1.00
O932   O     0.46177   0.43893   0.74999   0.00000  Uiso   1.00
O933   O     0.53821   0.43892   0.74999   0.00000  Uiso   1.00
O934   O     0.48076   0.50001   0.67319   0.00000  Uiso   1.00
O935   O     0.55720   0.50000   0.67319   0.00000  Uiso   1.00
O936   O     0.60115   0.55368   0.87548   0.00000  Uiso   1.00
Zn937  Zn    0.44896   0.50001   0.75000   0.00000  Uiso   1.00
Zn938  Zn    0.55104   0.49999   0.75000   0.00000  Uiso   1.00
C939   C     0.83342   0.57983   0.75008   0.00000  Uiso   1.00
C940   C     0.78838   0.49971   0.91257   0.00000  Uiso   1.00
C941   C     0.86925   0.64470   0.76265   0.00000  Uiso   1.00
C942   C     0.80638   0.49974   0.85255   0.00000  Uiso   1.00
C943   C     0.87032   0.35372   0.76166   0.00000  Uiso   1.00
C944   C     0.83438   0.37525   0.74785   0.00000  Uiso   1.00
C945   C     0.79937   0.35306   0.73281   0.00000  Uiso   1.00
C946   C     0.79936   0.64404   0.73417   0.00000  Uiso   1.00
C947   C     0.83381   0.62359   0.74939   0.00000  Uiso   1.00
C948   C     0.98799   0.47968   0.71015   0.00000  Uiso   1.00
C949   C     0.70264   0.48015   0.70981   0.00000  Uiso   1.00
C950   C     0.80984   0.49287   0.99337   0.00000  Uiso   1.00
C951   C     0.67922   0.52043   0.78955   0.00000  Uiso   1.00
C952   C     0.96468   0.52124   0.78956   0.00000  Uiso   1.00
C953   C     0.83358   0.41983   0.74916   0.00000  Uiso   1.00
C954   C     0.86016   0.49960   0.64770   0.00000  Uiso   1.00
C955   C     0.92525   0.45615   0.50812   0.00000  Uiso   1.00
C956   C     0.87662   0.49337   0.58908   0.00000  Uiso   1.00
C957   C     0.74538   0.52101   0.94339   0.00000  Uiso   1.00
C958   C     0.73220   0.52357   0.50075   0.00000  Uiso   1.00
C959   C     0.76492   0.51000   0.52481   0.00000  Uiso   1.00
C960   C     0.90960   0.37319   0.77396   0.00000  Uiso   1.00
C961   C     0.81754   0.48183   0.93930   0.00000  Uiso   1.00
C962   C     0.76384   0.37169   0.71377   0.00000  Uiso   1.00
C963   C     0.92954   0.54696   0.83166   0.00000  Uiso   1.00
C964   C     0.91619   0.40474   0.91523   0.00000  Uiso   1.00
C965   C     0.97356   0.43888   0.97810   0.00000  Uiso   1.00
C966   C     0.71602   0.54213   0.91558   0.00000  Uiso   1.00
C967   C     0.68666   0.54348   0.53613   0.00000  Uiso   1.00
C968   C     0.84728   0.48616   0.51431   0.00000  Uiso   1.00
C969   C     0.88781   0.46108   0.98558   0.00000  Uiso   1.00
C970   C     0.88730   0.44080   0.93755   0.00000  Uiso   1.00
C971   C     0.85382   0.45269   0.91372   0.00000  Uiso   1.00
C972   C     0.84524   0.50475   0.56316   0.00000  Uiso   1.00
C973   C     0.91753   0.47027   0.56133   0.00000  Uiso   1.00
H974   H     0.94327   0.46321   0.58112   0.00000  Uiso   1.00
H975   H     0.89940   0.56091   0.82446   0.00000  Uiso   1.00
H976   H     0.99278   0.42219   0.50004   0.00000  Uiso   1.00
H977   H     0.73336   0.56222   0.88131   0.00000  Uiso   1.00
H978   H     0.99860   0.56220   0.51905   0.00000  Uiso   1.00
H979   H     0.77274   0.62694   0.72246   0.00000  Uiso   1.00
H980   H     0.97952   0.46345   0.67823   0.00000  Uiso   1.00
H981   H     0.73049   0.46479   0.67709   0.00000  Uiso   1.00
H982   H     0.68893   0.53729   0.82008   0.00000  Uiso   1.00
H983   H     0.81758   0.52689   0.58373   0.00000  Uiso   1.00
H984   H     0.75451   0.51274   0.56856   0.00000  Uiso   1.00
H985   H     0.85489   0.43758   0.87613   0.00000  Uiso   1.00
H986   H     0.89624   0.62817   0.77383   0.00000  Uiso   1.00
N987   N     0.71426   0.50001   0.75002   0.00000  Uiso   1.00
N988   N     0.95239   0.49998   0.75000   0.00000  Uiso   1.00
N989   N     0.94131   0.38871   0.78319   0.00000  Uiso   1.00
N990   N     0.73513   0.38591   0.69840   0.00000  Uiso   1.00
N991   N     0.93908   0.37564   0.89776   0.00000  Uiso   1.00
O992   O     0.79512   0.56108   0.75000   0.00000  Uiso   1.00
O993   O     0.99388   0.44571   0.92967   0.00000  Uiso   1.00
O994   O     0.67266   0.53635   0.92960   0.00000  Uiso   1.00
O995   O     0.67240   0.53941   0.58559   0.00000  Uiso   1.00
O996   O     0.87157   0.56107   0.75000   0.00000  Uiso   1.00
O997   O     0.77613   0.50000   0.82681   0.00000  Uiso   1.00
O998   O     0.85258   0.49999   0.82681   0.00000  Uiso   1.00
O999   O     0.79510   0.43893   0.74999   0.00000  Uiso   1.00
O1000  O     0.87154   0.43892   0.74999   0.00000  Uiso   1.00
O1001  O     0.81409   0.50001   0.67319   0.00000  Uiso   1.00
O1002  O     0.89053   0.50000   0.67319   0.00000  Uiso   1.00
O1003  O     0.93448   0.55368   0.87548   0.00000  Uiso   1.00
Zn1004 Zn    0.78229   0.50001   0.75000   0.00000  Uiso   1.00
Zn1005 Zn    0.88438   0.49999   0.75000   0.00000  Uiso   1.00
C1006  C     0.16675   0.91317   0.75008   0.00000  Uiso   1.00
C1007  C     0.12172   0.83304   0.91257   0.00000  Uiso   1.00
C1008  C     0.20258   0.97804   0.76265   0.00000  Uiso   1.00
C1009  C     0.13971   0.83307   0.85255   0.00000  Uiso   1.00
C1010  C     0.20365   0.68705   0.76166   0.00000  Uiso   1.00
C1011  C     0.16771   0.70859   0.74785   0.00000  Uiso   1.00
C1012  C     0.13271   0.68639   0.73281   0.00000  Uiso   1.00
C1013  C     0.13269   0.97738   0.73417   0.00000  Uiso   1.00
C1014  C     0.16714   0.95692   0.74939   0.00000  Uiso   1.00
C1015  C     0.32133   0.81301   0.71015   0.00000  Uiso   1.00
C1016  C     0.03597   0.81349   0.70981   0.00000  Uiso   1.00
C1017  C     0.14317   0.82621   0.99337   0.00000  Uiso   1.00
C1018  C     0.01255   0.85376   0.78955   0.00000  Uiso   1.00
C1019  C     0.29801   0.85458   0.78956   0.00000  Uiso   1.00
C1020  C     0.16692   0.75316   0.74916   0.00000  Uiso   1.00
C1021  C     0.19349   0.83293   0.64770   0.00000  Uiso   1.00
C1022  C     0.25859   0.78948   0.50812   0.00000  Uiso   1.00
C1023  C     0.20995   0.82671   0.58908   0.00000  Uiso   1.00
C1024  C     0.07871   0.85434   0.94339   0.00000  Uiso   1.00
C1025  C     0.06553   0.85690   0.50075   0.00000  Uiso   1.00
C1026  C     0.09825   0.84333   0.52481   0.00000  Uiso   1.00
C1027  C     0.24293   0.70653   0.77396   0.00000  Uiso   1.00
C1028  C     0.15087   0.81516   0.93930   0.00000  Uiso   1.00
C1029  C     0.09717   0.70502   0.71377   0.00000  Uiso   1.00
C1030  C     0.26288   0.88029   0.83166   0.00000  Uiso   1.00
C1031  C     0.24952   0.73808   0.91523   0.00000  Uiso   1.00
C1032  C     0.30690   0.77221   0.97810   0.00000  Uiso   1.00
C1033  C     0.04936   0.87546   0.91558   0.00000  Uiso   1.00
C1034  C     0.01999   0.87682   0.53613   0.00000  Uiso   1.00
C1035  C     0.18061   0.81949   0.51431   0.00000  Uiso   1.00
C1036  C     0.22115   0.79441   0.98558   0.00000  Uiso   1.00
C1037  C     0.22063   0.77414   0.93755   0.00000  Uiso   1.00
C1038  C     0.18716   0.78602   0.91372   0.00000  Uiso   1.00
C1039  C     0.17857   0.83809   0.56316   0.00000  Uiso   1.00
C1040  C     0.25086   0.80360   0.56133   0.00000  Uiso   1.00
H1041  H     0.27661   0.79655   0.58112   0.00000  Uiso   1.00
H1042  H     0.23273   0.89424   0.82446   0.00000  Uiso   1.00
H1043  H     0.32612   0.75552   0.50004   0.00000  Uiso   1.00
H1044  H     0.06669   0.89555   0.88131   0.00000  Uiso   1.00
H1045  H     0.33194   0.89553   0.51905   0.00000  Uiso   1.00
H1046  H     0.10607   0.96027   0.72246   0.00000  Uiso   1.00
H1047  H     0.31285   0.79678   0.67823   0.00000  Uiso   1.00
H1048  H     0.06382   0.79812   0.67709   0.00000  Uiso   1.00
H1049  H     0.02227   0.87063   0.82008   0.00000  Uiso   1.00
H1050  H     0.15092   0.86022   0.58373   0.00000  Uiso   1.00
H1051  H     0.08785   0.84607   0.56856   0.00000  Uiso   1.00
H1052  H     0.18823   0.77092   0.87613   0.00000  Uiso   1.00
H1053  H     0.22957   0.96150   0.77383   0.00000  Uiso   1.00
N1054  N     0.04760   0.83334   0.75002   0.00000  Uiso   1.00
N1055  N     0.28573   0.83331   0.75000   0.00000  Uiso   1.00
N1056  N     0.27464   0.72204   0.78319   0.00000  Uiso   1.00
N1057  N     0.06847   0.71924   0.69840   0.00000  Uiso   1.00
N1058  N     0.27241   0.70897   0.89776   0.00000  Uiso   1.00
O1059  O     0.12846   0.89442   0.75000   0.00000  Uiso   1.00
O1060  O     0.32721   0.77904   0.92967   0.00000  Uiso   1.00
O1061  O     0.00599   0.86968   0.92960   0.00000  Uiso   1.00
O1062  O     0.00573   0.87274   0.58559   0.00000  Uiso   1.00
O1063  O     0.20490   0.89441   0.75000   0.00000  Uiso   1.00
O1064  O     0.10947   0.83333   0.82681   0.00000  Uiso   1.00
O1065  O     0.18591   0.83332   0.82681   0.00000  Uiso   1.00
O1066  O     0.12843   0.77226   0.74999   0.00000  Uiso   1.00
O1067  O     0.20488   0.77225   0.74999   0.00000  Uiso   1.00
O1068  O     0.14742   0.83335   0.67319   0.00000  Uiso   1.00
O1069  O     0.22387   0.83334   0.67319   0.00000  Uiso   1.00
O1070  O     0.26781   0.88702   0.87548   0.00000  Uiso   1.00
Zn1071 Zn    0.11562   0.83334   0.75000   0.00000  Uiso   1.00
Zn1072 Zn    0.21771   0.83333   0.75000   0.00000  Uiso   1.00
C1073  C     0.50009   0.91317   0.75008   0.00000  Uiso   1.00
C1074  C     0.45505   0.83304   0.91257   0.00000  Uiso   1.00
C1075  C     0.53591   0.97804   0.76265   0.00000  Uiso   1.00
C1076  C     0.47305   0.83307   0.85255   0.00000  Uiso   1.00
C1077  C     0.53698   0.68705   0.76166   0.00000  Uiso   1.00
C1078  C     0.50105   0.70859   0.74785   0.00000  Uiso   1.00
C1079  C     0.46604   0.68639   0.73281   0.00000  Uiso   1.00
C1080  C     0.46603   0.97738   0.73417   0.00000  Uiso   1.00
C1081  C     0.50048   0.95692   0.74939   0.00000  Uiso   1.00
C1082  C     0.65466   0.81301   0.71015   0.00000  Uiso   1.00
C1083  C     0.36930   0.81349   0.70981   0.00000  Uiso   1.00
C1084  C     0.47651   0.82621   0.99337   0.00000  Uiso   1.00
C1085  C     0.34589   0.85376   0.78955   0.00000  Uiso   1.00
C1086  C     0.63135   0.85458   0.78956   0.00000  Uiso   1.00
C1087  C     0.50025   0.75316   0.74916   0.00000  Uiso   1.00
C1088  C     0.52682   0.83293   0.64770   0.00000  Uiso   1.00
C1089  C     0.59192   0.78948   0.50812   0.00000  Uiso   1.00
C1090  C     0.54329   0.82671   0.58908   0.00000  Uiso   1.00
C1091  C     0.41205   0.85434   0.94339   0.00000  Uiso   1.00
C1092  C     0.39887   0.85690   0.50075   0.00000  Uiso   1.00
C1093  C     0.43159   0.84333   0.52481   0.00000  Uiso   1.00
C1094  C     0.57627   0.70653   0.77396   0.00000  Uiso   1.00
C1095  C     0.48421   0.81516   0.93930   0.00000  Uiso   1.00
C1096  C     0.43050   0.70502   0.71377   0.00000  Uiso   1.00
C1097  C     0.59621   0.88029   0.83166   0.00000  Uiso   1.00
C1098  C     0.58286   0.73808   0.91523   0.00000  Uiso   1.00
C1099  C     0.64023   0.77221   0.97810   0.00000  Uiso   1.00
C1100  C     0.38269   0.87546   0.91558   0.00000  Uiso   1.00
C1101  C     0.35333   0.87682   0.53613   0.00000  Uiso   1.00
C1102  C     0.51394   0.81949   0.51431   0.00000  Uiso   1.00
C1103  C     0.55448   0.79441   0.98558   0.00000  Uiso   1.00
C1104  C     0.55396   0.77414   0.93755   0.00000  Uiso   1.00
C1105  C     0.52049   0.78602   0.91372   0.00000  Uiso   1.00
C1106  C     0.51190   0.83809   0.56316   0.00000  Uiso   1.00
C1107  C     0.58420   0.80360   0.56133   0.00000  Uiso   1.00
H1108  H     0.60994   0.79655   0.58112   0.00000  Uiso   1.00
H1109  H     0.56606   0.89424   0.82446   0.00000  Uiso   1.00
H1110  H     0.65945   0.75552   0.50004   0.00000  Uiso   1.00
H1111  H     0.40003   0.89555   0.88131   0.00000  Uiso   1.00
H1112  H     0.66527   0.89553   0.51905   0.00000  Uiso   1.00
H1113  H     0.43940   0.96027   0.72246   0.00000  Uiso   1.00
H1114  H     0.64618   0.79678   0.67823   0.00000  Uiso   1.00
H1115  H     0.39716   0.79812   0.67709   0.00000  Uiso   1.00
H1116  H     0.35560   0.87063   0.82008   0.00000  Uiso   1.00
H1117  H     0.48425   0.86022   0.58373   0.00000  Uiso   1.00
H1118  H     0.42118   0.84607   0.56856   0.00000  Uiso   1.00
H1119  H     0.52156   0.77092   0.87613   0.00000  Uiso   1.00
H1120  H     0.56291   0.96150   0.77383   0.00000  Uiso   1.00
N1121  N     0.38093   0.83334   0.75002   0.00000  Uiso   1.00
N1122  N     0.61906   0.83331   0.75000   0.00000  Uiso   1.00
N1123  N     0.60797   0.72204   0.78319   0.00000  Uiso   1.00
N1124  N     0.40180   0.71924   0.69840   0.00000  Uiso   1.00
N1125  N     0.60575   0.70897   0.89776   0.00000  Uiso   1.00
O1126  O     0.46179   0.89442   0.75000   0.00000  Uiso   1.00
O1127  O     0.66054   0.77904   0.92967   0.00000  Uiso   1.00
O1128  O     0.33932   0.86968   0.92960   0.00000  Uiso   1.00
O1129  O     0.33906   0.87274   0.58559   0.00000  Uiso   1.00
O1130  O     0.53823   0.89441   0.75000   0.00000  Uiso   1.00
O1131  O     0.44280   0.83333   0.82681   0.00000  Uiso   1.00
O1132  O     0.51924   0.83332   0.82681   0.00000  Uiso   1.00
O1133  O     0.46177   0.77226   0.74999   0.00000  Uiso   1.00
O1134  O     0.53821   0.77225   0.74999   0.00000  Uiso   1.00
O1135  O     0.48076   0.83335   0.67319   0.00000  Uiso   1.00
O1136  O     0.55720   0.83334   0.67319   0.00000  Uiso   1.00
O1137  O     0.60115   0.88702   0.87548   0.00000  Uiso   1.00
Zn1138 Zn    0.44896   0.83334   0.75000   0.00000  Uiso   1.00
Zn1139 Zn    0.55104   0.83333   0.75000   0.00000  Uiso   1.00
C1140  C     0.83342   0.91317   0.75008   0.00000  Uiso   1.00
C1141  C     0.78838   0.83304   0.91257   0.00000  Uiso   1.00
C1142  C     0.86925   0.97804   0.76265   0.00000  Uiso   1.00
C1143  C     0.80638   0.83307   0.85255   0.00000  Uiso   1.00
C1144  C     0.87032   0.68705   0.76166   0.00000  Uiso   1.00
C1145  C     0.83438   0.70859   0.74785   0.00000  Uiso   1.00
C1146  C     0.79937   0.68639   0.73281   0.00000  Uiso   1.00
C1147  C     0.79936   0.97738   0.73417   0.00000  Uiso   1.00
C1148  C     0.83381   0.95692   0.74939   0.00000  Uiso   1.00
C1149  C     0.98799   0.81301   0.71015   0.00000  Uiso   1.00
C1150  C     0.70264   0.81349   0.70981   0.00000  Uiso   1.00
C1151  C     0.80984   0.82621   0.99337   0.00000  Uiso   1.00
C1152  C     0.67922   0.85376   0.78955   0.00000  Uiso   1.00
C1153  C     0.96468   0.85458   0.78956   0.00000  Uiso   1.00
C1154  C     0.83358   0.75316   0.74916   0.00000  Uiso   1.00
C1155  C     0.86016   0.83293   0.64770   0.00000  Uiso   1.00
C1156  C     0.92525   0.78948   0.50812   0.00000  Uiso   1.00
C1157  C     0.87662   0.82671   0.58908   0.00000  Uiso   1.00
C1158  C     0.74538   0.85434   0.94339   0.00000  Uiso   1.00
C1159  C     0.73220   0.85690   0.50075   0.00000  Uiso   1.00
C1160  C     0.76492   0.84333   0.52481   0.00000  Uiso   1.00
C1161  C     0.90960   0.70653   0.77396   0.00000  Uiso   1.00
C1162  C     0.81754   0.81516   0.93930   0.00000  Uiso   1.00
C1163  C     0.76384   0.70502   0.71377   0.00000  Uiso   1.00
C1164  C     0.92954   0.88029   0.83166   0.00000  Uiso   1.00
C1165  C     0.91619   0.73808   0.91523   0.00000  Uiso   1.00
C1166  C     0.97356   0.77221   0.97810   0.00000  Uiso   1.00
C1167  C     0.71602   0.87546   0.91558   0.00000  Uiso   1.00
C1168  C     0.68666   0.87682   0.53613   0.00000  Uiso   1.00
C1169  C     0.84728   0.81949   0.51431   0.00000  Uiso   1.00
C1170  C     0.88781   0.79441   0.98558   0.00000  Uiso   1.00
C1171  C     0.88730   0.77414   0.93755   0.00000  Uiso   1.00
C1172  C     0.85382   0.78602   0.91372   0.00000  Uiso   1.00
C1173  C     0.84524   0.83809   0.56316   0.00000  Uiso   1.00
C1174  C     0.91753   0.80360   0.56133   0.00000  Uiso   1.00
H1175  H     0.94327   0.79655   0.58112   0.00000  Uiso   1.00
H1176  H     0.89940   0.89424   0.82446   0.00000  Uiso   1.00
H1177  H     0.99278   0.75552   0.50004   0.00000  Uiso   1.00
H1178  H     0.73336   0.89555   0.88131   0.00000  Uiso   1.00
H1179  H     0.99860   0.89553   0.51905   0.00000  Uiso   1.00
H1180  H     0.77274   0.96027   0.72246   0.00000  Uiso   1.00
H1181  H     0.97952   0.79678   0.67823   0.00000  Uiso   1.00
H1182  H     0.73049   0.79812   0.67709   0.00000  Uiso   1.00
H1183  H     0.68893   0.87063   0.82008   0.00000  Uiso   1.00
H1184  H     0.81758   0.86022   0.58373   0.00000  Uiso   1.00
H1185  H     0.75451   0.84607   0.56856   0.00000  Uiso   1.00
H1186  H     0.85489   0.77092   0.87613   0.00000  Uiso   1.00
H1187  H     0.89624   0.96150   0.77383   0.00000  Uiso   1.00
N1188  N     0.71426   0.83334   0.75002   0.00000  Uiso   1.00
N1189  N     0.95239   0.83331   0.75000   0.00000  Uiso   1.00
N1190  N     0.94131   0.72204   0.78319   0.00000  Uiso   1.00
N1191  N     0.73513   0.71924   0.69840   0.00000  Uiso   1.00
N1192  N     0.93908   0.70897   0.89776   0.00000  Uiso   1.00
O1193  O     0.79512   0.89442   0.75000   0.00000  Uiso   1.00
O1194  O     0.99388   0.77904   0.92967   0.00000  Uiso   1.00
O1195  O     0.67266   0.86968   0.92960   0.00000  Uiso   1.00
O1196  O     0.67240   0.87274   0.58559   0.00000  Uiso   1.00
O1197  O     0.87157   0.89441   0.75000   0.00000  Uiso   1.00
O1198  O     0.77613   0.83333   0.82681   0.00000  Uiso   1.00
O1199  O     0.85258   0.83332   0.82681   0.00000  Uiso   1.00
O1200  O     0.79510   0.77226   0.74999   0.00000  Uiso   1.00
O1201  O     0.87154   0.77225   0.74999   0.00000  Uiso   1.00
O1202  O     0.81409   0.83335   0.67319   0.00000  Uiso   1.00
O1203  O     0.89053   0.83334   0.67319   0.00000  Uiso   1.00
O1204  O     0.93448   0.88702   0.87548   0.00000  Uiso   1.00
Zn1205 Zn    0.78229   0.83334   0.75000   0.00000  Uiso   1.00
Zn1206 Zn    0.88438   0.83333   0.75000   0.00000  Uiso   1.00
loop_
_geom_bond_atom_site_label_1
_geom_bond_atom_site_label_2
_geom_bond_distance
_geom_bond_site_symmetry_2
_ccdc_geom_bond_type
C1     O54     1.283   .     A
C1     O58     1.284   .     A
C1     C9      1.416   .     S
C2     C4      1.472   .     S
C2     C23     1.413   .     A
C2     C19     1.426   .     A
C3     C9      1.388   .     A
C3     H48     1.086   .     S
C3     C206    1.371   .     S
C4     O60     1.298   .     A
C4     O59     1.292   .     A
C5     C6      1.423   .     A
C5     C22     1.448   .     S
C5     C405    1.371   1_545 S
C6     C7      1.418   .     A
C6     C15     1.443   .     S
C7     C24     1.446   .     S
C7     C410    1.371   1_545 S
C8     H41     1.086   .     S
C8     C9      1.388   .     A
C8     C208    1.371   .     S
C10    H42     1.082   .     S
C10    N50     1.365   .     A
C10    C78     1.416   .     S
C11    H43     1.080   .     S
C11    N49     1.368   .     A
C11    C144    1.416   1_455 S
C12    C23     1.395   .     A
C12    C624    1.412   .     S
C12    C633    1.413   .     S
C13    N49     1.354   .     A
C13    H44     1.080   .     S
C13    C148    1.417   1_455 S
C14    N50     1.385   .     A
C14    C25     1.479   .     S
C14    C80     1.417   .     S
C15    O62     1.285   .     A
C15    O61     1.292   .     A
C16    O63     1.294   .     A
C16    O64     1.290   .     A
C16    C18     1.451   .     S
C17    C35     1.402   .     A
C17    C630    1.482   1_554 S
C17    C634    1.433   1_554 S
C18    C34     1.378   .     A
C18    C35     1.394   .     A
C19    C28     1.484   .     S
C19    C623    1.415   .     S
C20    C29     1.491   .     S
C20    C21     1.398   .     A
C20    C622    1.415   1_554 S
C21    H46     1.080   .     S
C21    C615    1.412   1_554 S
C22    N51     1.157   .     T
C23    C33     1.412   .     A
C24    N52     1.157   .     T
C25    O65     1.221   .     D
C25    H37     1.076   .     S
C26    N53     1.158   .     T
C26    C32     1.445   .     S
C27    O55     1.221   .     D
C27    C620    1.482   .     S
C27    H641    1.086   .     S
C28    O56     1.220   .     D
C28    H39     1.085   .     S
C29    O57     1.222   .     D
C29    H174    1.082   1_455 S
C30    C34     1.389   .     A
C30    C615    1.413   1_554 S
C30    C634    1.428   1_554 S
C31    C32     1.416   .     A
C31    C620    1.433   .     S
C31    C633    1.428   .     S
C32    C33     1.397   .     A
C33    H47     1.084   .     S
C34    H45     1.080   .     S
C35    H36     1.085   .     S
H38    C630    1.086   1_554 S
H40    C96     1.082   .     S
N49    Zn66    2.013   .     S
N50    Zn67    2.012   .     S
O54    Zn66    2.011   .     S
O58    Zn67    2.015   .     S
O59    Zn66    1.952   .     S
O60    Zn67    1.900   .     S
O61    Zn66    2.015   .     S
O62    Zn67    2.011   .     S
O63    Zn66    1.900   .     S
O64    Zn67    1.952   .     S
C68    O121    1.283   .     A
C68    O125    1.284   .     A
C68    C76     1.416   .     S
C69    C71     1.472   .     S
C69    C90     1.413   .     A
C69    C86     1.426   .     A
C70    C76     1.388   .     A
C70    H115    1.086   .     S
C70    C273    1.371   .     S
C71    O127    1.298   .     A
C71    O126    1.292   .     A
C72    C73     1.423   .     A
C72    C89     1.448   .     S
C72    C472    1.371   1_545 S
C73    C74     1.418   .     A
C73    C82     1.443   .     S
C74    C91     1.446   .     S
C74    C477    1.371   1_545 S
C75    H108    1.086   .     S
C75    C76     1.388   .     A
C75    C275    1.371   .     S
C77    H109    1.082   .     S
C77    N117    1.365   .     A
C77    C145    1.416   .     S
C78    H110    1.080   .     S
C78    N116    1.368   .     A
C79    C90     1.395   .     A
C79    C691    1.412   .     S
C79    C700    1.413   .     S
C80    N116    1.354   .     A
C80    H111    1.080   .     S
C81    N117    1.385   .     A
C81    C92     1.479   .     S
C81    C147    1.417   .     S
C82    O129    1.285   .     A
C82    O128    1.292   .     A
C83    O130    1.294   .     A
C83    O131    1.290   .     A
C83    C85     1.451   .     S
C84    C102    1.402   .     A
C84    C697    1.482   1_554 S
C84    C701    1.433   1_554 S
C85    C101    1.378   .     A
C85    C102    1.394   .     A
C86    C95     1.484   .     S
C86    C690    1.415   .     S
C87    C96     1.491   .     S
C87    C88     1.398   .     A
C87    C689    1.415   1_554 S
C88    H113    1.080   .     S
C88    C682    1.412   1_554 S
C89    N118    1.157   .     T
C90    C100    1.412   .     A
C91    N119    1.157   .     T
C92    O132    1.221   .     D
C92    H104    1.076   .     S
C93    N120    1.158   .     T
C93    C99     1.445   .     S
C94    O122    1.221   .     D
C94    C687    1.482   .     S
C94    H708    1.086   .     S
C95    O123    1.220   .     D
C95    H106    1.085   .     S
C96    O124    1.222   .     D
C97    C101    1.389   .     A
C97    C682    1.413   1_554 S
C97    C701    1.428   1_554 S
C98    C99     1.416   .     A
C98    C687    1.433   .     S
C98    C700    1.428   .     S
C99    C100    1.397   .     A
C100   H114    1.084   .     S
C101   H112    1.080   .     S
C102   H103    1.085   .     S
H105   C697    1.086   1_554 S
H107   C163    1.082   .     S
N116   Zn133   2.013   .     S
N117   Zn134   2.012   .     S
O121   Zn133   2.011   .     S
O125   Zn134   2.015   .     S
O126   Zn133   1.952   .     S
O127   Zn134   1.900   .     S
O128   Zn133   2.015   .     S
O129   Zn134   2.011   .     S
O130   Zn133   1.900   .     S
O131   Zn134   1.952   .     S
C135   O188    1.283   .     A
C135   O192    1.284   .     A
C135   C143    1.416   .     S
C136   C138    1.472   .     S
C136   C157    1.413   .     A
C136   C153    1.426   .     A
C137   C143    1.388   .     A
C137   H182    1.086   .     S
C137   C340    1.371   .     S
C138   O194    1.298   .     A
C138   O193    1.292   .     A
C139   C140    1.423   .     A
C139   C156    1.448   .     S
C139   C539    1.371   1_545 S
C140   C141    1.418   .     A
C140   C149    1.443   .     S
C141   C158    1.446   .     S
C141   C544    1.371   1_545 S
C142   H175    1.086   .     S
C142   C143    1.388   .     A
C142   C342    1.371   .     S
C144   H176    1.082   .     S
C144   N184    1.365   .     A
C144   C11     1.416   1_655 S
C145   H177    1.080   .     S
C145   N183    1.368   .     A
C146   C157    1.395   .     A
C146   C758    1.412   .     S
C146   C767    1.413   .     S
C147   N183    1.354   .     A
C147   H178    1.080   .     S
C148   N184    1.385   .     A
C148   C159    1.479   .     S
C148   C13     1.417   1_655 S
C149   O196    1.285   .     A
C149   O195    1.292   .     A
C150   O197    1.294   .     A
C150   O198    1.290   .     A
C150   C152    1.451   .     S
C151   C169    1.402   .     A
C151   C764    1.482   1_554 S
C151   C768    1.433   1_554 S
C152   C168    1.378   .     A
C152   C169    1.394   .     A
C153   C162    1.484   .     S
C153   C757    1.415   .     S
C154   C163    1.491   .     S
C154   C155    1.398   .     A
C154   C756    1.415   1_554 S
C155   H180    1.080   .     S
C155   C749    1.412   1_554 S
C156   N185    1.157   .     T
C157   C167    1.412   .     A
C158   N186    1.157   .     T
C159   O199    1.221   .     D
C159   H171    1.076   .     S
C160   N187    1.158   .     T
C160   C166    1.445   .     S
C161   O189    1.221   .     D
C161   C754    1.482   .     S
C161   H775    1.086   .     S
C162   O190    1.220   .     D
C162   H173    1.085   .     S
C163   O191    1.222   .     D
C164   C168    1.389   .     A
C164   C749    1.413   1_554 S
C164   C768    1.428   1_554 S
C165   C166    1.416   .     A
C165   C754    1.433   .     S
C165   C767    1.428   .     S
C166   C167    1.397   .     A
C167   H181    1.084   .     S
C168   H179    1.080   .     S
C169   H170    1.085   .     S
H172   C764    1.086   1_554 S
H174   C29     1.082   1_655 S
N183   Zn200   2.013   .     S
N184   Zn201   2.012   .     S
O188   Zn200   2.011   .     S
O192   Zn201   2.015   .     S
O193   Zn200   1.952   .     S
O194   Zn201   1.900   .     S
O195   Zn200   2.015   .     S
O196   Zn201   2.011   .     S
O197   Zn200   1.900   .     S
O198   Zn201   1.952   .     S
C202   O255    1.283   .     A
C202   O259    1.284   .     A
C202   C210    1.416   .     S
C203   C205    1.472   .     S
C203   C224    1.413   .     A
C203   C220    1.426   .     A
C204   C210    1.388   .     A
C204   H249    1.086   .     S
C204   C407    1.371   .     S
C205   O261    1.298   .     A
C205   O260    1.292   .     A
C206   C207    1.423   .     A
C206   C223    1.448   .     S
C207   C208    1.418   .     A
C207   C216    1.443   .     S
C208   C225    1.446   .     S
C209   H242    1.086   .     S
C209   C210    1.388   .     A
C209   C409    1.371   .     S
C211   H243    1.082   .     S
C211   N251    1.365   .     A
C211   C279    1.416   .     S
C212   H244    1.080   .     S
C212   N250    1.368   .     A
C212   C345    1.416   1_455 S
C213   C224    1.395   .     A
C213   C825    1.412   .     S
C213   C834    1.413   .     S
C214   N250    1.354   .     A
C214   H245    1.080   .     S
C214   C349    1.417   1_455 S
C215   N251    1.385   .     A
C215   C226    1.479   .     S
C215   C281    1.417   .     S
C216   O263    1.285   .     A
C216   O262    1.292   .     A
C217   O264    1.294   .     A
C217   O265    1.290   .     A
C217   C219    1.451   .     S
C218   C236    1.402   .     A
C218   C831    1.482   1_554 S
C218   C835    1.433   1_554 S
C219   C235    1.378   .     A
C219   C236    1.394   .     A
C220   C229    1.484   .     S
C220   C824    1.415   .     S
C221   C230    1.491   .     S
C221   C222    1.398   .     A
C221   C823    1.415   1_554 S
C222   H247    1.080   .     S
C222   C816    1.412   1_554 S
C223   N252    1.157   .     T
C224   C234    1.412   .     A
C225   N253    1.157   .     T
C226   O266    1.221   .     D
C226   H238    1.076   .     S
C227   N254    1.158   .     T
C227   C233    1.445   .     S
C228   O256    1.221   .     D
C228   C821    1.482   .     S
C228   H842    1.086   .     S
C229   O257    1.220   .     D
C229   H240    1.085   .     S
C230   O258    1.222   .     D
C230   H375    1.082   1_455 S
C231   C235    1.389   .     A
C231   C816    1.413   1_554 S
C231   C835    1.428   1_554 S
C232   C233    1.416   .     A
C232   C821    1.433   .     S
C232   C834    1.428   .     S
C233   C234    1.397   .     A
C234   H248    1.084   .     S
C235   H246    1.080   .     S
C236   H237    1.085   .     S
H239   C831    1.086   1_554 S
H241   C297    1.082   .     S
N250   Zn267   2.013   .     S
N251   Zn268   2.012   .     S
O255   Zn267   2.011   .     S
O259   Zn268   2.015   .     S
O260   Zn267   1.952   .     S
O261   Zn268   1.900   .     S
O262   Zn267   2.015   .     S
O263   Zn268   2.011   .     S
O264   Zn267   1.900   .     S
O265   Zn268   1.952   .     S
C269   O322    1.283   .     A
C269   O326    1.284   .     A
C269   C277    1.416   .     S
C270   C272    1.472   .     S
C270   C291    1.413   .     A
C270   C287    1.426   .     A
C271   C277    1.388   .     A
C271   H316    1.086   .     S
C271   C474    1.371   .     S
C272   O328    1.298   .     A
C272   O327    1.292   .     A
C273   C274    1.423   .     A
C273   C290    1.448   .     S
C274   C275    1.418   .     A
C274   C283    1.443   .     S
C275   C292    1.446   .     S
C276   H309    1.086   .     S
C276   C277    1.388   .     A
C276   C476    1.371   .     S
C278   H310    1.082   .     S
C278   N318    1.365   .     A
C278   C346    1.416   .     S
C279   H311    1.080   .     S
C279   N317    1.368   .     A
C280   C291    1.395   .     A
C280   C892    1.412   .     S
C280   C901    1.413   .     S
C281   N317    1.354   .     A
C281   H312    1.080   .     S
C282   N318    1.385   .     A
C282   C293    1.479   .     S
C282   C348    1.417   .     S
C283   O330    1.285   .     A
C283   O329    1.292   .     A
C284   O331    1.294   .     A
C284   O332    1.290   .     A
C284   C286    1.451   .     S
C285   C303    1.402   .     A
C285   C898    1.482   1_554 S
C285   C902    1.433   1_554 S
C286   C302    1.378   .     A
C286   C303    1.394   .     A
C287   C296    1.484   .     S
C287   C891    1.415   .     S
C288   C297    1.491   .     S
C288   C289    1.398   .     A
C288   C890    1.415   1_554 S
C289   H314    1.080   .     S
C289   C883    1.412   1_554 S
C290   N319    1.157   .     T
C291   C301    1.412   .     A
C292   N320    1.157   .     T
C293   O333    1.221   .     D
C293   H305    1.076   .     S
C294   N321    1.158   .     T
C294   C300    1.445   .     S
C295   O323    1.221   .     D
C295   C888    1.482   .     S
C295   H909    1.086   .     S
C296   O324    1.220   .     D
C296   H307    1.085   .     S
C297   O325    1.222   .     D
C298   C302    1.389   .     A
C298   C883    1.413   1_554 S
C298   C902    1.428   1_554 S
C299   C300    1.416   .     A
C299   C888    1.433   .     S
C299   C901    1.428   .     S
C300   C301    1.397   .     A
C301   H315    1.084   .     S
C302   H313    1.080   .     S
C303   H304    1.085   .     S
H306   C898    1.086   1_554 S
H308   C364    1.082   .     S
N317   Zn334   2.013   .     S
N318   Zn335   2.012   .     S
O322   Zn334   2.011   .     S
O326   Zn335   2.015   .     S
O327   Zn334   1.952   .     S
O328   Zn335   1.900   .     S
O329   Zn334   2.015   .     S
O330   Zn335   2.011   .     S
O331   Zn334   1.900   .     S
O332   Zn335   1.952   .     S
C336   O389    1.283   .     A
C336   O393    1.284   .     A
C336   C344    1.416   .     S
C337   C339    1.472   .     S
C337   C358    1.413   .     A
C337   C354    1.426   .     A
C338   C344    1.388   .     A
C338   H383    1.086   .     S
C338   C541    1.371   .     S
C339   O395    1.298   .     A
C339   O394    1.292   .     A
C340   C341    1.423   .     A
C340   C357    1.448   .     S
C341   C342    1.418   .     A
C341   C350    1.443   .     S
C342   C359    1.446   .     S
C343   H376    1.086   .     S
C343   C344    1.388   .     A
C343   C543    1.371   .     S
C345   H377    1.082   .     S
C345   N385    1.365   .     A
C345   C212    1.416   1_655 S
C346   H378    1.080   .     S
C346   N384    1.368   .     A
C347   C358    1.395   .     A
C347   C959    1.412   .     S
C347   C968    1.413   .     S
C348   N384    1.354   .     A
C348   H379    1.080   .     S
C349   N385    1.385   .     A
C349   C360    1.479   .     S
C349   C214    1.417   1_655 S
C350   O397    1.285   .     A
C350   O396    1.292   .     A
C351   O398    1.294   .     A
C351   O399    1.290   .     A
C351   C353    1.451   .     S
C352   C370    1.402   .     A
C352   C965    1.482   1_554 S
C352   C969    1.433   1_554 S
C353   C369    1.378   .     A
C353   C370    1.394   .     A
C354   C363    1.484   .     S
C354   C958    1.415   .     S
C355   C364    1.491   .     S
C355   C356    1.398   .     A
C355   C957    1.415   1_554 S
C356   H381    1.080   .     S
C356   C950    1.412   1_554 S
C357   N386    1.157   .     T
C358   C368    1.412   .     A
C359   N387    1.157   .     T
C360   O400    1.221   .     D
C360   H372    1.076   .     S
C361   N388    1.158   .     T
C361   C367    1.445   .     S
C362   O390    1.221   .     D
C362   C955    1.482   .     S
C362   H976    1.086   .     S
C363   O391    1.220   .     D
C363   H374    1.085   .     S
C364   O392    1.222   .     D
C365   C369    1.389   .     A
C365   C950    1.413   1_554 S
C365   C969    1.428   1_554 S
C366   C367    1.416   .     A
C366   C955    1.433   .     S
C366   C968    1.428   .     S
C367   C368    1.397   .     A
C368   H382    1.084   .     S
C369   H380    1.080   .     S
C370   H371    1.085   .     S
H373   C965    1.086   1_554 S
H375   C230    1.082   1_655 S
N384   Zn401   2.013   .     S
N385   Zn402   2.012   .     S
O389   Zn401   2.011   .     S
O393   Zn402   2.015   .     S
O394   Zn401   1.952   .     S
O395   Zn402   1.900   .     S
O396   Zn401   2.015   .     S
O397   Zn402   2.011   .     S
O398   Zn401   1.900   .     S
O399   Zn402   1.952   .     S
C403   O456    1.283   .     A
C403   O460    1.284   .     A
C403   C411    1.416   .     S
C404   C406    1.472   .     S
C404   C425    1.413   .     A
C404   C421    1.426   .     A
C405   C411    1.388   .     A
C405   H450    1.086   .     S
C405   C5      1.371   1_565 S
C406   O462    1.298   .     A
C406   O461    1.292   .     A
C407   C408    1.423   .     A
C407   C424    1.448   .     S
C408   C409    1.418   .     A
C408   C417    1.443   .     S
C409   C426    1.446   .     S
C410   H443    1.086   .     S
C410   C411    1.388   .     A
C410   C7      1.371   1_565 S
C412   H444    1.082   .     S
C412   N452    1.365   .     A
C412   C480    1.416   .     S
C413   H445    1.080   .     S
C413   N451    1.368   .     A
C413   C546    1.416   1_455 S
C414   C425    1.395   .     A
C414   C1026   1.412   .     S
C414   C1035   1.413   .     S
C415   N451    1.354   .     A
C415   H446    1.080   .     S
C415   C550    1.417   1_455 S
C416   N452    1.385   .     A
C416   C427    1.479   .     S
C416   C482    1.417   .     S
C417   O464    1.285   .     A
C417   O463    1.292   .     A
C418   O465    1.294   .     A
C418   O466    1.290   .     A
C418   C420    1.451   .     S
C419   C437    1.402   .     A
C419   C1032   1.482   1_554 S
C419   C1036   1.433   1_554 S
C420   C436    1.378   .     A
C420   C437    1.394   .     A
C421   C430    1.484   .     S
C421   C1025   1.415   .     S
C422   C431    1.491   .     S
C422   C423    1.398   .     A
C422   C1024   1.415   1_554 S
C423   H448    1.080   .     S
C423   C1017   1.412   1_554 S
C424   N453    1.157   .     T
C425   C435    1.412   .     A
C426   N454    1.157   .     T
C427   O467    1.221   .     D
C427   H439    1.076   .     S
C428   N455    1.158   .     T
C428   C434    1.445   .     S
C429   O457    1.221   .     D
C429   C1022   1.482   .     S
C429   H1043   1.086   .     S
C430   O458    1.220   .     D
C430   H441    1.085   .     S
C431   O459    1.222   .     D
C431   H576    1.082   1_455 S
C432   C436    1.389   .     A
C432   C1017   1.413   1_554 S
C432   C1036   1.428   1_554 S
C433   C434    1.416   .     A
C433   C1022   1.433   .     S
C433   C1035   1.428   .     S
C434   C435    1.397   .     A
C435   H449    1.084   .     S
C436   H447    1.080   .     S
C437   H438    1.085   .     S
H440   C1032   1.086   1_554 S
H442   C498    1.082   .     S
N451   Zn468   2.013   .     S
N452   Zn469   2.012   .     S
O456   Zn468   2.011   .     S
O460   Zn469   2.015   .     S
O461   Zn468   1.952   .     S
O462   Zn469   1.900   .     S
O463   Zn468   2.015   .     S
O464   Zn469   2.011   .     S
O465   Zn468   1.900   .     S
O466   Zn469   1.952   .     S
C470   O523    1.283   .     A
C470   O527    1.284   .     A
C470   C478    1.416   .     S
C471   C473    1.472   .     S
C471   C492    1.413   .     A
C471   C488    1.426   .     A
C472   C478    1.388   .     A
C472   H517    1.086   .     S
C472   C72     1.371   1_565 S
C473   O529    1.298   .     A
C473   O528    1.292   .     A
C474   C475    1.423   .     A
C474   C491    1.448   .     S
C475   C476    1.418   .     A
C475   C484    1.443   .     S
C476   C493    1.446   .     S
C477   H510    1.086   .     S
C477   C478    1.388   .     A
C477   C74     1.371   1_565 S
C479   H511    1.082   .     S
C479   N519    1.365   .     A
C479   C547    1.416   .     S
C480   H512    1.080   .     S
C480   N518    1.368   .     A
C481   C492    1.395   .     A
C481   C1093   1.412   .     S
C481   C1102   1.413   .     S
C482   N518    1.354   .     A
C482   H513    1.080   .     S
C483   N519    1.385   .     A
C483   C494    1.479   .     S
C483   C549    1.417   .     S
C484   O531    1.285   .     A
C484   O530    1.292   .     A
C485   O532    1.294   .     A
C485   O533    1.290   .     A
C485   C487    1.451   .     S
C486   C504    1.402   .     A
C486   C1099   1.482   1_554 S
C486   C1103   1.433   1_554 S
C487   C503    1.378   .     A
C487   C504    1.394   .     A
C488   C497    1.484   .     S
C488   C1092   1.415   .     S
C489   C498    1.491   .     S
C489   C490    1.398   .     A
C489   C1091   1.415   1_554 S
C490   H515    1.080   .     S
C490   C1084   1.412   1_554 S
C491   N520    1.157   .     T
C492   C502    1.412   .     A
C493   N521    1.157   .     T
C494   O534    1.221   .     D
C494   H506    1.076   .     S
C495   N522    1.158   .     T
C495   C501    1.445   .     S
C496   O524    1.221   .     D
C496   C1089   1.482   .     S
C496   H1110   1.086   .     S
C497   O525    1.220   .     D
C497   H508    1.085   .     S
C498   O526    1.222   .     D
C499   C503    1.389   .     A
C499   C1084   1.413   1_554 S
C499   C1103   1.428   1_554 S
C500   C501    1.416   .     A
C500   C1089   1.433   .     S
C500   C1102   1.428   .     S
C501   C502    1.397   .     A
C502   H516    1.084   .     S
C503   H514    1.080   .     S
C504   H505    1.085   .     S
H507   C1099   1.086   1_554 S
H509   C565    1.082   .     S
N518   Zn535   2.013   .     S
N519   Zn536   2.012   .     S
O523   Zn535   2.011   .     S
O527   Zn536   2.015   .     S
O528   Zn535   1.952   .     S
O529   Zn536   1.900   .     S
O530   Zn535   2.015   .     S
O531   Zn536   2.011   .     S
O532   Zn535   1.900   .     S
O533   Zn536   1.952   .     S
C537   O590    1.283   .     A
C537   O594    1.284   .     A
C537   C545    1.416   .     S
C538   C540    1.472   .     S
C538   C559    1.413   .     A
C538   C555    1.426   .     A
C539   C545    1.388   .     A
C539   H584    1.086   .     S
C539   C139    1.371   1_565 S
C540   O596    1.298   .     A
C540   O595    1.292   .     A
C541   C542    1.423   .     A
C541   C558    1.448   .     S
C542   C543    1.418   .     A
C542   C551    1.443   .     S
C543   C560    1.446   .     S
C544   H577    1.086   .     S
C544   C545    1.388   .     A
C544   C141    1.371   1_565 S
C546   H578    1.082   .     S
C546   N586    1.365   .     A
C546   C413    1.416   1_655 S
C547   H579    1.080   .     S
C547   N585    1.368   .     A
C548   C559    1.395   .     A
C548   C1160   1.412   .     S
C548   C1169   1.413   .     S
C549   N585    1.354   .     A
C549   H580    1.080   .     S
C550   N586    1.385   .     A
C550   C561    1.479   .     S
C550   C415    1.417   1_655 S
C551   O598    1.285   .     A
C551   O597    1.292   .     A
C552   O599    1.294   .     A
C552   O600    1.290   .     A
C552   C554    1.451   .     S
C553   C571    1.402   .     A
C553   C1166   1.482   1_554 S
C553   C1170   1.433   1_554 S
C554   C570    1.378   .     A
C554   C571    1.394   .     A
C555   C564    1.484   .     S
C555   C1159   1.415   .     S
C556   C565    1.491   .     S
C556   C557    1.398   .     A
C556   C1158   1.415   1_554 S
C557   H582    1.080   .     S
C557   C1151   1.412   1_554 S
C558   N587    1.157   .     T
C559   C569    1.412   .     A
C560   N588    1.157   .     T
C561   O601    1.221   .     D
C561   H573    1.076   .     S
C562   N589    1.158   .     T
C562   C568    1.445   .     S
C563   O591    1.221   .     D
C563   C1156   1.482   .     S
C563   H1177   1.086   .     S
C564   O592    1.220   .     D
C564   H575    1.085   .     S
C565   O593    1.222   .     D
C566   C570    1.389   .     A
C566   C1151   1.413   1_554 S
C566   C1170   1.428   1_554 S
C567   C568    1.416   .     A
C567   C1156   1.433   .     S
C567   C1169   1.428   .     S
C568   C569    1.397   .     A
C569   H583    1.084   .     S
C570   H581    1.080   .     S
C571   H572    1.085   .     S
H574   C1166   1.086   1_554 S
H576   C431    1.082   1_655 S
N585   Zn602   2.013   .     S
N586   Zn603   2.012   .     S
O590   Zn602   2.011   .     S
O594   Zn603   2.015   .     S
O595   Zn602   1.952   .     S
O596   Zn603   1.900   .     S
O597   Zn602   2.015   .     S
O598   Zn603   2.011   .     S
O599   Zn602   1.900   .     S
O600   Zn603   1.952   .     S
C604   O657    1.283   .     A
C604   O661    1.284   .     A
C604   C612    1.416   .     S
C605   C607    1.472   .     S
C605   C626    1.413   .     A
C605   C622    1.426   .     A
C606   C612    1.388   .     A
C606   H651    1.086   .     S
C606   C809    1.371   .     S
C607   O663    1.298   .     A
C607   O662    1.292   .     A
C608   C609    1.423   .     A
C608   C625    1.448   .     S
C608   C1008   1.371   1_545 S
C609   C610    1.418   .     A
C609   C618    1.443   .     S
C610   C627    1.446   .     S
C610   C1013   1.371   1_545 S
C611   H644    1.086   .     S
C611   C612    1.388   .     A
C611   C811    1.371   .     S
C613   H645    1.082   .     S
C613   N653    1.365   .     A
C613   C681    1.416   .     S
C614   H646    1.080   .     S
C614   N652    1.368   .     A
C614   C747    1.416   1_455 S
C615   C626    1.395   .     A
C615   C21     1.412   1_556 S
C615   C30     1.413   1_556 S
C616   N652    1.354   .     A
C616   H647    1.080   .     S
C616   C751    1.417   1_455 S
C617   N653    1.385   .     A
C617   C628    1.479   .     S
C617   C683    1.417   .     S
C618   O665    1.285   .     A
C618   O664    1.292   .     A
C619   O666    1.294   .     A
C619   O667    1.290   .     A
C619   C621    1.451   .     S
C620   C638    1.402   .     A
C621   C637    1.378   .     A
C621   C638    1.394   .     A
C622   C631    1.484   .     S
C622   C20     1.415   1_556 S
C623   C632    1.491   .     S
C623   C624    1.398   .     A
C624   H649    1.080   .     S
C625   N654    1.157   .     T
C626   C636    1.412   .     A
C627   N655    1.157   .     T
C628   O668    1.221   .     D
C628   H640    1.076   .     S
C629   N656    1.158   .     T
C629   C635    1.445   .     S
C630   O658    1.221   .     D
C630   C17     1.482   1_556 S
C630   H38     1.086   1_556 S
C631   O659    1.220   .     D
C631   H642    1.085   .     S
C632   O660    1.222   .     D
C632   H777    1.082   1_455 S
C633   C637    1.389   .     A
C634   C635    1.416   .     A
C634   C17     1.433   1_556 S
C634   C30     1.428   1_556 S
C635   C636    1.397   .     A
C636   H650    1.084   .     S
C637   H648    1.080   .     S
C638   H639    1.085   .     S
H643   C699    1.082   .     S
N652   Zn669   2.013   .     S
N653   Zn670   2.012   .     S
O657   Zn669   2.011   .     S
O661   Zn670   2.015   .     S
O662   Zn669   1.952   .     S
O663   Zn670   1.900   .     S
O664   Zn669   2.015   .     S
O665   Zn670   2.011   .     S
O666   Zn669   1.900   .     S
O667   Zn670   1.952   .     S
C671   O724    1.283   .     A
C671   O728    1.284   .     A
C671   C679    1.416   .     S
C672   C674    1.472   .     S
C672   C693    1.413   .     A
C672   C689    1.426   .     A
C673   C679    1.388   .     A
C673   H718    1.086   .     S
C673   C876    1.371   .     S
C674   O730    1.298   .     A
C674   O729    1.292   .     A
C675   C676    1.423   .     A
C675   C692    1.448   .     S
C675   C1075   1.371   1_545 S
C676   C677    1.418   .     A
C676   C685    1.443   .     S
C677   C694    1.446   .     S
C677   C1080   1.371   1_545 S
C678   H711    1.086   .     S
C678   C679    1.388   .     A
C678   C878    1.371   .     S
C680   H712    1.082   .     S
C680   N720    1.365   .     A
C680   C748    1.416   .     S
C681   H713    1.080   .     S
C681   N719    1.368   .     A
C682   C693    1.395   .     A
C682   C88     1.412   1_556 S
C682   C97     1.413   1_556 S
C683   N719    1.354   .     A
C683   H714    1.080   .     S
C684   N720    1.385   .     A
C684   C695    1.479   .     S
C684   C750    1.417   .     S
C685   O732    1.285   .     A
C685   O731    1.292   .     A
C686   O733    1.294   .     A
C686   O734    1.290   .     A
C686   C688    1.451   .     S
C687   C705    1.402   .     A
C688   C704    1.378   .     A
C688   C705    1.394   .     A
C689   C698    1.484   .     S
C689   C87     1.415   1_556 S
C690   C699    1.491   .     S
C690   C691    1.398   .     A
C691   H716    1.080   .     S
C692   N721    1.157   .     T
C693   C703    1.412   .     A
C694   N722    1.157   .     T
C695   O735    1.221   .     D
C695   H707    1.076   .     S
C696   N723    1.158   .     T
C696   C702    1.445   .     S
C697   O725    1.221   .     D
C697   C84     1.482   1_556 S
C697   H105    1.086   1_556 S
C698   O726    1.220   .     D
C698   H709    1.085   .     S
C699   O727    1.222   .     D
C700   C704    1.389   .     A
C701   C702    1.416   .     A
C701   C84     1.433   1_556 S
C701   C97     1.428   1_556 S
C702   C703    1.397   .     A
C703   H717    1.084   .     S
C704   H715    1.080   .     S
C705   H706    1.085   .     S
H710   C766    1.082   .     S
N719   Zn736   2.013   .     S
N720   Zn737   2.012   .     S
O724   Zn736   2.011   .     S
O728   Zn737   2.015   .     S
O729   Zn736   1.952   .     S
O730   Zn737   1.900   .     S
O731   Zn736   2.015   .     S
O732   Zn737   2.011   .     S
O733   Zn736   1.900   .     S
O734   Zn737   1.952   .     S
C738   O791    1.283   .     A
C738   O795    1.284   .     A
C738   C746    1.416   .     S
C739   C741    1.472   .     S
C739   C760    1.413   .     A
C739   C756    1.426   .     A
C740   C746    1.388   .     A
C740   H785    1.086   .     S
C740   C943    1.371   .     S
C741   O797    1.298   .     A
C741   O796    1.292   .     A
C742   C743    1.423   .     A
C742   C759    1.448   .     S
C742   C1142   1.371   1_545 S
C743   C744    1.418   .     A
C743   C752    1.443   .     S
C744   C761    1.446   .     S
C744   C1147   1.371   1_545 S
C745   H778    1.086   .     S
C745   C746    1.388   .     A
C745   C945    1.371   .     S
C747   H779    1.082   .     S
C747   N787    1.365   .     A
C747   C614    1.416   1_655 S
C748   H780    1.080   .     S
C748   N786    1.368   .     A
C749   C760    1.395   .     A
C749   C155    1.412   1_556 S
C749   C164    1.413   1_556 S
C750   N786    1.354   .     A
C750   H781    1.080   .     S
C751   N787    1.385   .     A
C751   C762    1.479   .     S
C751   C616    1.417   1_655 S
C752   O799    1.285   .     A
C752   O798    1.292   .     A
C753   O800    1.294   .     A
C753   O801    1.290   .     A
C753   C755    1.451   .     S
C754   C772    1.402   .     A
C755   C771    1.378   .     A
C755   C772    1.394   .     A
C756   C765    1.484   .     S
C756   C154    1.415   1_556 S
C757   C766    1.491   .     S
C757   C758    1.398   .     A
C758   H783    1.080   .     S
C759   N788    1.157   .     T
C760   C770    1.412   .     A
C761   N789    1.157   .     T
C762   O802    1.221   .     D
C762   H774    1.076   .     S
C763   N790    1.158   .     T
C763   C769    1.445   .     S
C764   O792    1.221   .     D
C764   C151    1.482   1_556 S
C764   H172    1.086   1_556 S
C765   O793    1.220   .     D
C765   H776    1.085   .     S
C766   O794    1.222   .     D
C767   C771    1.389   .     A
C768   C769    1.416   .     A
C768   C151    1.433   1_556 S
C768   C164    1.428   1_556 S
C769   C770    1.397   .     A
C770   H784    1.084   .     S
C771   H782    1.080   .     S
C772   H773    1.085   .     S
H777   C632    1.082   1_655 S
N786   Zn803   2.013   .     S
N787   Zn804   2.012   .     S
O791   Zn803   2.011   .     S
O795   Zn804   2.015   .     S
O796   Zn803   1.952   .     S
O797   Zn804   1.900   .     S
O798   Zn803   2.015   .     S
O799   Zn804   2.011   .     S
O800   Zn803   1.900   .     S
O801   Zn804   1.952   .     S
C805   O858    1.283   .     A
C805   O862    1.284   .     A
C805   C813    1.416   .     S
C806   C808    1.472   .     S
C806   C827    1.413   .     A
C806   C823    1.426   .     A
C807   C813    1.388   .     A
C807   H852    1.086   .     S
C807   C1010   1.371   .     S
C808   O864    1.298   .     A
C808   O863    1.292   .     A
C809   C810    1.423   .     A
C809   C826    1.448   .     S
C810   C811    1.418   .     A
C810   C819    1.443   .     S
C811   C828    1.446   .     S
C812   H845    1.086   .     S
C812   C813    1.388   .     A
C812   C1012   1.371   .     S
C814   H846    1.082   .     S
C814   N854    1.365   .     A
C814   C882    1.416   .     S
C815   H847    1.080   .     S
C815   N853    1.368   .     A
C815   C948    1.416   1_455 S
C816   C827    1.395   .     A
C816   C222    1.412   1_556 S
C816   C231    1.413   1_556 S
C817   N853    1.354   .     A
C817   H848    1.080   .     S
C817   C952    1.417   1_455 S
C818   N854    1.385   .     A
C818   C829    1.479   .     S
C818   C884    1.417   .     S
C819   O866    1.285   .     A
C819   O865    1.292   .     A
C820   O867    1.294   .     A
C820   O868    1.290   .     A
C820   C822    1.451   .     S
C821   C839    1.402   .     A
C822   C838    1.378   .     A
C822   C839    1.394   .     A
C823   C832    1.484   .     S
C823   C221    1.415   1_556 S
C824   C833    1.491   .     S
C824   C825    1.398   .     A
C825   H850    1.080   .     S
C826   N855    1.157   .     T
C827   C837    1.412   .     A
C828   N856    1.157   .     T
C829   O869    1.221   .     D
C829   H841    1.076   .     S
C830   N857    1.158   .     T
C830   C836    1.445   .     S
C831   O859    1.221   .     D
C831   C218    1.482   1_556 S
C831   H239    1.086   1_556 S
C832   O860    1.220   .     D
C832   H843    1.085   .     S
C833   O861    1.222   .     D
C833   H978    1.082   1_455 S
C834   C838    1.389   .     A
C835   C836    1.416   .     A
C835   C218    1.433   1_556 S
C835   C231    1.428   1_556 S
C836   C837    1.397   .     A
C837   H851    1.084   .     S
C838   H849    1.080   .     S
C839   H840    1.085   .     S
H844   C900    1.082   .     S
N853   Zn870   2.013   .     S
N854   Zn871   2.012   .     S
O858   Zn870   2.011   .     S
O862   Zn871   2.015   .     S
O863   Zn870   1.952   .     S
O864   Zn871   1.900   .     S
O865   Zn870   2.015   .     S
O866   Zn871   2.011   .     S
O867   Zn870   1.900   .     S
O868   Zn871   1.952   .     S
C872   O925    1.283   .     A
C872   O929    1.284   .     A
C872   C880    1.416   .     S
C873   C875    1.472   .     S
C873   C894    1.413   .     A
C873   C890    1.426   .     A
C874   C880    1.388   .     A
C874   H919    1.086   .     S
C874   C1077   1.371   .     S
C875   O931    1.298   .     A
C875   O930    1.292   .     A
C876   C877    1.423   .     A
C876   C893    1.448   .     S
C877   C878    1.418   .     A
C877   C886    1.443   .     S
C878   C895    1.446   .     S
C879   H912    1.086   .     S
C879   C880    1.388   .     A
C879   C1079   1.371   .     S
C881   H913    1.082   .     S
C881   N921    1.365   .     A
C881   C949    1.416   .     S
C882   H914    1.080   .     S
C882   N920    1.368   .     A
C883   C894    1.395   .     A
C883   C289    1.412   1_556 S
C883   C298    1.413   1_556 S
C884   N920    1.354   .     A
C884   H915    1.080   .     S
C885   N921    1.385   .     A
C885   C896    1.479   .     S
C885   C951    1.417   .     S
C886   O933    1.285   .     A
C886   O932    1.292   .     A
C887   O934    1.294   .     A
C887   O935    1.290   .     A
C887   C889    1.451   .     S
C888   C906    1.402   .     A
C889   C905    1.378   .     A
C889   C906    1.394   .     A
C890   C899    1.484   .     S
C890   C288    1.415   1_556 S
C891   C900    1.491   .     S
C891   C892    1.398   .     A
C892   H917    1.080   .     S
C893   N922    1.157   .     T
C894   C904    1.412   .     A
C895   N923    1.157   .     T
C896   O936    1.221   .     D
C896   H908    1.076   .     S
C897   N924    1.158   .     T
C897   C903    1.445   .     S
C898   O926    1.221   .     D
C898   C285    1.482   1_556 S
C898   H306    1.086   1_556 S
C899   O927    1.220   .     D
C899   H910    1.085   .     S
C900   O928    1.222   .     D
C901   C905    1.389   .     A
C902   C903    1.416   .     A
C902   C285    1.433   1_556 S
C902   C298    1.428   1_556 S
C903   C904    1.397   .     A
C904   H918    1.084   .     S
C905   H916    1.080   .     S
C906   H907    1.085   .     S
H911   C967    1.082   .     S
N920   Zn937   2.013   .     S
N921   Zn938   2.012   .     S
O925   Zn937   2.011   .     S
O929   Zn938   2.015   .     S
O930   Zn937   1.952   .     S
O931   Zn938   1.900   .     S
O932   Zn937   2.015   .     S
O933   Zn938   2.011   .     S
O934   Zn937   1.900   .     S
O935   Zn938   1.952   .     S
C939   O992    1.283   .     A
C939   O996    1.284   .     A
C939   C947    1.416   .     S
C940   C942    1.472   .     S
C940   C961    1.413   .     A
C940   C957    1.426   .     A
C941   C947    1.388   .     A
C941   H986    1.086   .     S
C941   C1144   1.371   .     S
C942   O998    1.298   .     A
C942   O997    1.292   .     A
C943   C944    1.423   .     A
C943   C960    1.448   .     S
C944   C945    1.418   .     A
C944   C953    1.443   .     S
C945   C962    1.446   .     S
C946   H979    1.086   .     S
C946   C947    1.388   .     A
C946   C1146   1.371   .     S
C948   H980    1.082   .     S
C948   N988    1.365   .     A
C948   C815    1.416   1_655 S
C949   H981    1.080   .     S
C949   N987    1.368   .     A
C950   C961    1.395   .     A
C950   C356    1.412   1_556 S
C950   C365    1.413   1_556 S
C951   N987    1.354   .     A
C951   H982    1.080   .     S
C952   N988    1.385   .     A
C952   C963    1.479   .     S
C952   C817    1.417   1_655 S
C953   O1000   1.285   .     A
C953   O999    1.292   .     A
C954   O1001   1.294   .     A
C954   O1002   1.290   .     A
C954   C956    1.451   .     S
C955   C973    1.402   .     A
C956   C972    1.378   .     A
C956   C973    1.394   .     A
C957   C966    1.484   .     S
C957   C355    1.415   1_556 S
C958   C967    1.491   .     S
C958   C959    1.398   .     A
C959   H984    1.080   .     S
C960   N989    1.157   .     T
C961   C971    1.412   .     A
C962   N990    1.157   .     T
C963   O1003   1.221   .     D
C963   H975    1.076   .     S
C964   N991    1.158   .     T
C964   C970    1.445   .     S
C965   O993    1.221   .     D
C965   C352    1.482   1_556 S
C965   H373    1.086   1_556 S
C966   O994    1.220   .     D
C966   H977    1.085   .     S
C967   O995    1.222   .     D
C968   C972    1.389   .     A
C969   C970    1.416   .     A
C969   C352    1.433   1_556 S
C969   C365    1.428   1_556 S
C970   C971    1.397   .     A
C971   H985    1.084   .     S
C972   H983    1.080   .     S
C973   H974    1.085   .     S
H978   C833    1.082   1_655 S
N987   Zn1004  2.013   .     S
N988   Zn1005  2.012   .     S
O992   Zn1004  2.011   .     S
O996   Zn1005  2.015   .     S
O997   Zn1004  1.952   .     S
O998   Zn1005  1.900   .     S
O999   Zn1004  2.015   .     S
O1000  Zn1005  2.011   .     S
O1001  Zn1004  1.900   .     S
O1002  Zn1005  1.952   .     S
C1006  O1059   1.283   .     A
C1006  O1063   1.284   .     A
C1006  C1014   1.416   .     S
C1007  C1009   1.472   .     S
C1007  C1028   1.413   .     A
C1007  C1024   1.426   .     A
C1008  C1014   1.388   .     A
C1008  H1053   1.086   .     S
C1008  C608    1.371   1_565 S
C1009  O1065   1.298   .     A
C1009  O1064   1.292   .     A
C1010  C1011   1.423   .     A
C1010  C1027   1.448   .     S
C1011  C1012   1.418   .     A
C1011  C1020   1.443   .     S
C1012  C1029   1.446   .     S
C1013  H1046   1.086   .     S
C1013  C1014   1.388   .     A
C1013  C610    1.371   1_565 S
C1015  H1047   1.082   .     S
C1015  N1055   1.365   .     A
C1015  C1083   1.416   .     S
C1016  H1048   1.080   .     S
C1016  N1054   1.368   .     A
C1016  C1149   1.416   1_455 S
C1017  C1028   1.395   .     A
C1017  C423    1.412   1_556 S
C1017  C432    1.413   1_556 S
C1018  N1054   1.354   .     A
C1018  H1049   1.080   .     S
C1018  C1153   1.417   1_455 S
C1019  N1055   1.385   .     A
C1019  C1030   1.479   .     S
C1019  C1085   1.417   .     S
C1020  O1067   1.285   .     A
C1020  O1066   1.292   .     A
C1021  O1068   1.294   .     A
C1021  O1069   1.290   .     A
C1021  C1023   1.451   .     S
C1022  C1040   1.402   .     A
C1023  C1039   1.378   .     A
C1023  C1040   1.394   .     A
C1024  C1033   1.484   .     S
C1024  C422    1.415   1_556 S
C1025  C1034   1.491   .     S
C1025  C1026   1.398   .     A
C1026  H1051   1.080   .     S
C1027  N1056   1.157   .     T
C1028  C1038   1.412   .     A
C1029  N1057   1.157   .     T
C1030  O1070   1.221   .     D
C1030  H1042   1.076   .     S
C1031  N1058   1.158   .     T
C1031  C1037   1.445   .     S
C1032  O1060   1.221   .     D
C1032  C419    1.482   1_556 S
C1032  H440    1.086   1_556 S
C1033  O1061   1.220   .     D
C1033  H1044   1.085   .     S
C1034  O1062   1.222   .     D
C1034  H1179   1.082   1_455 S
C1035  C1039   1.389   .     A
C1036  C1037   1.416   .     A
C1036  C419    1.433   1_556 S
C1036  C432    1.428   1_556 S
C1037  C1038   1.397   .     A
C1038  H1052   1.084   .     S
C1039  H1050   1.080   .     S
C1040  H1041   1.085   .     S
H1045  C1101   1.082   .     S
N1054  Zn1071  2.013   .     S
N1055  Zn1072  2.012   .     S
O1059  Zn1071  2.011   .     S
O1063  Zn1072  2.015   .     S
O1064  Zn1071  1.952   .     S
O1065  Zn1072  1.900   .     S
O1066  Zn1071  2.015   .     S
O1067  Zn1072  2.011   .     S
O1068  Zn1071  1.900   .     S
O1069  Zn1072  1.952   .     S
C1073  O1126   1.283   .     A
C1073  O1130   1.284   .     A
C1073  C1081   1.416   .     S
C1074  C1076   1.472   .     S
C1074  C1095   1.413   .     A
C1074  C1091   1.426   .     A
C1075  C1081   1.388   .     A
C1075  H1120   1.086   .     S
C1075  C675    1.371   1_565 S
C1076  O1132   1.298   .     A
C1076  O1131   1.292   .     A
C1077  C1078   1.423   .     A
C1077  C1094   1.448   .     S
C1078  C1079   1.418   .     A
C1078  C1087   1.443   .     S
C1079  C1096   1.446   .     S
C1080  H1113   1.086   .     S
C1080  C1081   1.388   .     A
C1080  C677    1.371   1_565 S
C1082  H1114   1.082   .     S
C1082  N1122   1.365   .     A
C1082  C1150   1.416   .     S
C1083  H1115   1.080   .     S
C1083  N1121   1.368   .     A
C1084  C1095   1.395   .     A
C1084  C490    1.412   1_556 S
C1084  C499    1.413   1_556 S
C1085  N1121   1.354   .     A
C1085  H1116   1.080   .     S
C1086  N1122   1.385   .     A
C1086  C1097   1.479   .     S
C1086  C1152   1.417   .     S
C1087  O1134   1.285   .     A
C1087  O1133   1.292   .     A
C1088  O1135   1.294   .     A
C1088  O1136   1.290   .     A
C1088  C1090   1.451   .     S
C1089  C1107   1.402   .     A
C1090  C1106   1.378   .     A
C1090  C1107   1.394   .     A
C1091  C1100   1.484   .     S
C1091  C489    1.415   1_556 S
C1092  C1101   1.491   .     S
C1092  C1093   1.398   .     A
C1093  H1118   1.080   .     S
C1094  N1123   1.157   .     T
C1095  C1105   1.412   .     A
C1096  N1124   1.157   .     T
C1097  O1137   1.221   .     D
C1097  H1109   1.076   .     S
C1098  N1125   1.158   .     T
C1098  C1104   1.445   .     S
C1099  O1127   1.221   .     D
C1099  C486    1.482   1_556 S
C1099  H507    1.086   1_556 S
C1100  O1128   1.220   .     D
C1100  H1111   1.085   .     S
C1101  O1129   1.222   .     D
C1102  C1106   1.389   .     A
C1103  C1104   1.416   .     A
C1103  C486    1.433   1_556 S
C1103  C499    1.428   1_556 S
C1104  C1105   1.397   .     A
C1105  H1119   1.084   .     S
C1106  H1117   1.080   .     S
C1107  H1108   1.085   .     S
H1112  C1168   1.082   .     S
N1121  Zn1138  2.013   .     S
N1122  Zn1139  2.012   .     S
O1126  Zn1138  2.011   .     S
O1130  Zn1139  2.015   .     S
O1131  Zn1138  1.952   .     S
O1132  Zn1139  1.900   .     S
O1133  Zn1138  2.015   .     S
O1134  Zn1139  2.011   .     S
O1135  Zn1138  1.900   .     S
O1136  Zn1139  1.952   .     S
C1140  O1193   1.283   .     A
C1140  O1197   1.284   .     A
C1140  C1148   1.416   .     S
C1141  C1143   1.472   .     S
C1141  C1162   1.413   .     A
C1141  C1158   1.426   .     A
C1142  C1148   1.388   .     A
C1142  H1187   1.086   .     S
C1142  C742    1.371   1_565 S
C1143  O1199   1.298   .     A
C1143  O1198   1.292   .     A
C1144  C1145   1.423   .     A
C1144  C1161   1.448   .     S
C1145  C1146   1.418   .     A
C1145  C1154   1.443   .     S
C1146  C1163   1.446   .     S
C1147  H1180   1.086   .     S
C1147  C1148   1.388   .     A
C1147  C744    1.371   1_565 S
C1149  H1181   1.082   .     S
C1149  N1189   1.365   .     A
C1149  C1016   1.416   1_655 S
C1150  H1182   1.080   .     S
C1150  N1188   1.368   .     A
C1151  C1162   1.395   .     A
C1151  C557    1.412   1_556 S
C1151  C566    1.413   1_556 S
C1152  N1188   1.354   .     A
C1152  H1183   1.080   .     S
C1153  N1189   1.385   .     A
C1153  C1164   1.479   .     S
C1153  C1018   1.417   1_655 S
C1154  O1201   1.285   .     A
C1154  O1200   1.292   .     A
C1155  O1202   1.294   .     A
C1155  O1203   1.290   .     A
C1155  C1157   1.451   .     S
C1156  C1174   1.402   .     A
C1157  C1173   1.378   .     A
C1157  C1174   1.394   .     A
C1158  C1167   1.484   .     S
C1158  C556    1.415   1_556 S
C1159  C1168   1.491   .     S
C1159  C1160   1.398   .     A
C1160  H1185   1.080   .     S
C1161  N1190   1.157   .     T
C1162  C1172   1.412   .     A
C1163  N1191   1.157   .     T
C1164  O1204   1.221   .     D
C1164  H1176   1.076   .     S
C1165  N1192   1.158   .     T
C1165  C1171   1.445   .     S
C1166  O1194   1.221   .     D
C1166  C553    1.482   1_556 S
C1166  H574    1.086   1_556 S
C1167  O1195   1.220   .     D
C1167  H1178   1.085   .     S
C1168  O1196   1.222   .     D
C1169  C1173   1.389   .     A
C1170  C1171   1.416   .     A
C1170  C553    1.433   1_556 S
C1170  C566    1.428   1_556 S
C1171  C1172   1.397   .     A
C1172  H1186   1.084   .     S
C1173  H1184   1.080   .     S
C1174  H1175   1.085   .     S
H1179  C1034   1.082   1_655 S
N1188  Zn1205  2.013   .     S
N1189  Zn1206  2.012   .     S
O1193  Zn1205  2.011   .     S
O1197  Zn1206  2.015   .     S
O1198  Zn1205  1.952   .     S
O1199  Zn1206  1.900   .     S
O1200  Zn1205  2.015   .     S
O1201  Zn1206  2.011   .     S
O1202  Zn1205  1.900   .     S
O1203  Zn1206  1.952   .     S
