data_str_m3_o1_o18_pcu_sym.109
_audit_creation_date              2020-01-03
_audit_creation_method            'Materials Studio'
_symmetry_space_group_name_H-M    'P1'
_symmetry_Int_Tables_number       1
_symmetry_cell_setting            triclinic
loop_
_symmetry_equiv_pos_as_xyz
  x,y,z
_cell_length_a                    29.7457
_cell_length_b                    32.0396
_cell_length_c                    30.9803
_cell_angle_alpha                 91.0159
_cell_angle_beta                  68.1732
_cell_angle_gamma                 90.7041
loop_
_atom_site_label
_atom_site_type_symbol
_atom_site_fract_x
_atom_site_fract_y
_atom_site_fract_z
_atom_site_U_iso_or_equiv
_atom_site_adp_type
_atom_site_occupancy
C1     C     0.16677   0.24661   0.25023   0.00000  Uiso   1.00
C2     C     0.16656   0.08672   0.24979   0.00000  Uiso   1.00
C3     C     0.11958   0.21177   0.04583   0.00000  Uiso   1.00
C4     C     0.22820   0.17611   0.44616   0.00000  Uiso   1.00
C5     C     0.08607   0.21669   0.02478   0.00000  Uiso   1.00
C6     C     0.26185   0.17106   0.46689   0.00000  Uiso   1.00
C7     C     0.21087   0.31215   0.23232   0.00000  Uiso   1.00
C8     C     0.12245   0.02117   0.26772   0.00000  Uiso   1.00
C9     C     0.21072   0.02159   0.23193   0.00000  Uiso   1.00
C10    C     0.12260   0.31173   0.26812   0.00000  Uiso   1.00
C11    C     0.16650   0.04254   0.24960   0.00000  Uiso   1.00
C12    C     0.16683   0.29079   0.25043   0.00000  Uiso   1.00
C13    C     0.31605   0.13444   0.23043   0.00000  Uiso   1.00
C14    C     0.01727   0.19888   0.26961   0.00000  Uiso   1.00
C15    C     0.03056   0.13428   0.22993   0.00000  Uiso   1.00
C16    C     0.30276   0.19903   0.27011   0.00000  Uiso   1.00
C17    C     0.13642   0.16728   0.33789   0.00000  Uiso   1.00
C18    C     0.19697   0.16732   0.16215   0.00000  Uiso   1.00
C19    C     0.11860   0.17436   0.38802   0.00000  Uiso   1.00
C20    C     0.21595   0.17098   0.11171   0.00000  Uiso   1.00
C21    C     0.06248   0.20641   0.45830   0.00000  Uiso   1.00
C22    C     0.27987   0.16327   0.03624   0.00000  Uiso   1.00
C23    C     0.07364   0.19279   0.41246   0.00000  Uiso   1.00
C24    C     0.26430   0.16216   0.08451   0.00000  Uiso   1.00
C25    C     0.15143   0.16888   0.40973   0.00000  Uiso   1.00
C26    C     0.18419   0.18319   0.09074   0.00000  Uiso   1.00
C27    C     0.14305   0.18588   0.45367   0.00000  Uiso   1.00
C28    C     0.19900   0.18498   0.04249   0.00000  Uiso   1.00
C29    C     0.09692   0.20302   0.47913   0.00000  Uiso   1.00
C30    C     0.24727   0.17351   0.01503   0.00000  Uiso   1.00
C31    C     0.17914   0.18516   0.47315   0.00000  Uiso   1.00
C32    C     0.16580   0.19430   0.02105   0.00000  Uiso   1.00
H33    H     0.05118   0.23041   0.04464   0.00000  Uiso   1.00
H34    H     0.29888   0.16339   0.44530   0.00000  Uiso   1.00
H35    H     0.14705   0.18898   0.11273   0.00000  Uiso   1.00
H36    H     0.18407   0.15164   0.39120   0.00000  Uiso   1.00
H37    H     0.28947   0.15305   0.10042   0.00000  Uiso   1.00
H38    H     0.04801   0.19783   0.39580   0.00000  Uiso   1.00
H39    H     0.02759   0.22058   0.47699   0.00000  Uiso   1.00
H40    H     0.31680   0.15457   0.01555   0.00000  Uiso   1.00
H41    H     0.10893   0.22323   0.08115   0.00000  Uiso   1.00
H42    H     0.24179   0.17366   0.40870   0.00000  Uiso   1.00
H43    H     0.24508   0.29586   0.21795   0.00000  Uiso   1.00
H44    H     0.08824   0.03747   0.28208   0.00000  Uiso   1.00
H45    H     0.24492   0.03820   0.21751   0.00000  Uiso   1.00
H46    H     0.08840   0.29512   0.28255   0.00000  Uiso   1.00
H47    H     0.30334   0.10895   0.21444   0.00000  Uiso   1.00
H48    H     0.02997   0.22436   0.28562   0.00000  Uiso   1.00
N49    N     0.04759   0.16668   0.25001   0.00000  Uiso   1.00
N50    N     0.28574   0.16666   0.24999   0.00000  Uiso   1.00
O51    O     0.12846   0.22775   0.25000   0.00000  Uiso   1.00
O52    O     0.20488   0.10558   0.25000   0.00000  Uiso   1.00
O53    O     0.20490   0.22774   0.25000   0.00000  Uiso   1.00
O54    O     0.12843   0.10559   0.25000   0.00000  Uiso   1.00
O55    O     0.10661   0.16667   0.31612   0.00000  Uiso   1.00
O56    O     0.22672   0.16666   0.18388   0.00000  Uiso   1.00
O57    O     0.18305   0.16666   0.31612   0.00000  Uiso   1.00
O58    O     0.15028   0.16667   0.18388   0.00000  Uiso   1.00
Zn59   Zn    0.11562   0.16667   0.25000   0.00000  Uiso   1.00
Zn60   Zn    0.21771   0.16666   0.25000   0.00000  Uiso   1.00
C61    C     0.06061   0.09819   0.20696   0.00000  Uiso   1.00
O62    O     0.09922   0.10322   0.17477   0.00000  Uiso   1.00
O63    O     0.04287   0.05786   0.21999   0.00000  Uiso   1.00
H64    H     0.06604   0.03547   0.20117   0.00000  Uiso   1.00
C65    C     0.27269   0.23511   0.29313   0.00000  Uiso   1.00
O66    O     0.23415   0.23006   0.32539   0.00000  Uiso   1.00
O67    O     0.29038   0.27545   0.28007   0.00000  Uiso   1.00
H68    H     0.26722   0.29782   0.29894   0.00000  Uiso   1.00
C69    C     0.50011   0.24661   0.25023   0.00000  Uiso   1.00
C70    C     0.49989   0.08672   0.24979   0.00000  Uiso   1.00
C71    C     0.45292   0.21177   0.04583   0.00000  Uiso   1.00
C72    C     0.56154   0.17611   0.44616   0.00000  Uiso   1.00
C73    C     0.41940   0.21669   0.02478   0.00000  Uiso   1.00
C74    C     0.59518   0.17106   0.46689   0.00000  Uiso   1.00
C75    C     0.54420   0.31215   0.23232   0.00000  Uiso   1.00
C76    C     0.45579   0.02117   0.26772   0.00000  Uiso   1.00
C77    C     0.54405   0.02159   0.23193   0.00000  Uiso   1.00
C78    C     0.45594   0.31173   0.26812   0.00000  Uiso   1.00
C79    C     0.49983   0.04254   0.24960   0.00000  Uiso   1.00
C80    C     0.50016   0.29079   0.25043   0.00000  Uiso   1.00
C81    C     0.64938   0.13444   0.23043   0.00000  Uiso   1.00
C82    C     0.35061   0.19888   0.26961   0.00000  Uiso   1.00
C83    C     0.36389   0.13428   0.22993   0.00000  Uiso   1.00
C84    C     0.63609   0.19903   0.27011   0.00000  Uiso   1.00
C85    C     0.46975   0.16728   0.33789   0.00000  Uiso   1.00
C86    C     0.53030   0.16732   0.16215   0.00000  Uiso   1.00
C87    C     0.45193   0.17436   0.38802   0.00000  Uiso   1.00
C88    C     0.54928   0.17098   0.11171   0.00000  Uiso   1.00
C89    C     0.39581   0.20641   0.45830   0.00000  Uiso   1.00
C90    C     0.61320   0.16327   0.03624   0.00000  Uiso   1.00
C91    C     0.40697   0.19279   0.41246   0.00000  Uiso   1.00
C92    C     0.59763   0.16216   0.08451   0.00000  Uiso   1.00
C93    C     0.48476   0.16888   0.40973   0.00000  Uiso   1.00
C94    C     0.51753   0.18319   0.09074   0.00000  Uiso   1.00
C95    C     0.47639   0.18588   0.45367   0.00000  Uiso   1.00
C96    C     0.53233   0.18498   0.04249   0.00000  Uiso   1.00
C97    C     0.43025   0.20302   0.47913   0.00000  Uiso   1.00
C98    C     0.58060   0.17351   0.01503   0.00000  Uiso   1.00
C99    C     0.51248   0.18516   0.47315   0.00000  Uiso   1.00
C100   C     0.49913   0.19430   0.02105   0.00000  Uiso   1.00
H101   H     0.38452   0.23041   0.04464   0.00000  Uiso   1.00
H102   H     0.63222   0.16339   0.44530   0.00000  Uiso   1.00
H103   H     0.48038   0.18898   0.11273   0.00000  Uiso   1.00
H104   H     0.51740   0.15164   0.39120   0.00000  Uiso   1.00
H105   H     0.62280   0.15305   0.10042   0.00000  Uiso   1.00
H106   H     0.38134   0.19783   0.39580   0.00000  Uiso   1.00
H107   H     0.36092   0.22058   0.47699   0.00000  Uiso   1.00
H108   H     0.65013   0.15457   0.01555   0.00000  Uiso   1.00
H109   H     0.44226   0.22323   0.08115   0.00000  Uiso   1.00
H110   H     0.57513   0.17366   0.40870   0.00000  Uiso   1.00
H111   H     0.57841   0.29586   0.21795   0.00000  Uiso   1.00
H112   H     0.42158   0.03747   0.28208   0.00000  Uiso   1.00
H113   H     0.57825   0.03820   0.21751   0.00000  Uiso   1.00
H114   H     0.42174   0.29512   0.28255   0.00000  Uiso   1.00
H115   H     0.63667   0.10895   0.21444   0.00000  Uiso   1.00
H116   H     0.36331   0.22436   0.28562   0.00000  Uiso   1.00
N117   N     0.38093   0.16668   0.25001   0.00000  Uiso   1.00
N118   N     0.61907   0.16666   0.24999   0.00000  Uiso   1.00
O119   O     0.46179   0.22775   0.25000   0.00000  Uiso   1.00
O120   O     0.53821   0.10558   0.25000   0.00000  Uiso   1.00
O121   O     0.53823   0.22774   0.25000   0.00000  Uiso   1.00
O122   O     0.46177   0.10559   0.25000   0.00000  Uiso   1.00
O123   O     0.43994   0.16667   0.31612   0.00000  Uiso   1.00
O124   O     0.56006   0.16666   0.18388   0.00000  Uiso   1.00
O125   O     0.51639   0.16666   0.31612   0.00000  Uiso   1.00
O126   O     0.48361   0.16667   0.18388   0.00000  Uiso   1.00
Zn127  Zn    0.44896   0.16667   0.25000   0.00000  Uiso   1.00
Zn128  Zn    0.55104   0.16666   0.25000   0.00000  Uiso   1.00
C129   C     0.39395   0.09819   0.20696   0.00000  Uiso   1.00
O130   O     0.43255   0.10322   0.17477   0.00000  Uiso   1.00
O131   O     0.37620   0.05786   0.21999   0.00000  Uiso   1.00
H132   H     0.39937   0.03547   0.20117   0.00000  Uiso   1.00
C133   C     0.60602   0.23511   0.29313   0.00000  Uiso   1.00
O134   O     0.56748   0.23006   0.32539   0.00000  Uiso   1.00
O135   O     0.62371   0.27545   0.28007   0.00000  Uiso   1.00
H136   H     0.60055   0.29782   0.29894   0.00000  Uiso   1.00
C137   C     0.83344   0.24661   0.25023   0.00000  Uiso   1.00
C138   C     0.83322   0.08672   0.24979   0.00000  Uiso   1.00
C139   C     0.78625   0.21177   0.04583   0.00000  Uiso   1.00
C140   C     0.89487   0.17611   0.44616   0.00000  Uiso   1.00
C141   C     0.75274   0.21669   0.02478   0.00000  Uiso   1.00
C142   C     0.92852   0.17106   0.46689   0.00000  Uiso   1.00
C143   C     0.87753   0.31215   0.23232   0.00000  Uiso   1.00
C144   C     0.78912   0.02117   0.26772   0.00000  Uiso   1.00
C145   C     0.87739   0.02159   0.23193   0.00000  Uiso   1.00
C146   C     0.78927   0.31173   0.26812   0.00000  Uiso   1.00
C147   C     0.83316   0.04254   0.24960   0.00000  Uiso   1.00
C148   C     0.83349   0.29079   0.25043   0.00000  Uiso   1.00
C149   C     0.98271   0.13444   0.23043   0.00000  Uiso   1.00
C150   C     0.68394   0.19888   0.26961   0.00000  Uiso   1.00
C151   C     0.69722   0.13428   0.22993   0.00000  Uiso   1.00
C152   C     0.96943   0.19903   0.27011   0.00000  Uiso   1.00
C153   C     0.80308   0.16728   0.33789   0.00000  Uiso   1.00
C154   C     0.86363   0.16732   0.16215   0.00000  Uiso   1.00
C155   C     0.78526   0.17436   0.38802   0.00000  Uiso   1.00
C156   C     0.88262   0.17098   0.11171   0.00000  Uiso   1.00
C157   C     0.72915   0.20641   0.45830   0.00000  Uiso   1.00
C158   C     0.94654   0.16327   0.03624   0.00000  Uiso   1.00
C159   C     0.74031   0.19279   0.41246   0.00000  Uiso   1.00
C160   C     0.93097   0.16216   0.08451   0.00000  Uiso   1.00
C161   C     0.81810   0.16888   0.40973   0.00000  Uiso   1.00
C162   C     0.85086   0.18319   0.09074   0.00000  Uiso   1.00
C163   C     0.80972   0.18588   0.45367   0.00000  Uiso   1.00
C164   C     0.86566   0.18498   0.04249   0.00000  Uiso   1.00
C165   C     0.76359   0.20302   0.47913   0.00000  Uiso   1.00
C166   C     0.91393   0.17351   0.01503   0.00000  Uiso   1.00
C167   C     0.84581   0.18516   0.47315   0.00000  Uiso   1.00
C168   C     0.83246   0.19430   0.02105   0.00000  Uiso   1.00
H169   H     0.71785   0.23041   0.04464   0.00000  Uiso   1.00
H170   H     0.96555   0.16339   0.44530   0.00000  Uiso   1.00
H171   H     0.81372   0.18898   0.11273   0.00000  Uiso   1.00
H172   H     0.85074   0.15164   0.39120   0.00000  Uiso   1.00
H173   H     0.95614   0.15305   0.10042   0.00000  Uiso   1.00
H174   H     0.71467   0.19783   0.39580   0.00000  Uiso   1.00
H175   H     0.69425   0.22058   0.47699   0.00000  Uiso   1.00
H176   H     0.98347   0.15457   0.01555   0.00000  Uiso   1.00
H177   H     0.77559   0.22323   0.08115   0.00000  Uiso   1.00
H178   H     0.90846   0.17366   0.40870   0.00000  Uiso   1.00
H179   H     0.91174   0.29586   0.21795   0.00000  Uiso   1.00
H180   H     0.75491   0.03747   0.28208   0.00000  Uiso   1.00
H181   H     0.91159   0.03820   0.21751   0.00000  Uiso   1.00
H182   H     0.75507   0.29512   0.28255   0.00000  Uiso   1.00
H183   H     0.97001   0.10895   0.21444   0.00000  Uiso   1.00
H184   H     0.69664   0.22436   0.28562   0.00000  Uiso   1.00
N185   N     0.71426   0.16668   0.25001   0.00000  Uiso   1.00
N186   N     0.95241   0.16666   0.24999   0.00000  Uiso   1.00
O187   O     0.79512   0.22775   0.25000   0.00000  Uiso   1.00
O188   O     0.87154   0.10558   0.25000   0.00000  Uiso   1.00
O189   O     0.87157   0.22774   0.25000   0.00000  Uiso   1.00
O190   O     0.79510   0.10559   0.25000   0.00000  Uiso   1.00
O191   O     0.77328   0.16667   0.31612   0.00000  Uiso   1.00
O192   O     0.89339   0.16666   0.18388   0.00000  Uiso   1.00
O193   O     0.84972   0.16666   0.31612   0.00000  Uiso   1.00
O194   O     0.81695   0.16667   0.18388   0.00000  Uiso   1.00
Zn195  Zn    0.78229   0.16667   0.25000   0.00000  Uiso   1.00
Zn196  Zn    0.88438   0.16666   0.25000   0.00000  Uiso   1.00
C197   C     0.72728   0.09819   0.20696   0.00000  Uiso   1.00
O198   O     0.76589   0.10322   0.17477   0.00000  Uiso   1.00
O199   O     0.70953   0.05786   0.21999   0.00000  Uiso   1.00
H200   H     0.73271   0.03547   0.20117   0.00000  Uiso   1.00
C201   C     0.93936   0.23511   0.29313   0.00000  Uiso   1.00
O202   O     0.90081   0.23006   0.32539   0.00000  Uiso   1.00
O203   O     0.95705   0.27545   0.28007   0.00000  Uiso   1.00
H204   H     0.93389   0.29782   0.29894   0.00000  Uiso   1.00
C205   C     0.16677   0.57995   0.25023   0.00000  Uiso   1.00
C206   C     0.16656   0.42005   0.24979   0.00000  Uiso   1.00
C207   C     0.11958   0.54510   0.04583   0.00000  Uiso   1.00
C208   C     0.22820   0.50944   0.44616   0.00000  Uiso   1.00
C209   C     0.08607   0.55003   0.02478   0.00000  Uiso   1.00
C210   C     0.26185   0.50440   0.46689   0.00000  Uiso   1.00
C211   C     0.21087   0.64549   0.23232   0.00000  Uiso   1.00
C212   C     0.12245   0.35451   0.26772   0.00000  Uiso   1.00
C213   C     0.21072   0.35493   0.23193   0.00000  Uiso   1.00
C214   C     0.12260   0.64507   0.26812   0.00000  Uiso   1.00
C215   C     0.16650   0.37587   0.24960   0.00000  Uiso   1.00
C216   C     0.16683   0.62412   0.25043   0.00000  Uiso   1.00
C217   C     0.31605   0.46777   0.23043   0.00000  Uiso   1.00
C218   C     0.01727   0.53221   0.26961   0.00000  Uiso   1.00
C219   C     0.03056   0.46762   0.22993   0.00000  Uiso   1.00
C220   C     0.30276   0.53236   0.27011   0.00000  Uiso   1.00
C221   C     0.13642   0.50062   0.33789   0.00000  Uiso   1.00
C222   C     0.19697   0.50066   0.16215   0.00000  Uiso   1.00
C223   C     0.11860   0.50769   0.38802   0.00000  Uiso   1.00
C224   C     0.21595   0.50431   0.11171   0.00000  Uiso   1.00
C225   C     0.06248   0.53974   0.45830   0.00000  Uiso   1.00
C226   C     0.27987   0.49661   0.03624   0.00000  Uiso   1.00
C227   C     0.07364   0.52612   0.41246   0.00000  Uiso   1.00
C228   C     0.26430   0.49549   0.08451   0.00000  Uiso   1.00
C229   C     0.15143   0.50221   0.40973   0.00000  Uiso   1.00
C230   C     0.18419   0.51652   0.09074   0.00000  Uiso   1.00
C231   C     0.14305   0.51922   0.45367   0.00000  Uiso   1.00
C232   C     0.19900   0.51831   0.04249   0.00000  Uiso   1.00
C233   C     0.09692   0.53636   0.47913   0.00000  Uiso   1.00
C234   C     0.24727   0.50684   0.01503   0.00000  Uiso   1.00
C235   C     0.17914   0.51850   0.47315   0.00000  Uiso   1.00
C236   C     0.16580   0.52764   0.02105   0.00000  Uiso   1.00
H237   H     0.05118   0.56374   0.04464   0.00000  Uiso   1.00
H238   H     0.29888   0.49672   0.44530   0.00000  Uiso   1.00
H239   H     0.14705   0.52231   0.11273   0.00000  Uiso   1.00
H240   H     0.18407   0.48497   0.39120   0.00000  Uiso   1.00
H241   H     0.28947   0.48639   0.10042   0.00000  Uiso   1.00
H242   H     0.04801   0.53117   0.39580   0.00000  Uiso   1.00
H243   H     0.02759   0.55391   0.47699   0.00000  Uiso   1.00
H244   H     0.31680   0.48791   0.01555   0.00000  Uiso   1.00
H245   H     0.10893   0.55656   0.08115   0.00000  Uiso   1.00
H246   H     0.24179   0.50699   0.40870   0.00000  Uiso   1.00
H247   H     0.24508   0.62919   0.21795   0.00000  Uiso   1.00
H248   H     0.08824   0.37080   0.28208   0.00000  Uiso   1.00
H249   H     0.24492   0.37153   0.21751   0.00000  Uiso   1.00
H250   H     0.08840   0.62846   0.28255   0.00000  Uiso   1.00
H251   H     0.30334   0.44228   0.21444   0.00000  Uiso   1.00
H252   H     0.02997   0.55769   0.28562   0.00000  Uiso   1.00
N253   N     0.04759   0.50001   0.25001   0.00000  Uiso   1.00
N254   N     0.28574   0.49999   0.24999   0.00000  Uiso   1.00
O255   O     0.12846   0.56108   0.25000   0.00000  Uiso   1.00
O256   O     0.20488   0.43892   0.25000   0.00000  Uiso   1.00
O257   O     0.20490   0.56107   0.25000   0.00000  Uiso   1.00
O258   O     0.12843   0.43893   0.25000   0.00000  Uiso   1.00
O259   O     0.10661   0.50001   0.31612   0.00000  Uiso   1.00
O260   O     0.22672   0.49999   0.18388   0.00000  Uiso   1.00
O261   O     0.18305   0.50000   0.31612   0.00000  Uiso   1.00
O262   O     0.15028   0.50000   0.18388   0.00000  Uiso   1.00
Zn263  Zn    0.11562   0.50001   0.25000   0.00000  Uiso   1.00
Zn264  Zn    0.21771   0.49999   0.25000   0.00000  Uiso   1.00
C265   C     0.06061   0.43152   0.20696   0.00000  Uiso   1.00
O266   O     0.09922   0.43655   0.17477   0.00000  Uiso   1.00
O267   O     0.04287   0.39119   0.21999   0.00000  Uiso   1.00
H268   H     0.06604   0.36880   0.20117   0.00000  Uiso   1.00
C269   C     0.27269   0.56845   0.29313   0.00000  Uiso   1.00
O270   O     0.23415   0.56340   0.32539   0.00000  Uiso   1.00
O271   O     0.29038   0.60878   0.28007   0.00000  Uiso   1.00
H272   H     0.26722   0.63115   0.29894   0.00000  Uiso   1.00
C273   C     0.50011   0.57995   0.25023   0.00000  Uiso   1.00
C274   C     0.49989   0.42005   0.24979   0.00000  Uiso   1.00
C275   C     0.45292   0.54510   0.04583   0.00000  Uiso   1.00
C276   C     0.56154   0.50944   0.44616   0.00000  Uiso   1.00
C277   C     0.41940   0.55003   0.02478   0.00000  Uiso   1.00
C278   C     0.59518   0.50440   0.46689   0.00000  Uiso   1.00
C279   C     0.54420   0.64549   0.23232   0.00000  Uiso   1.00
C280   C     0.45579   0.35451   0.26772   0.00000  Uiso   1.00
C281   C     0.54405   0.35493   0.23193   0.00000  Uiso   1.00
C282   C     0.45594   0.64507   0.26812   0.00000  Uiso   1.00
C283   C     0.49983   0.37587   0.24960   0.00000  Uiso   1.00
C284   C     0.50016   0.62412   0.25043   0.00000  Uiso   1.00
C285   C     0.64938   0.46777   0.23043   0.00000  Uiso   1.00
C286   C     0.35061   0.53221   0.26961   0.00000  Uiso   1.00
C287   C     0.36389   0.46762   0.22993   0.00000  Uiso   1.00
C288   C     0.63609   0.53236   0.27011   0.00000  Uiso   1.00
C289   C     0.46975   0.50062   0.33789   0.00000  Uiso   1.00
C290   C     0.53030   0.50066   0.16215   0.00000  Uiso   1.00
C291   C     0.45193   0.50769   0.38802   0.00000  Uiso   1.00
C292   C     0.54928   0.50431   0.11171   0.00000  Uiso   1.00
C293   C     0.39581   0.53974   0.45830   0.00000  Uiso   1.00
C294   C     0.61320   0.49661   0.03624   0.00000  Uiso   1.00
C295   C     0.40697   0.52612   0.41246   0.00000  Uiso   1.00
C296   C     0.59763   0.49549   0.08451   0.00000  Uiso   1.00
C297   C     0.48476   0.50221   0.40973   0.00000  Uiso   1.00
C298   C     0.51753   0.51652   0.09074   0.00000  Uiso   1.00
C299   C     0.47639   0.51922   0.45367   0.00000  Uiso   1.00
C300   C     0.53233   0.51831   0.04249   0.00000  Uiso   1.00
C301   C     0.43025   0.53636   0.47913   0.00000  Uiso   1.00
C302   C     0.58060   0.50684   0.01503   0.00000  Uiso   1.00
C303   C     0.51248   0.51850   0.47315   0.00000  Uiso   1.00
C304   C     0.49913   0.52764   0.02105   0.00000  Uiso   1.00
H305   H     0.38452   0.56374   0.04464   0.00000  Uiso   1.00
H306   H     0.63222   0.49672   0.44530   0.00000  Uiso   1.00
H307   H     0.48038   0.52231   0.11273   0.00000  Uiso   1.00
H308   H     0.51740   0.48497   0.39120   0.00000  Uiso   1.00
H309   H     0.62280   0.48639   0.10042   0.00000  Uiso   1.00
H310   H     0.38134   0.53117   0.39580   0.00000  Uiso   1.00
H311   H     0.36092   0.55391   0.47699   0.00000  Uiso   1.00
H312   H     0.65013   0.48791   0.01555   0.00000  Uiso   1.00
H313   H     0.44226   0.55656   0.08115   0.00000  Uiso   1.00
H314   H     0.57513   0.50699   0.40870   0.00000  Uiso   1.00
H315   H     0.57841   0.62919   0.21795   0.00000  Uiso   1.00
H316   H     0.42158   0.37080   0.28208   0.00000  Uiso   1.00
H317   H     0.57825   0.37153   0.21751   0.00000  Uiso   1.00
H318   H     0.42174   0.62846   0.28255   0.00000  Uiso   1.00
H319   H     0.63667   0.44228   0.21444   0.00000  Uiso   1.00
H320   H     0.36331   0.55769   0.28562   0.00000  Uiso   1.00
N321   N     0.38093   0.50001   0.25001   0.00000  Uiso   1.00
N322   N     0.61907   0.49999   0.24999   0.00000  Uiso   1.00
O323   O     0.46179   0.56108   0.25000   0.00000  Uiso   1.00
O324   O     0.53821   0.43892   0.25000   0.00000  Uiso   1.00
O325   O     0.53823   0.56107   0.25000   0.00000  Uiso   1.00
O326   O     0.46177   0.43893   0.25000   0.00000  Uiso   1.00
O327   O     0.43994   0.50001   0.31612   0.00000  Uiso   1.00
O328   O     0.56006   0.49999   0.18388   0.00000  Uiso   1.00
O329   O     0.51639   0.50000   0.31612   0.00000  Uiso   1.00
O330   O     0.48361   0.50000   0.18388   0.00000  Uiso   1.00
Zn331  Zn    0.44896   0.50001   0.25000   0.00000  Uiso   1.00
Zn332  Zn    0.55104   0.49999   0.25000   0.00000  Uiso   1.00
C333   C     0.39395   0.43152   0.20696   0.00000  Uiso   1.00
O334   O     0.43255   0.43655   0.17477   0.00000  Uiso   1.00
O335   O     0.37620   0.39119   0.21999   0.00000  Uiso   1.00
H336   H     0.39937   0.36880   0.20117   0.00000  Uiso   1.00
C337   C     0.60602   0.56845   0.29313   0.00000  Uiso   1.00
O338   O     0.56748   0.56340   0.32539   0.00000  Uiso   1.00
O339   O     0.62371   0.60878   0.28007   0.00000  Uiso   1.00
H340   H     0.60055   0.63115   0.29894   0.00000  Uiso   1.00
C341   C     0.83344   0.57995   0.25023   0.00000  Uiso   1.00
C342   C     0.83322   0.42005   0.24979   0.00000  Uiso   1.00
C343   C     0.78625   0.54510   0.04583   0.00000  Uiso   1.00
C344   C     0.89487   0.50944   0.44616   0.00000  Uiso   1.00
C345   C     0.75274   0.55003   0.02478   0.00000  Uiso   1.00
C346   C     0.92852   0.50440   0.46689   0.00000  Uiso   1.00
C347   C     0.87753   0.64549   0.23232   0.00000  Uiso   1.00
C348   C     0.78912   0.35451   0.26772   0.00000  Uiso   1.00
C349   C     0.87739   0.35493   0.23193   0.00000  Uiso   1.00
C350   C     0.78927   0.64507   0.26812   0.00000  Uiso   1.00
C351   C     0.83316   0.37587   0.24960   0.00000  Uiso   1.00
C352   C     0.83349   0.62412   0.25043   0.00000  Uiso   1.00
C353   C     0.98271   0.46777   0.23043   0.00000  Uiso   1.00
C354   C     0.68394   0.53221   0.26961   0.00000  Uiso   1.00
C355   C     0.69722   0.46762   0.22993   0.00000  Uiso   1.00
C356   C     0.96943   0.53236   0.27011   0.00000  Uiso   1.00
C357   C     0.80308   0.50062   0.33789   0.00000  Uiso   1.00
C358   C     0.86363   0.50066   0.16215   0.00000  Uiso   1.00
C359   C     0.78526   0.50769   0.38802   0.00000  Uiso   1.00
C360   C     0.88262   0.50431   0.11171   0.00000  Uiso   1.00
C361   C     0.72915   0.53974   0.45830   0.00000  Uiso   1.00
C362   C     0.94654   0.49661   0.03624   0.00000  Uiso   1.00
C363   C     0.74031   0.52612   0.41246   0.00000  Uiso   1.00
C364   C     0.93097   0.49549   0.08451   0.00000  Uiso   1.00
C365   C     0.81810   0.50221   0.40973   0.00000  Uiso   1.00
C366   C     0.85086   0.51652   0.09074   0.00000  Uiso   1.00
C367   C     0.80972   0.51922   0.45367   0.00000  Uiso   1.00
C368   C     0.86566   0.51831   0.04249   0.00000  Uiso   1.00
C369   C     0.76359   0.53636   0.47913   0.00000  Uiso   1.00
C370   C     0.91393   0.50684   0.01503   0.00000  Uiso   1.00
C371   C     0.84581   0.51850   0.47315   0.00000  Uiso   1.00
C372   C     0.83246   0.52764   0.02105   0.00000  Uiso   1.00
H373   H     0.71785   0.56374   0.04464   0.00000  Uiso   1.00
H374   H     0.96555   0.49672   0.44530   0.00000  Uiso   1.00
H375   H     0.81372   0.52231   0.11273   0.00000  Uiso   1.00
H376   H     0.85074   0.48497   0.39120   0.00000  Uiso   1.00
H377   H     0.95614   0.48639   0.10042   0.00000  Uiso   1.00
H378   H     0.71467   0.53117   0.39580   0.00000  Uiso   1.00
H379   H     0.69425   0.55391   0.47699   0.00000  Uiso   1.00
H380   H     0.98347   0.48791   0.01555   0.00000  Uiso   1.00
H381   H     0.77559   0.55656   0.08115   0.00000  Uiso   1.00
H382   H     0.90846   0.50699   0.40870   0.00000  Uiso   1.00
H383   H     0.91174   0.62919   0.21795   0.00000  Uiso   1.00
H384   H     0.75491   0.37080   0.28208   0.00000  Uiso   1.00
H385   H     0.91159   0.37153   0.21751   0.00000  Uiso   1.00
H386   H     0.75507   0.62846   0.28255   0.00000  Uiso   1.00
H387   H     0.97001   0.44228   0.21444   0.00000  Uiso   1.00
H388   H     0.69664   0.55769   0.28562   0.00000  Uiso   1.00
N389   N     0.71426   0.50001   0.25001   0.00000  Uiso   1.00
N390   N     0.95241   0.49999   0.24999   0.00000  Uiso   1.00
O391   O     0.79512   0.56108   0.25000   0.00000  Uiso   1.00
O392   O     0.87154   0.43892   0.25000   0.00000  Uiso   1.00
O393   O     0.87157   0.56107   0.25000   0.00000  Uiso   1.00
O394   O     0.79510   0.43893   0.25000   0.00000  Uiso   1.00
O395   O     0.77328   0.50001   0.31612   0.00000  Uiso   1.00
O396   O     0.89339   0.49999   0.18388   0.00000  Uiso   1.00
O397   O     0.84972   0.50000   0.31612   0.00000  Uiso   1.00
O398   O     0.81695   0.50000   0.18388   0.00000  Uiso   1.00
Zn399  Zn    0.78229   0.50001   0.25000   0.00000  Uiso   1.00
Zn400  Zn    0.88438   0.49999   0.25000   0.00000  Uiso   1.00
C401   C     0.72728   0.43152   0.20696   0.00000  Uiso   1.00
O402   O     0.76589   0.43655   0.17477   0.00000  Uiso   1.00
O403   O     0.70953   0.39119   0.21999   0.00000  Uiso   1.00
H404   H     0.73271   0.36880   0.20117   0.00000  Uiso   1.00
C405   C     0.93936   0.56845   0.29313   0.00000  Uiso   1.00
O406   O     0.90081   0.56340   0.32539   0.00000  Uiso   1.00
O407   O     0.95705   0.60878   0.28007   0.00000  Uiso   1.00
H408   H     0.93389   0.63115   0.29894   0.00000  Uiso   1.00
C409   C     0.16677   0.91328   0.25023   0.00000  Uiso   1.00
C410   C     0.16656   0.75339   0.24979   0.00000  Uiso   1.00
C411   C     0.11958   0.87844   0.04583   0.00000  Uiso   1.00
C412   C     0.22820   0.84277   0.44616   0.00000  Uiso   1.00
C413   C     0.08607   0.88336   0.02478   0.00000  Uiso   1.00
C414   C     0.26185   0.83773   0.46689   0.00000  Uiso   1.00
C415   C     0.21087   0.97882   0.23232   0.00000  Uiso   1.00
C416   C     0.12245   0.68784   0.26772   0.00000  Uiso   1.00
C417   C     0.21072   0.68826   0.23193   0.00000  Uiso   1.00
C418   C     0.12260   0.97840   0.26812   0.00000  Uiso   1.00
C419   C     0.16650   0.70920   0.24960   0.00000  Uiso   1.00
C420   C     0.16683   0.95746   0.25043   0.00000  Uiso   1.00
C421   C     0.31605   0.80111   0.23043   0.00000  Uiso   1.00
C422   C     0.01727   0.86555   0.26961   0.00000  Uiso   1.00
C423   C     0.03056   0.80095   0.22993   0.00000  Uiso   1.00
C424   C     0.30276   0.86570   0.27011   0.00000  Uiso   1.00
C425   C     0.13642   0.83395   0.33789   0.00000  Uiso   1.00
C426   C     0.19697   0.83399   0.16215   0.00000  Uiso   1.00
C427   C     0.11860   0.84103   0.38802   0.00000  Uiso   1.00
C428   C     0.21595   0.83764   0.11171   0.00000  Uiso   1.00
C429   C     0.06248   0.87307   0.45830   0.00000  Uiso   1.00
C430   C     0.27987   0.82994   0.03624   0.00000  Uiso   1.00
C431   C     0.07364   0.85946   0.41246   0.00000  Uiso   1.00
C432   C     0.26430   0.82883   0.08451   0.00000  Uiso   1.00
C433   C     0.15143   0.83554   0.40973   0.00000  Uiso   1.00
C434   C     0.18419   0.84986   0.09074   0.00000  Uiso   1.00
C435   C     0.14305   0.85255   0.45367   0.00000  Uiso   1.00
C436   C     0.19900   0.85164   0.04249   0.00000  Uiso   1.00
C437   C     0.09692   0.86969   0.47913   0.00000  Uiso   1.00
C438   C     0.24727   0.84018   0.01503   0.00000  Uiso   1.00
C439   C     0.17914   0.85183   0.47315   0.00000  Uiso   1.00
C440   C     0.16580   0.86097   0.02105   0.00000  Uiso   1.00
H441   H     0.05118   0.89708   0.04464   0.00000  Uiso   1.00
H442   H     0.29888   0.83005   0.44530   0.00000  Uiso   1.00
H443   H     0.14705   0.85565   0.11273   0.00000  Uiso   1.00
H444   H     0.18407   0.81830   0.39120   0.00000  Uiso   1.00
H445   H     0.28947   0.81972   0.10042   0.00000  Uiso   1.00
H446   H     0.04801   0.86450   0.39580   0.00000  Uiso   1.00
H447   H     0.02759   0.88724   0.47699   0.00000  Uiso   1.00
H448   H     0.31680   0.82124   0.01555   0.00000  Uiso   1.00
H449   H     0.10893   0.88989   0.08115   0.00000  Uiso   1.00
H450   H     0.24179   0.84033   0.40870   0.00000  Uiso   1.00
H451   H     0.24508   0.96253   0.21795   0.00000  Uiso   1.00
H452   H     0.08824   0.70413   0.28208   0.00000  Uiso   1.00
H453   H     0.24492   0.70486   0.21751   0.00000  Uiso   1.00
H454   H     0.08840   0.96179   0.28255   0.00000  Uiso   1.00
H455   H     0.30334   0.77562   0.21444   0.00000  Uiso   1.00
H456   H     0.02997   0.89102   0.28562   0.00000  Uiso   1.00
N457   N     0.04759   0.83334   0.25001   0.00000  Uiso   1.00
N458   N     0.28574   0.83332   0.24999   0.00000  Uiso   1.00
O459   O     0.12846   0.89442   0.25000   0.00000  Uiso   1.00
O460   O     0.20488   0.77225   0.25000   0.00000  Uiso   1.00
O461   O     0.20490   0.89441   0.25000   0.00000  Uiso   1.00
O462   O     0.12843   0.77226   0.25000   0.00000  Uiso   1.00
O463   O     0.10661   0.83334   0.31612   0.00000  Uiso   1.00
O464   O     0.22672   0.83333   0.18388   0.00000  Uiso   1.00
O465   O     0.18305   0.83333   0.31612   0.00000  Uiso   1.00
O466   O     0.15028   0.83334   0.18388   0.00000  Uiso   1.00
Zn467  Zn    0.11562   0.83334   0.25000   0.00000  Uiso   1.00
Zn468  Zn    0.21771   0.83333   0.25000   0.00000  Uiso   1.00
C469   C     0.06061   0.76485   0.20696   0.00000  Uiso   1.00
O470   O     0.09922   0.76988   0.17477   0.00000  Uiso   1.00
O471   O     0.04287   0.72453   0.21999   0.00000  Uiso   1.00
H472   H     0.06604   0.70214   0.20117   0.00000  Uiso   1.00
C473   C     0.27269   0.90178   0.29313   0.00000  Uiso   1.00
O474   O     0.23415   0.89673   0.32539   0.00000  Uiso   1.00
O475   O     0.29038   0.94211   0.28007   0.00000  Uiso   1.00
H476   H     0.26722   0.96449   0.29894   0.00000  Uiso   1.00
C477   C     0.50011   0.91328   0.25023   0.00000  Uiso   1.00
C478   C     0.49989   0.75339   0.24979   0.00000  Uiso   1.00
C479   C     0.45292   0.87844   0.04583   0.00000  Uiso   1.00
C480   C     0.56154   0.84277   0.44616   0.00000  Uiso   1.00
C481   C     0.41940   0.88336   0.02478   0.00000  Uiso   1.00
C482   C     0.59518   0.83773   0.46689   0.00000  Uiso   1.00
C483   C     0.54420   0.97882   0.23232   0.00000  Uiso   1.00
C484   C     0.45579   0.68784   0.26772   0.00000  Uiso   1.00
C485   C     0.54405   0.68826   0.23193   0.00000  Uiso   1.00
C486   C     0.45594   0.97840   0.26812   0.00000  Uiso   1.00
C487   C     0.49983   0.70920   0.24960   0.00000  Uiso   1.00
C488   C     0.50016   0.95746   0.25043   0.00000  Uiso   1.00
C489   C     0.64938   0.80111   0.23043   0.00000  Uiso   1.00
C490   C     0.35061   0.86555   0.26961   0.00000  Uiso   1.00
C491   C     0.36389   0.80095   0.22993   0.00000  Uiso   1.00
C492   C     0.63609   0.86570   0.27011   0.00000  Uiso   1.00
C493   C     0.46975   0.83395   0.33789   0.00000  Uiso   1.00
C494   C     0.53030   0.83399   0.16215   0.00000  Uiso   1.00
C495   C     0.45193   0.84103   0.38802   0.00000  Uiso   1.00
C496   C     0.54928   0.83764   0.11171   0.00000  Uiso   1.00
C497   C     0.39581   0.87307   0.45830   0.00000  Uiso   1.00
C498   C     0.61320   0.82994   0.03624   0.00000  Uiso   1.00
C499   C     0.40697   0.85946   0.41246   0.00000  Uiso   1.00
C500   C     0.59763   0.82883   0.08451   0.00000  Uiso   1.00
C501   C     0.48476   0.83554   0.40973   0.00000  Uiso   1.00
C502   C     0.51753   0.84986   0.09074   0.00000  Uiso   1.00
C503   C     0.47639   0.85255   0.45367   0.00000  Uiso   1.00
C504   C     0.53233   0.85164   0.04249   0.00000  Uiso   1.00
C505   C     0.43025   0.86969   0.47913   0.00000  Uiso   1.00
C506   C     0.58060   0.84018   0.01503   0.00000  Uiso   1.00
C507   C     0.51248   0.85183   0.47315   0.00000  Uiso   1.00
C508   C     0.49913   0.86097   0.02105   0.00000  Uiso   1.00
H509   H     0.38452   0.89708   0.04464   0.00000  Uiso   1.00
H510   H     0.63222   0.83005   0.44530   0.00000  Uiso   1.00
H511   H     0.48038   0.85565   0.11273   0.00000  Uiso   1.00
H512   H     0.51740   0.81830   0.39120   0.00000  Uiso   1.00
H513   H     0.62280   0.81972   0.10042   0.00000  Uiso   1.00
H514   H     0.38134   0.86450   0.39580   0.00000  Uiso   1.00
H515   H     0.36092   0.88724   0.47699   0.00000  Uiso   1.00
H516   H     0.65013   0.82124   0.01555   0.00000  Uiso   1.00
H517   H     0.44226   0.88989   0.08115   0.00000  Uiso   1.00
H518   H     0.57513   0.84033   0.40870   0.00000  Uiso   1.00
H519   H     0.57841   0.96253   0.21795   0.00000  Uiso   1.00
H520   H     0.42158   0.70413   0.28208   0.00000  Uiso   1.00
H521   H     0.57825   0.70486   0.21751   0.00000  Uiso   1.00
H522   H     0.42174   0.96179   0.28255   0.00000  Uiso   1.00
H523   H     0.63667   0.77562   0.21444   0.00000  Uiso   1.00
H524   H     0.36331   0.89102   0.28562   0.00000  Uiso   1.00
N525   N     0.38093   0.83334   0.25001   0.00000  Uiso   1.00
N526   N     0.61907   0.83332   0.24999   0.00000  Uiso   1.00
O527   O     0.46179   0.89442   0.25000   0.00000  Uiso   1.00
O528   O     0.53821   0.77225   0.25000   0.00000  Uiso   1.00
O529   O     0.53823   0.89441   0.25000   0.00000  Uiso   1.00
O530   O     0.46177   0.77226   0.25000   0.00000  Uiso   1.00
O531   O     0.43994   0.83334   0.31612   0.00000  Uiso   1.00
O532   O     0.56006   0.83333   0.18388   0.00000  Uiso   1.00
O533   O     0.51639   0.83333   0.31612   0.00000  Uiso   1.00
O534   O     0.48361   0.83334   0.18388   0.00000  Uiso   1.00
Zn535  Zn    0.44896   0.83334   0.25000   0.00000  Uiso   1.00
Zn536  Zn    0.55104   0.83333   0.25000   0.00000  Uiso   1.00
C537   C     0.39395   0.76485   0.20696   0.00000  Uiso   1.00
O538   O     0.43255   0.76988   0.17477   0.00000  Uiso   1.00
O539   O     0.37620   0.72453   0.21999   0.00000  Uiso   1.00
H540   H     0.39937   0.70214   0.20117   0.00000  Uiso   1.00
C541   C     0.60602   0.90178   0.29313   0.00000  Uiso   1.00
O542   O     0.56748   0.89673   0.32539   0.00000  Uiso   1.00
O543   O     0.62371   0.94211   0.28007   0.00000  Uiso   1.00
H544   H     0.60055   0.96449   0.29894   0.00000  Uiso   1.00
C545   C     0.83344   0.91328   0.25023   0.00000  Uiso   1.00
C546   C     0.83322   0.75339   0.24979   0.00000  Uiso   1.00
C547   C     0.78625   0.87844   0.04583   0.00000  Uiso   1.00
C548   C     0.89487   0.84277   0.44616   0.00000  Uiso   1.00
C549   C     0.75274   0.88336   0.02478   0.00000  Uiso   1.00
C550   C     0.92852   0.83773   0.46689   0.00000  Uiso   1.00
C551   C     0.87753   0.97882   0.23232   0.00000  Uiso   1.00
C552   C     0.78912   0.68784   0.26772   0.00000  Uiso   1.00
C553   C     0.87739   0.68826   0.23193   0.00000  Uiso   1.00
C554   C     0.78927   0.97840   0.26812   0.00000  Uiso   1.00
C555   C     0.83316   0.70920   0.24960   0.00000  Uiso   1.00
C556   C     0.83349   0.95746   0.25043   0.00000  Uiso   1.00
C557   C     0.98271   0.80111   0.23043   0.00000  Uiso   1.00
C558   C     0.68394   0.86555   0.26961   0.00000  Uiso   1.00
C559   C     0.69722   0.80095   0.22993   0.00000  Uiso   1.00
C560   C     0.96943   0.86570   0.27011   0.00000  Uiso   1.00
C561   C     0.80308   0.83395   0.33789   0.00000  Uiso   1.00
C562   C     0.86363   0.83399   0.16215   0.00000  Uiso   1.00
C563   C     0.78526   0.84103   0.38802   0.00000  Uiso   1.00
C564   C     0.88262   0.83764   0.11171   0.00000  Uiso   1.00
C565   C     0.72915   0.87307   0.45830   0.00000  Uiso   1.00
C566   C     0.94654   0.82994   0.03624   0.00000  Uiso   1.00
C567   C     0.74031   0.85946   0.41246   0.00000  Uiso   1.00
C568   C     0.93097   0.82883   0.08451   0.00000  Uiso   1.00
C569   C     0.81810   0.83554   0.40973   0.00000  Uiso   1.00
C570   C     0.85086   0.84986   0.09074   0.00000  Uiso   1.00
C571   C     0.80972   0.85255   0.45367   0.00000  Uiso   1.00
C572   C     0.86566   0.85164   0.04249   0.00000  Uiso   1.00
C573   C     0.76359   0.86969   0.47913   0.00000  Uiso   1.00
C574   C     0.91393   0.84018   0.01503   0.00000  Uiso   1.00
C575   C     0.84581   0.85183   0.47315   0.00000  Uiso   1.00
C576   C     0.83246   0.86097   0.02105   0.00000  Uiso   1.00
H577   H     0.71785   0.89708   0.04464   0.00000  Uiso   1.00
H578   H     0.96555   0.83005   0.44530   0.00000  Uiso   1.00
H579   H     0.81372   0.85565   0.11273   0.00000  Uiso   1.00
H580   H     0.85074   0.81830   0.39120   0.00000  Uiso   1.00
H581   H     0.95614   0.81972   0.10042   0.00000  Uiso   1.00
H582   H     0.71467   0.86450   0.39580   0.00000  Uiso   1.00
H583   H     0.69425   0.88724   0.47699   0.00000  Uiso   1.00
H584   H     0.98347   0.82124   0.01555   0.00000  Uiso   1.00
H585   H     0.77559   0.88989   0.08115   0.00000  Uiso   1.00
H586   H     0.90846   0.84033   0.40870   0.00000  Uiso   1.00
H587   H     0.91174   0.96253   0.21795   0.00000  Uiso   1.00
H588   H     0.75491   0.70413   0.28208   0.00000  Uiso   1.00
H589   H     0.91159   0.70486   0.21751   0.00000  Uiso   1.00
H590   H     0.75507   0.96179   0.28255   0.00000  Uiso   1.00
H591   H     0.97001   0.77562   0.21444   0.00000  Uiso   1.00
H592   H     0.69664   0.89102   0.28562   0.00000  Uiso   1.00
N593   N     0.71426   0.83334   0.25001   0.00000  Uiso   1.00
N594   N     0.95241   0.83332   0.24999   0.00000  Uiso   1.00
O595   O     0.79512   0.89442   0.25000   0.00000  Uiso   1.00
O596   O     0.87154   0.77225   0.25000   0.00000  Uiso   1.00
O597   O     0.87157   0.89441   0.25000   0.00000  Uiso   1.00
O598   O     0.79510   0.77226   0.25000   0.00000  Uiso   1.00
O599   O     0.77328   0.83334   0.31612   0.00000  Uiso   1.00
O600   O     0.89339   0.83333   0.18388   0.00000  Uiso   1.00
O601   O     0.84972   0.83333   0.31612   0.00000  Uiso   1.00
O602   O     0.81695   0.83334   0.18388   0.00000  Uiso   1.00
Zn603  Zn    0.78229   0.83334   0.25000   0.00000  Uiso   1.00
Zn604  Zn    0.88438   0.83333   0.25000   0.00000  Uiso   1.00
C605   C     0.72728   0.76485   0.20696   0.00000  Uiso   1.00
O606   O     0.76589   0.76988   0.17477   0.00000  Uiso   1.00
O607   O     0.70953   0.72453   0.21999   0.00000  Uiso   1.00
H608   H     0.73271   0.70214   0.20117   0.00000  Uiso   1.00
C609   C     0.93936   0.90178   0.29313   0.00000  Uiso   1.00
O610   O     0.90081   0.89673   0.32539   0.00000  Uiso   1.00
O611   O     0.95705   0.94211   0.28007   0.00000  Uiso   1.00
H612   H     0.93389   0.96449   0.29894   0.00000  Uiso   1.00
C613   C     0.16677   0.24661   0.75023   0.00000  Uiso   1.00
C614   C     0.16656   0.08672   0.74979   0.00000  Uiso   1.00
C615   C     0.11958   0.21177   0.54583   0.00000  Uiso   1.00
C616   C     0.22820   0.17611   0.94616   0.00000  Uiso   1.00
C617   C     0.08607   0.21669   0.52478   0.00000  Uiso   1.00
C618   C     0.26185   0.17106   0.96689   0.00000  Uiso   1.00
C619   C     0.21087   0.31215   0.73232   0.00000  Uiso   1.00
C620   C     0.12245   0.02117   0.76772   0.00000  Uiso   1.00
C621   C     0.21072   0.02159   0.73193   0.00000  Uiso   1.00
C622   C     0.12260   0.31173   0.76812   0.00000  Uiso   1.00
C623   C     0.16650   0.04254   0.74960   0.00000  Uiso   1.00
C624   C     0.16683   0.29079   0.75043   0.00000  Uiso   1.00
C625   C     0.31605   0.13444   0.73043   0.00000  Uiso   1.00
C626   C     0.01727   0.19888   0.76961   0.00000  Uiso   1.00
C627   C     0.03056   0.13428   0.72993   0.00000  Uiso   1.00
C628   C     0.30276   0.19903   0.77011   0.00000  Uiso   1.00
C629   C     0.13642   0.16728   0.83789   0.00000  Uiso   1.00
C630   C     0.19697   0.16732   0.66215   0.00000  Uiso   1.00
C631   C     0.11860   0.17436   0.88802   0.00000  Uiso   1.00
C632   C     0.21595   0.17098   0.61171   0.00000  Uiso   1.00
C633   C     0.06248   0.20641   0.95830   0.00000  Uiso   1.00
C634   C     0.27987   0.16327   0.53624   0.00000  Uiso   1.00
C635   C     0.07364   0.19279   0.91246   0.00000  Uiso   1.00
C636   C     0.26430   0.16216   0.58451   0.00000  Uiso   1.00
C637   C     0.15143   0.16888   0.90973   0.00000  Uiso   1.00
C638   C     0.18419   0.18319   0.59074   0.00000  Uiso   1.00
C639   C     0.14305   0.18588   0.95367   0.00000  Uiso   1.00
C640   C     0.19900   0.18498   0.54249   0.00000  Uiso   1.00
C641   C     0.09692   0.20302   0.97913   0.00000  Uiso   1.00
C642   C     0.24727   0.17351   0.51503   0.00000  Uiso   1.00
C643   C     0.17914   0.18516   0.97315   0.00000  Uiso   1.00
C644   C     0.16580   0.19430   0.52105   0.00000  Uiso   1.00
H645   H     0.05118   0.23041   0.54464   0.00000  Uiso   1.00
H646   H     0.29888   0.16339   0.94530   0.00000  Uiso   1.00
H647   H     0.14705   0.18898   0.61273   0.00000  Uiso   1.00
H648   H     0.18407   0.15164   0.89120   0.00000  Uiso   1.00
H649   H     0.28947   0.15305   0.60042   0.00000  Uiso   1.00
H650   H     0.04801   0.19783   0.89580   0.00000  Uiso   1.00
H651   H     0.02759   0.22058   0.97699   0.00000  Uiso   1.00
H652   H     0.31680   0.15457   0.51555   0.00000  Uiso   1.00
H653   H     0.10893   0.22323   0.58115   0.00000  Uiso   1.00
H654   H     0.24179   0.17366   0.90870   0.00000  Uiso   1.00
H655   H     0.24508   0.29586   0.71795   0.00000  Uiso   1.00
H656   H     0.08824   0.03747   0.78208   0.00000  Uiso   1.00
H657   H     0.24492   0.03820   0.71751   0.00000  Uiso   1.00
H658   H     0.08840   0.29512   0.78255   0.00000  Uiso   1.00
H659   H     0.30334   0.10895   0.71444   0.00000  Uiso   1.00
H660   H     0.02997   0.22436   0.78562   0.00000  Uiso   1.00
N661   N     0.04759   0.16668   0.75001   0.00000  Uiso   1.00
N662   N     0.28574   0.16666   0.74999   0.00000  Uiso   1.00
O663   O     0.12846   0.22775   0.75000   0.00000  Uiso   1.00
O664   O     0.20488   0.10558   0.75000   0.00000  Uiso   1.00
O665   O     0.20490   0.22774   0.75000   0.00000  Uiso   1.00
O666   O     0.12843   0.10559   0.75000   0.00000  Uiso   1.00
O667   O     0.10661   0.16667   0.81612   0.00000  Uiso   1.00
O668   O     0.22672   0.16666   0.68388   0.00000  Uiso   1.00
O669   O     0.18305   0.16666   0.81612   0.00000  Uiso   1.00
O670   O     0.15028   0.16667   0.68388   0.00000  Uiso   1.00
Zn671  Zn    0.11562   0.16667   0.75000   0.00000  Uiso   1.00
Zn672  Zn    0.21771   0.16666   0.75000   0.00000  Uiso   1.00
C673   C     0.06061   0.09819   0.70696   0.00000  Uiso   1.00
O674   O     0.09922   0.10322   0.67477   0.00000  Uiso   1.00
O675   O     0.04287   0.05786   0.71999   0.00000  Uiso   1.00
H676   H     0.06604   0.03547   0.70117   0.00000  Uiso   1.00
C677   C     0.27269   0.23511   0.79313   0.00000  Uiso   1.00
O678   O     0.23415   0.23006   0.82539   0.00000  Uiso   1.00
O679   O     0.29038   0.27545   0.78007   0.00000  Uiso   1.00
H680   H     0.26722   0.29782   0.79894   0.00000  Uiso   1.00
C681   C     0.50011   0.24661   0.75023   0.00000  Uiso   1.00
C682   C     0.49989   0.08672   0.74979   0.00000  Uiso   1.00
C683   C     0.45292   0.21177   0.54583   0.00000  Uiso   1.00
C684   C     0.56154   0.17611   0.94616   0.00000  Uiso   1.00
C685   C     0.41940   0.21669   0.52478   0.00000  Uiso   1.00
C686   C     0.59518   0.17106   0.96689   0.00000  Uiso   1.00
C687   C     0.54420   0.31215   0.73232   0.00000  Uiso   1.00
C688   C     0.45579   0.02117   0.76772   0.00000  Uiso   1.00
C689   C     0.54405   0.02159   0.73193   0.00000  Uiso   1.00
C690   C     0.45594   0.31173   0.76812   0.00000  Uiso   1.00
C691   C     0.49983   0.04254   0.74960   0.00000  Uiso   1.00
C692   C     0.50016   0.29079   0.75043   0.00000  Uiso   1.00
C693   C     0.64938   0.13444   0.73043   0.00000  Uiso   1.00
C694   C     0.35061   0.19888   0.76961   0.00000  Uiso   1.00
C695   C     0.36389   0.13428   0.72993   0.00000  Uiso   1.00
C696   C     0.63609   0.19903   0.77011   0.00000  Uiso   1.00
C697   C     0.46975   0.16728   0.83789   0.00000  Uiso   1.00
C698   C     0.53030   0.16732   0.66215   0.00000  Uiso   1.00
C699   C     0.45193   0.17436   0.88802   0.00000  Uiso   1.00
C700   C     0.54928   0.17098   0.61171   0.00000  Uiso   1.00
C701   C     0.39581   0.20641   0.95830   0.00000  Uiso   1.00
C702   C     0.61320   0.16327   0.53624   0.00000  Uiso   1.00
C703   C     0.40697   0.19279   0.91246   0.00000  Uiso   1.00
C704   C     0.59763   0.16216   0.58451   0.00000  Uiso   1.00
C705   C     0.48476   0.16888   0.90973   0.00000  Uiso   1.00
C706   C     0.51753   0.18319   0.59074   0.00000  Uiso   1.00
C707   C     0.47639   0.18588   0.95367   0.00000  Uiso   1.00
C708   C     0.53233   0.18498   0.54249   0.00000  Uiso   1.00
C709   C     0.43025   0.20302   0.97913   0.00000  Uiso   1.00
C710   C     0.58060   0.17351   0.51503   0.00000  Uiso   1.00
C711   C     0.51248   0.18516   0.97315   0.00000  Uiso   1.00
C712   C     0.49913   0.19430   0.52105   0.00000  Uiso   1.00
H713   H     0.38452   0.23041   0.54464   0.00000  Uiso   1.00
H714   H     0.63222   0.16339   0.94530   0.00000  Uiso   1.00
H715   H     0.48038   0.18898   0.61273   0.00000  Uiso   1.00
H716   H     0.51740   0.15164   0.89120   0.00000  Uiso   1.00
H717   H     0.62280   0.15305   0.60042   0.00000  Uiso   1.00
H718   H     0.38134   0.19783   0.89580   0.00000  Uiso   1.00
H719   H     0.36092   0.22058   0.97699   0.00000  Uiso   1.00
H720   H     0.65013   0.15457   0.51555   0.00000  Uiso   1.00
H721   H     0.44226   0.22323   0.58115   0.00000  Uiso   1.00
H722   H     0.57513   0.17366   0.90870   0.00000  Uiso   1.00
H723   H     0.57841   0.29586   0.71795   0.00000  Uiso   1.00
H724   H     0.42158   0.03747   0.78208   0.00000  Uiso   1.00
H725   H     0.57825   0.03820   0.71751   0.00000  Uiso   1.00
H726   H     0.42174   0.29512   0.78255   0.00000  Uiso   1.00
H727   H     0.63667   0.10895   0.71444   0.00000  Uiso   1.00
H728   H     0.36331   0.22436   0.78562   0.00000  Uiso   1.00
N729   N     0.38093   0.16668   0.75001   0.00000  Uiso   1.00
N730   N     0.61907   0.16666   0.74999   0.00000  Uiso   1.00
O731   O     0.46179   0.22775   0.75000   0.00000  Uiso   1.00
O732   O     0.53821   0.10558   0.75000   0.00000  Uiso   1.00
O733   O     0.53823   0.22774   0.75000   0.00000  Uiso   1.00
O734   O     0.46177   0.10559   0.75000   0.00000  Uiso   1.00
O735   O     0.43994   0.16667   0.81612   0.00000  Uiso   1.00
O736   O     0.56006   0.16666   0.68388   0.00000  Uiso   1.00
O737   O     0.51639   0.16666   0.81612   0.00000  Uiso   1.00
O738   O     0.48361   0.16667   0.68388   0.00000  Uiso   1.00
Zn739  Zn    0.44896   0.16667   0.75000   0.00000  Uiso   1.00
Zn740  Zn    0.55104   0.16666   0.75000   0.00000  Uiso   1.00
C741   C     0.39395   0.09819   0.70696   0.00000  Uiso   1.00
O742   O     0.43255   0.10322   0.67477   0.00000  Uiso   1.00
O743   O     0.37620   0.05786   0.71999   0.00000  Uiso   1.00
H744   H     0.39937   0.03547   0.70117   0.00000  Uiso   1.00
C745   C     0.60602   0.23511   0.79313   0.00000  Uiso   1.00
O746   O     0.56748   0.23006   0.82539   0.00000  Uiso   1.00
O747   O     0.62371   0.27545   0.78007   0.00000  Uiso   1.00
H748   H     0.60055   0.29782   0.79894   0.00000  Uiso   1.00
C749   C     0.83344   0.24661   0.75023   0.00000  Uiso   1.00
C750   C     0.83322   0.08672   0.74979   0.00000  Uiso   1.00
C751   C     0.78625   0.21177   0.54583   0.00000  Uiso   1.00
C752   C     0.89487   0.17611   0.94616   0.00000  Uiso   1.00
C753   C     0.75274   0.21669   0.52478   0.00000  Uiso   1.00
C754   C     0.92852   0.17106   0.96689   0.00000  Uiso   1.00
C755   C     0.87753   0.31215   0.73232   0.00000  Uiso   1.00
C756   C     0.78912   0.02117   0.76772   0.00000  Uiso   1.00
C757   C     0.87739   0.02159   0.73193   0.00000  Uiso   1.00
C758   C     0.78927   0.31173   0.76812   0.00000  Uiso   1.00
C759   C     0.83316   0.04254   0.74960   0.00000  Uiso   1.00
C760   C     0.83349   0.29079   0.75043   0.00000  Uiso   1.00
C761   C     0.98271   0.13444   0.73043   0.00000  Uiso   1.00
C762   C     0.68394   0.19888   0.76961   0.00000  Uiso   1.00
C763   C     0.69722   0.13428   0.72993   0.00000  Uiso   1.00
C764   C     0.96943   0.19903   0.77011   0.00000  Uiso   1.00
C765   C     0.80308   0.16728   0.83789   0.00000  Uiso   1.00
C766   C     0.86363   0.16732   0.66215   0.00000  Uiso   1.00
C767   C     0.78526   0.17436   0.88802   0.00000  Uiso   1.00
C768   C     0.88262   0.17098   0.61171   0.00000  Uiso   1.00
C769   C     0.72915   0.20641   0.95830   0.00000  Uiso   1.00
C770   C     0.94654   0.16327   0.53624   0.00000  Uiso   1.00
C771   C     0.74031   0.19279   0.91246   0.00000  Uiso   1.00
C772   C     0.93097   0.16216   0.58451   0.00000  Uiso   1.00
C773   C     0.81810   0.16888   0.90973   0.00000  Uiso   1.00
C774   C     0.85086   0.18319   0.59074   0.00000  Uiso   1.00
C775   C     0.80972   0.18588   0.95367   0.00000  Uiso   1.00
C776   C     0.86566   0.18498   0.54249   0.00000  Uiso   1.00
C777   C     0.76359   0.20302   0.97913   0.00000  Uiso   1.00
C778   C     0.91393   0.17351   0.51503   0.00000  Uiso   1.00
C779   C     0.84581   0.18516   0.97315   0.00000  Uiso   1.00
C780   C     0.83246   0.19430   0.52105   0.00000  Uiso   1.00
H781   H     0.71785   0.23041   0.54464   0.00000  Uiso   1.00
H782   H     0.96555   0.16339   0.94530   0.00000  Uiso   1.00
H783   H     0.81372   0.18898   0.61273   0.00000  Uiso   1.00
H784   H     0.85074   0.15164   0.89120   0.00000  Uiso   1.00
H785   H     0.95614   0.15305   0.60042   0.00000  Uiso   1.00
H786   H     0.71467   0.19783   0.89580   0.00000  Uiso   1.00
H787   H     0.69425   0.22058   0.97699   0.00000  Uiso   1.00
H788   H     0.98347   0.15457   0.51555   0.00000  Uiso   1.00
H789   H     0.77559   0.22323   0.58115   0.00000  Uiso   1.00
H790   H     0.90846   0.17366   0.90870   0.00000  Uiso   1.00
H791   H     0.91174   0.29586   0.71795   0.00000  Uiso   1.00
H792   H     0.75491   0.03747   0.78208   0.00000  Uiso   1.00
H793   H     0.91159   0.03820   0.71751   0.00000  Uiso   1.00
H794   H     0.75507   0.29512   0.78255   0.00000  Uiso   1.00
H795   H     0.97001   0.10895   0.71444   0.00000  Uiso   1.00
H796   H     0.69664   0.22436   0.78562   0.00000  Uiso   1.00
N797   N     0.71426   0.16668   0.75001   0.00000  Uiso   1.00
N798   N     0.95241   0.16666   0.74999   0.00000  Uiso   1.00
O799   O     0.79512   0.22775   0.75000   0.00000  Uiso   1.00
O800   O     0.87154   0.10558   0.75000   0.00000  Uiso   1.00
O801   O     0.87157   0.22774   0.75000   0.00000  Uiso   1.00
O802   O     0.79510   0.10559   0.75000   0.00000  Uiso   1.00
O803   O     0.77328   0.16667   0.81612   0.00000  Uiso   1.00
O804   O     0.89339   0.16666   0.68388   0.00000  Uiso   1.00
O805   O     0.84972   0.16666   0.81612   0.00000  Uiso   1.00
O806   O     0.81695   0.16667   0.68388   0.00000  Uiso   1.00
Zn807  Zn    0.78229   0.16667   0.75000   0.00000  Uiso   1.00
Zn808  Zn    0.88438   0.16666   0.75000   0.00000  Uiso   1.00
C809   C     0.72728   0.09819   0.70696   0.00000  Uiso   1.00
O810   O     0.76589   0.10322   0.67477   0.00000  Uiso   1.00
O811   O     0.70953   0.05786   0.71999   0.00000  Uiso   1.00
H812   H     0.73271   0.03547   0.70117   0.00000  Uiso   1.00
C813   C     0.93936   0.23511   0.79313   0.00000  Uiso   1.00
O814   O     0.90081   0.23006   0.82539   0.00000  Uiso   1.00
O815   O     0.95705   0.27545   0.78007   0.00000  Uiso   1.00
H816   H     0.93389   0.29782   0.79894   0.00000  Uiso   1.00
C817   C     0.16677   0.57995   0.75023   0.00000  Uiso   1.00
C818   C     0.16656   0.42005   0.74979   0.00000  Uiso   1.00
C819   C     0.11958   0.54510   0.54583   0.00000  Uiso   1.00
C820   C     0.22820   0.50944   0.94616   0.00000  Uiso   1.00
C821   C     0.08607   0.55003   0.52478   0.00000  Uiso   1.00
C822   C     0.26185   0.50440   0.96689   0.00000  Uiso   1.00
C823   C     0.21087   0.64549   0.73232   0.00000  Uiso   1.00
C824   C     0.12245   0.35451   0.76772   0.00000  Uiso   1.00
C825   C     0.21072   0.35493   0.73193   0.00000  Uiso   1.00
C826   C     0.12260   0.64507   0.76812   0.00000  Uiso   1.00
C827   C     0.16650   0.37587   0.74960   0.00000  Uiso   1.00
C828   C     0.16683   0.62412   0.75043   0.00000  Uiso   1.00
C829   C     0.31605   0.46777   0.73043   0.00000  Uiso   1.00
C830   C     0.01727   0.53221   0.76961   0.00000  Uiso   1.00
C831   C     0.03056   0.46762   0.72993   0.00000  Uiso   1.00
C832   C     0.30276   0.53236   0.77011   0.00000  Uiso   1.00
C833   C     0.13642   0.50062   0.83789   0.00000  Uiso   1.00
C834   C     0.19697   0.50066   0.66215   0.00000  Uiso   1.00
C835   C     0.11860   0.50769   0.88802   0.00000  Uiso   1.00
C836   C     0.21595   0.50431   0.61171   0.00000  Uiso   1.00
C837   C     0.06248   0.53974   0.95830   0.00000  Uiso   1.00
C838   C     0.27987   0.49661   0.53624   0.00000  Uiso   1.00
C839   C     0.07364   0.52612   0.91246   0.00000  Uiso   1.00
C840   C     0.26430   0.49549   0.58451   0.00000  Uiso   1.00
C841   C     0.15143   0.50221   0.90973   0.00000  Uiso   1.00
C842   C     0.18419   0.51652   0.59074   0.00000  Uiso   1.00
C843   C     0.14305   0.51922   0.95367   0.00000  Uiso   1.00
C844   C     0.19900   0.51831   0.54249   0.00000  Uiso   1.00
C845   C     0.09692   0.53636   0.97913   0.00000  Uiso   1.00
C846   C     0.24727   0.50684   0.51503   0.00000  Uiso   1.00
C847   C     0.17914   0.51850   0.97315   0.00000  Uiso   1.00
C848   C     0.16580   0.52764   0.52105   0.00000  Uiso   1.00
H849   H     0.05118   0.56374   0.54464   0.00000  Uiso   1.00
H850   H     0.29888   0.49672   0.94530   0.00000  Uiso   1.00
H851   H     0.14705   0.52231   0.61273   0.00000  Uiso   1.00
H852   H     0.18407   0.48497   0.89120   0.00000  Uiso   1.00
H853   H     0.28947   0.48639   0.60042   0.00000  Uiso   1.00
H854   H     0.04801   0.53117   0.89580   0.00000  Uiso   1.00
H855   H     0.02759   0.55391   0.97699   0.00000  Uiso   1.00
H856   H     0.31680   0.48791   0.51555   0.00000  Uiso   1.00
H857   H     0.10893   0.55656   0.58115   0.00000  Uiso   1.00
H858   H     0.24179   0.50699   0.90870   0.00000  Uiso   1.00
H859   H     0.24508   0.62919   0.71795   0.00000  Uiso   1.00
H860   H     0.08824   0.37080   0.78208   0.00000  Uiso   1.00
H861   H     0.24492   0.37153   0.71751   0.00000  Uiso   1.00
H862   H     0.08840   0.62846   0.78255   0.00000  Uiso   1.00
H863   H     0.30334   0.44228   0.71444   0.00000  Uiso   1.00
H864   H     0.02997   0.55769   0.78562   0.00000  Uiso   1.00
N865   N     0.04759   0.50001   0.75001   0.00000  Uiso   1.00
N866   N     0.28574   0.49999   0.74999   0.00000  Uiso   1.00
O867   O     0.12846   0.56108   0.75000   0.00000  Uiso   1.00
O868   O     0.20488   0.43892   0.75000   0.00000  Uiso   1.00
O869   O     0.20490   0.56107   0.75000   0.00000  Uiso   1.00
O870   O     0.12843   0.43893   0.75000   0.00000  Uiso   1.00
O871   O     0.10661   0.50001   0.81612   0.00000  Uiso   1.00
O872   O     0.22672   0.49999   0.68388   0.00000  Uiso   1.00
O873   O     0.18305   0.50000   0.81612   0.00000  Uiso   1.00
O874   O     0.15028   0.50000   0.68388   0.00000  Uiso   1.00
Zn875  Zn    0.11562   0.50001   0.75000   0.00000  Uiso   1.00
Zn876  Zn    0.21771   0.49999   0.75000   0.00000  Uiso   1.00
C877   C     0.06061   0.43152   0.70696   0.00000  Uiso   1.00
O878   O     0.09922   0.43655   0.67477   0.00000  Uiso   1.00
O879   O     0.04287   0.39119   0.71999   0.00000  Uiso   1.00
H880   H     0.06604   0.36880   0.70117   0.00000  Uiso   1.00
C881   C     0.27269   0.56845   0.79313   0.00000  Uiso   1.00
O882   O     0.23415   0.56340   0.82539   0.00000  Uiso   1.00
O883   O     0.29038   0.60878   0.78007   0.00000  Uiso   1.00
H884   H     0.26722   0.63115   0.79894   0.00000  Uiso   1.00
C885   C     0.50011   0.57995   0.75023   0.00000  Uiso   1.00
C886   C     0.49989   0.42005   0.74979   0.00000  Uiso   1.00
C887   C     0.45292   0.54510   0.54583   0.00000  Uiso   1.00
C888   C     0.56154   0.50944   0.94616   0.00000  Uiso   1.00
C889   C     0.41940   0.55003   0.52478   0.00000  Uiso   1.00
C890   C     0.59518   0.50440   0.96689   0.00000  Uiso   1.00
C891   C     0.54420   0.64549   0.73232   0.00000  Uiso   1.00
C892   C     0.45579   0.35451   0.76772   0.00000  Uiso   1.00
C893   C     0.54405   0.35493   0.73193   0.00000  Uiso   1.00
C894   C     0.45594   0.64507   0.76812   0.00000  Uiso   1.00
C895   C     0.49983   0.37587   0.74960   0.00000  Uiso   1.00
C896   C     0.50016   0.62412   0.75043   0.00000  Uiso   1.00
C897   C     0.64938   0.46777   0.73043   0.00000  Uiso   1.00
C898   C     0.35061   0.53221   0.76961   0.00000  Uiso   1.00
C899   C     0.36389   0.46762   0.72993   0.00000  Uiso   1.00
C900   C     0.63609   0.53236   0.77011   0.00000  Uiso   1.00
C901   C     0.46975   0.50062   0.83789   0.00000  Uiso   1.00
C902   C     0.53030   0.50066   0.66215   0.00000  Uiso   1.00
C903   C     0.45193   0.50769   0.88802   0.00000  Uiso   1.00
C904   C     0.54928   0.50431   0.61171   0.00000  Uiso   1.00
C905   C     0.39581   0.53974   0.95830   0.00000  Uiso   1.00
C906   C     0.61320   0.49661   0.53624   0.00000  Uiso   1.00
C907   C     0.40697   0.52612   0.91246   0.00000  Uiso   1.00
C908   C     0.59763   0.49549   0.58451   0.00000  Uiso   1.00
C909   C     0.48476   0.50221   0.90973   0.00000  Uiso   1.00
C910   C     0.51753   0.51652   0.59074   0.00000  Uiso   1.00
C911   C     0.47639   0.51922   0.95367   0.00000  Uiso   1.00
C912   C     0.53233   0.51831   0.54249   0.00000  Uiso   1.00
C913   C     0.43025   0.53636   0.97913   0.00000  Uiso   1.00
C914   C     0.58060   0.50684   0.51503   0.00000  Uiso   1.00
C915   C     0.51248   0.51850   0.97315   0.00000  Uiso   1.00
C916   C     0.49913   0.52764   0.52105   0.00000  Uiso   1.00
H917   H     0.38452   0.56374   0.54464   0.00000  Uiso   1.00
H918   H     0.63222   0.49672   0.94530   0.00000  Uiso   1.00
H919   H     0.48038   0.52231   0.61273   0.00000  Uiso   1.00
H920   H     0.51740   0.48497   0.89120   0.00000  Uiso   1.00
H921   H     0.62280   0.48639   0.60042   0.00000  Uiso   1.00
H922   H     0.38134   0.53117   0.89580   0.00000  Uiso   1.00
H923   H     0.36092   0.55391   0.97699   0.00000  Uiso   1.00
H924   H     0.65013   0.48791   0.51555   0.00000  Uiso   1.00
H925   H     0.44226   0.55656   0.58115   0.00000  Uiso   1.00
H926   H     0.57513   0.50699   0.90870   0.00000  Uiso   1.00
H927   H     0.57841   0.62919   0.71795   0.00000  Uiso   1.00
H928   H     0.42158   0.37080   0.78208   0.00000  Uiso   1.00
H929   H     0.57825   0.37153   0.71751   0.00000  Uiso   1.00
H930   H     0.42174   0.62846   0.78255   0.00000  Uiso   1.00
H931   H     0.63667   0.44228   0.71444   0.00000  Uiso   1.00
H932   H     0.36331   0.55769   0.78562   0.00000  Uiso   1.00
N933   N     0.38093   0.50001   0.75001   0.00000  Uiso   1.00
N934   N     0.61907   0.49999   0.74999   0.00000  Uiso   1.00
O935   O     0.46179   0.56108   0.75000   0.00000  Uiso   1.00
O936   O     0.53821   0.43892   0.75000   0.00000  Uiso   1.00
O937   O     0.53823   0.56107   0.75000   0.00000  Uiso   1.00
O938   O     0.46177   0.43893   0.75000   0.00000  Uiso   1.00
O939   O     0.43994   0.50001   0.81612   0.00000  Uiso   1.00
O940   O     0.56006   0.49999   0.68388   0.00000  Uiso   1.00
O941   O     0.51639   0.50000   0.81612   0.00000  Uiso   1.00
O942   O     0.48361   0.50000   0.68388   0.00000  Uiso   1.00
Zn943  Zn    0.44896   0.50001   0.75000   0.00000  Uiso   1.00
Zn944  Zn    0.55104   0.49999   0.75000   0.00000  Uiso   1.00
C945   C     0.39395   0.43152   0.70696   0.00000  Uiso   1.00
O946   O     0.43255   0.43655   0.67477   0.00000  Uiso   1.00
O947   O     0.37620   0.39119   0.71999   0.00000  Uiso   1.00
H948   H     0.39937   0.36880   0.70117   0.00000  Uiso   1.00
C949   C     0.60602   0.56845   0.79313   0.00000  Uiso   1.00
O950   O     0.56748   0.56340   0.82539   0.00000  Uiso   1.00
O951   O     0.62371   0.60878   0.78007   0.00000  Uiso   1.00
H952   H     0.60055   0.63115   0.79894   0.00000  Uiso   1.00
C953   C     0.83344   0.57995   0.75023   0.00000  Uiso   1.00
C954   C     0.83322   0.42005   0.74979   0.00000  Uiso   1.00
C955   C     0.78625   0.54510   0.54583   0.00000  Uiso   1.00
C956   C     0.89487   0.50944   0.94616   0.00000  Uiso   1.00
C957   C     0.75274   0.55003   0.52478   0.00000  Uiso   1.00
C958   C     0.92852   0.50440   0.96689   0.00000  Uiso   1.00
C959   C     0.87753   0.64549   0.73232   0.00000  Uiso   1.00
C960   C     0.78912   0.35451   0.76772   0.00000  Uiso   1.00
C961   C     0.87739   0.35493   0.73193   0.00000  Uiso   1.00
C962   C     0.78927   0.64507   0.76812   0.00000  Uiso   1.00
C963   C     0.83316   0.37587   0.74960   0.00000  Uiso   1.00
C964   C     0.83349   0.62412   0.75043   0.00000  Uiso   1.00
C965   C     0.98271   0.46777   0.73043   0.00000  Uiso   1.00
C966   C     0.68394   0.53221   0.76961   0.00000  Uiso   1.00
C967   C     0.69722   0.46762   0.72993   0.00000  Uiso   1.00
C968   C     0.96943   0.53236   0.77011   0.00000  Uiso   1.00
C969   C     0.80308   0.50062   0.83789   0.00000  Uiso   1.00
C970   C     0.86363   0.50066   0.66215   0.00000  Uiso   1.00
C971   C     0.78526   0.50769   0.88802   0.00000  Uiso   1.00
C972   C     0.88262   0.50431   0.61171   0.00000  Uiso   1.00
C973   C     0.72915   0.53974   0.95830   0.00000  Uiso   1.00
C974   C     0.94654   0.49661   0.53624   0.00000  Uiso   1.00
C975   C     0.74031   0.52612   0.91246   0.00000  Uiso   1.00
C976   C     0.93097   0.49549   0.58451   0.00000  Uiso   1.00
C977   C     0.81810   0.50221   0.90973   0.00000  Uiso   1.00
C978   C     0.85086   0.51652   0.59074   0.00000  Uiso   1.00
C979   C     0.80972   0.51922   0.95367   0.00000  Uiso   1.00
C980   C     0.86566   0.51831   0.54249   0.00000  Uiso   1.00
C981   C     0.76359   0.53636   0.97913   0.00000  Uiso   1.00
C982   C     0.91393   0.50684   0.51503   0.00000  Uiso   1.00
C983   C     0.84581   0.51850   0.97315   0.00000  Uiso   1.00
C984   C     0.83246   0.52764   0.52105   0.00000  Uiso   1.00
H985   H     0.71785   0.56374   0.54464   0.00000  Uiso   1.00
H986   H     0.96555   0.49672   0.94530   0.00000  Uiso   1.00
H987   H     0.81372   0.52231   0.61273   0.00000  Uiso   1.00
H988   H     0.85074   0.48497   0.89120   0.00000  Uiso   1.00
H989   H     0.95614   0.48639   0.60042   0.00000  Uiso   1.00
H990   H     0.71467   0.53117   0.89580   0.00000  Uiso   1.00
H991   H     0.69425   0.55391   0.97699   0.00000  Uiso   1.00
H992   H     0.98347   0.48791   0.51555   0.00000  Uiso   1.00
H993   H     0.77559   0.55656   0.58115   0.00000  Uiso   1.00
H994   H     0.90846   0.50699   0.90870   0.00000  Uiso   1.00
H995   H     0.91174   0.62919   0.71795   0.00000  Uiso   1.00
H996   H     0.75491   0.37080   0.78208   0.00000  Uiso   1.00
H997   H     0.91159   0.37153   0.71751   0.00000  Uiso   1.00
H998   H     0.75507   0.62846   0.78255   0.00000  Uiso   1.00
H999   H     0.97001   0.44228   0.71444   0.00000  Uiso   1.00
H1000  H     0.69664   0.55769   0.78562   0.00000  Uiso   1.00
N1001  N     0.71426   0.50001   0.75001   0.00000  Uiso   1.00
N1002  N     0.95241   0.49999   0.74999   0.00000  Uiso   1.00
O1003  O     0.79512   0.56108   0.75000   0.00000  Uiso   1.00
O1004  O     0.87154   0.43892   0.75000   0.00000  Uiso   1.00
O1005  O     0.87157   0.56107   0.75000   0.00000  Uiso   1.00
O1006  O     0.79510   0.43893   0.75000   0.00000  Uiso   1.00
O1007  O     0.77328   0.50001   0.81612   0.00000  Uiso   1.00
O1008  O     0.89339   0.49999   0.68388   0.00000  Uiso   1.00
O1009  O     0.84972   0.50000   0.81612   0.00000  Uiso   1.00
O1010  O     0.81695   0.50000   0.68388   0.00000  Uiso   1.00
Zn1011 Zn    0.78229   0.50001   0.75000   0.00000  Uiso   1.00
Zn1012 Zn    0.88438   0.49999   0.75000   0.00000  Uiso   1.00
C1013  C     0.72728   0.43152   0.70696   0.00000  Uiso   1.00
O1014  O     0.76589   0.43655   0.67477   0.00000  Uiso   1.00
O1015  O     0.70953   0.39119   0.71999   0.00000  Uiso   1.00
H1016  H     0.73271   0.36880   0.70117   0.00000  Uiso   1.00
C1017  C     0.93936   0.56845   0.79313   0.00000  Uiso   1.00
O1018  O     0.90081   0.56340   0.82539   0.00000  Uiso   1.00
O1019  O     0.95705   0.60878   0.78007   0.00000  Uiso   1.00
H1020  H     0.93389   0.63115   0.79894   0.00000  Uiso   1.00
C1021  C     0.16677   0.91328   0.75023   0.00000  Uiso   1.00
C1022  C     0.16656   0.75339   0.74979   0.00000  Uiso   1.00
C1023  C     0.11958   0.87844   0.54583   0.00000  Uiso   1.00
C1024  C     0.22820   0.84277   0.94616   0.00000  Uiso   1.00
C1025  C     0.08607   0.88336   0.52478   0.00000  Uiso   1.00
C1026  C     0.26185   0.83773   0.96689   0.00000  Uiso   1.00
C1027  C     0.21087   0.97882   0.73232   0.00000  Uiso   1.00
C1028  C     0.12245   0.68784   0.76772   0.00000  Uiso   1.00
C1029  C     0.21072   0.68826   0.73193   0.00000  Uiso   1.00
C1030  C     0.12260   0.97840   0.76812   0.00000  Uiso   1.00
C1031  C     0.16650   0.70920   0.74960   0.00000  Uiso   1.00
C1032  C     0.16683   0.95746   0.75043   0.00000  Uiso   1.00
C1033  C     0.31605   0.80111   0.73043   0.00000  Uiso   1.00
C1034  C     0.01727   0.86555   0.76961   0.00000  Uiso   1.00
C1035  C     0.03056   0.80095   0.72993   0.00000  Uiso   1.00
C1036  C     0.30276   0.86570   0.77011   0.00000  Uiso   1.00
C1037  C     0.13642   0.83395   0.83789   0.00000  Uiso   1.00
C1038  C     0.19697   0.83399   0.66215   0.00000  Uiso   1.00
C1039  C     0.11860   0.84103   0.88802   0.00000  Uiso   1.00
C1040  C     0.21595   0.83764   0.61171   0.00000  Uiso   1.00
C1041  C     0.06248   0.87307   0.95830   0.00000  Uiso   1.00
C1042  C     0.27987   0.82994   0.53624   0.00000  Uiso   1.00
C1043  C     0.07364   0.85946   0.91246   0.00000  Uiso   1.00
C1044  C     0.26430   0.82883   0.58451   0.00000  Uiso   1.00
C1045  C     0.15143   0.83554   0.90973   0.00000  Uiso   1.00
C1046  C     0.18419   0.84986   0.59074   0.00000  Uiso   1.00
C1047  C     0.14305   0.85255   0.95367   0.00000  Uiso   1.00
C1048  C     0.19900   0.85164   0.54249   0.00000  Uiso   1.00
C1049  C     0.09692   0.86969   0.97913   0.00000  Uiso   1.00
C1050  C     0.24727   0.84018   0.51503   0.00000  Uiso   1.00
C1051  C     0.17914   0.85183   0.97315   0.00000  Uiso   1.00
C1052  C     0.16580   0.86097   0.52105   0.00000  Uiso   1.00
H1053  H     0.05118   0.89708   0.54464   0.00000  Uiso   1.00
H1054  H     0.29888   0.83005   0.94530   0.00000  Uiso   1.00
H1055  H     0.14705   0.85565   0.61273   0.00000  Uiso   1.00
H1056  H     0.18407   0.81830   0.89120   0.00000  Uiso   1.00
H1057  H     0.28947   0.81972   0.60042   0.00000  Uiso   1.00
H1058  H     0.04801   0.86450   0.89580   0.00000  Uiso   1.00
H1059  H     0.02759   0.88724   0.97699   0.00000  Uiso   1.00
H1060  H     0.31680   0.82124   0.51555   0.00000  Uiso   1.00
H1061  H     0.10893   0.88989   0.58115   0.00000  Uiso   1.00
H1062  H     0.24179   0.84033   0.90870   0.00000  Uiso   1.00
H1063  H     0.24508   0.96253   0.71795   0.00000  Uiso   1.00
H1064  H     0.08824   0.70413   0.78208   0.00000  Uiso   1.00
H1065  H     0.24492   0.70486   0.71751   0.00000  Uiso   1.00
H1066  H     0.08840   0.96179   0.78255   0.00000  Uiso   1.00
H1067  H     0.30334   0.77562   0.71444   0.00000  Uiso   1.00
H1068  H     0.02997   0.89102   0.78562   0.00000  Uiso   1.00
N1069  N     0.04759   0.83334   0.75001   0.00000  Uiso   1.00
N1070  N     0.28574   0.83332   0.74999   0.00000  Uiso   1.00
O1071  O     0.12846   0.89442   0.75000   0.00000  Uiso   1.00
O1072  O     0.20488   0.77225   0.75000   0.00000  Uiso   1.00
O1073  O     0.20490   0.89441   0.75000   0.00000  Uiso   1.00
O1074  O     0.12843   0.77226   0.75000   0.00000  Uiso   1.00
O1075  O     0.10661   0.83334   0.81612   0.00000  Uiso   1.00
O1076  O     0.22672   0.83333   0.68388   0.00000  Uiso   1.00
O1077  O     0.18305   0.83333   0.81612   0.00000  Uiso   1.00
O1078  O     0.15028   0.83334   0.68388   0.00000  Uiso   1.00
Zn1079 Zn    0.11562   0.83334   0.75000   0.00000  Uiso   1.00
Zn1080 Zn    0.21771   0.83333   0.75000   0.00000  Uiso   1.00
C1081  C     0.06061   0.76485   0.70696   0.00000  Uiso   1.00
O1082  O     0.09922   0.76988   0.67477   0.00000  Uiso   1.00
O1083  O     0.04287   0.72453   0.71999   0.00000  Uiso   1.00
H1084  H     0.06604   0.70214   0.70117   0.00000  Uiso   1.00
C1085  C     0.27269   0.90178   0.79313   0.00000  Uiso   1.00
O1086  O     0.23415   0.89673   0.82539   0.00000  Uiso   1.00
O1087  O     0.29038   0.94211   0.78007   0.00000  Uiso   1.00
H1088  H     0.26722   0.96449   0.79894   0.00000  Uiso   1.00
C1089  C     0.50011   0.91328   0.75023   0.00000  Uiso   1.00
C1090  C     0.49989   0.75339   0.74979   0.00000  Uiso   1.00
C1091  C     0.45292   0.87844   0.54583   0.00000  Uiso   1.00
C1092  C     0.56154   0.84277   0.94616   0.00000  Uiso   1.00
C1093  C     0.41940   0.88336   0.52478   0.00000  Uiso   1.00
C1094  C     0.59518   0.83773   0.96689   0.00000  Uiso   1.00
C1095  C     0.54420   0.97882   0.73232   0.00000  Uiso   1.00
C1096  C     0.45579   0.68784   0.76772   0.00000  Uiso   1.00
C1097  C     0.54405   0.68826   0.73193   0.00000  Uiso   1.00
C1098  C     0.45594   0.97840   0.76812   0.00000  Uiso   1.00
C1099  C     0.49983   0.70920   0.74960   0.00000  Uiso   1.00
C1100  C     0.50016   0.95746   0.75043   0.00000  Uiso   1.00
C1101  C     0.64938   0.80111   0.73043   0.00000  Uiso   1.00
C1102  C     0.35061   0.86555   0.76961   0.00000  Uiso   1.00
C1103  C     0.36389   0.80095   0.72993   0.00000  Uiso   1.00
C1104  C     0.63609   0.86570   0.77011   0.00000  Uiso   1.00
C1105  C     0.46975   0.83395   0.83789   0.00000  Uiso   1.00
C1106  C     0.53030   0.83399   0.66215   0.00000  Uiso   1.00
C1107  C     0.45193   0.84103   0.88802   0.00000  Uiso   1.00
C1108  C     0.54928   0.83764   0.61171   0.00000  Uiso   1.00
C1109  C     0.39581   0.87307   0.95830   0.00000  Uiso   1.00
C1110  C     0.61320   0.82994   0.53624   0.00000  Uiso   1.00
C1111  C     0.40697   0.85946   0.91246   0.00000  Uiso   1.00
C1112  C     0.59763   0.82883   0.58451   0.00000  Uiso   1.00
C1113  C     0.48476   0.83554   0.90973   0.00000  Uiso   1.00
C1114  C     0.51753   0.84986   0.59074   0.00000  Uiso   1.00
C1115  C     0.47639   0.85255   0.95367   0.00000  Uiso   1.00
C1116  C     0.53233   0.85164   0.54249   0.00000  Uiso   1.00
C1117  C     0.43025   0.86969   0.97913   0.00000  Uiso   1.00
C1118  C     0.58060   0.84018   0.51503   0.00000  Uiso   1.00
C1119  C     0.51248   0.85183   0.97315   0.00000  Uiso   1.00
C1120  C     0.49913   0.86097   0.52105   0.00000  Uiso   1.00
H1121  H     0.38452   0.89708   0.54464   0.00000  Uiso   1.00
H1122  H     0.63222   0.83005   0.94530   0.00000  Uiso   1.00
H1123  H     0.48038   0.85565   0.61273   0.00000  Uiso   1.00
H1124  H     0.51740   0.81830   0.89120   0.00000  Uiso   1.00
H1125  H     0.62280   0.81972   0.60042   0.00000  Uiso   1.00
H1126  H     0.38134   0.86450   0.89580   0.00000  Uiso   1.00
H1127  H     0.36092   0.88724   0.97699   0.00000  Uiso   1.00
H1128  H     0.65013   0.82124   0.51555   0.00000  Uiso   1.00
H1129  H     0.44226   0.88989   0.58115   0.00000  Uiso   1.00
H1130  H     0.57513   0.84033   0.90870   0.00000  Uiso   1.00
H1131  H     0.57841   0.96253   0.71795   0.00000  Uiso   1.00
H1132  H     0.42158   0.70413   0.78208   0.00000  Uiso   1.00
H1133  H     0.57825   0.70486   0.71751   0.00000  Uiso   1.00
H1134  H     0.42174   0.96179   0.78255   0.00000  Uiso   1.00
H1135  H     0.63667   0.77562   0.71444   0.00000  Uiso   1.00
H1136  H     0.36331   0.89102   0.78562   0.00000  Uiso   1.00
N1137  N     0.38093   0.83334   0.75001   0.00000  Uiso   1.00
N1138  N     0.61907   0.83332   0.74999   0.00000  Uiso   1.00
O1139  O     0.46179   0.89442   0.75000   0.00000  Uiso   1.00
O1140  O     0.53821   0.77225   0.75000   0.00000  Uiso   1.00
O1141  O     0.53823   0.89441   0.75000   0.00000  Uiso   1.00
O1142  O     0.46177   0.77226   0.75000   0.00000  Uiso   1.00
O1143  O     0.43994   0.83334   0.81612   0.00000  Uiso   1.00
O1144  O     0.56006   0.83333   0.68388   0.00000  Uiso   1.00
O1145  O     0.51639   0.83333   0.81612   0.00000  Uiso   1.00
O1146  O     0.48361   0.83334   0.68388   0.00000  Uiso   1.00
Zn1147 Zn    0.44896   0.83334   0.75000   0.00000  Uiso   1.00
Zn1148 Zn    0.55104   0.83333   0.75000   0.00000  Uiso   1.00
C1149  C     0.39395   0.76485   0.70696   0.00000  Uiso   1.00
O1150  O     0.43255   0.76988   0.67477   0.00000  Uiso   1.00
O1151  O     0.37620   0.72453   0.71999   0.00000  Uiso   1.00
H1152  H     0.39937   0.70214   0.70117   0.00000  Uiso   1.00
C1153  C     0.60602   0.90178   0.79313   0.00000  Uiso   1.00
O1154  O     0.56748   0.89673   0.82539   0.00000  Uiso   1.00
O1155  O     0.62371   0.94211   0.78007   0.00000  Uiso   1.00
H1156  H     0.60055   0.96449   0.79894   0.00000  Uiso   1.00
C1157  C     0.83344   0.91328   0.75023   0.00000  Uiso   1.00
C1158  C     0.83322   0.75339   0.74979   0.00000  Uiso   1.00
C1159  C     0.78625   0.87844   0.54583   0.00000  Uiso   1.00
C1160  C     0.89487   0.84277   0.94616   0.00000  Uiso   1.00
C1161  C     0.75274   0.88336   0.52478   0.00000  Uiso   1.00
C1162  C     0.92852   0.83773   0.96689   0.00000  Uiso   1.00
C1163  C     0.87753   0.97882   0.73232   0.00000  Uiso   1.00
C1164  C     0.78912   0.68784   0.76772   0.00000  Uiso   1.00
C1165  C     0.87739   0.68826   0.73193   0.00000  Uiso   1.00
C1166  C     0.78927   0.97840   0.76812   0.00000  Uiso   1.00
C1167  C     0.83316   0.70920   0.74960   0.00000  Uiso   1.00
C1168  C     0.83349   0.95746   0.75043   0.00000  Uiso   1.00
C1169  C     0.98271   0.80111   0.73043   0.00000  Uiso   1.00
C1170  C     0.68394   0.86555   0.76961   0.00000  Uiso   1.00
C1171  C     0.69722   0.80095   0.72993   0.00000  Uiso   1.00
C1172  C     0.96943   0.86570   0.77011   0.00000  Uiso   1.00
C1173  C     0.80308   0.83395   0.83789   0.00000  Uiso   1.00
C1174  C     0.86363   0.83399   0.66215   0.00000  Uiso   1.00
C1175  C     0.78526   0.84103   0.88802   0.00000  Uiso   1.00
C1176  C     0.88262   0.83764   0.61171   0.00000  Uiso   1.00
C1177  C     0.72915   0.87307   0.95830   0.00000  Uiso   1.00
C1178  C     0.94654   0.82994   0.53624   0.00000  Uiso   1.00
C1179  C     0.74031   0.85946   0.91246   0.00000  Uiso   1.00
C1180  C     0.93097   0.82883   0.58451   0.00000  Uiso   1.00
C1181  C     0.81810   0.83554   0.90973   0.00000  Uiso   1.00
C1182  C     0.85086   0.84986   0.59074   0.00000  Uiso   1.00
C1183  C     0.80972   0.85255   0.95367   0.00000  Uiso   1.00
C1184  C     0.86566   0.85164   0.54249   0.00000  Uiso   1.00
C1185  C     0.76359   0.86969   0.97913   0.00000  Uiso   1.00
C1186  C     0.91393   0.84018   0.51503   0.00000  Uiso   1.00
C1187  C     0.84581   0.85183   0.97315   0.00000  Uiso   1.00
C1188  C     0.83246   0.86097   0.52105   0.00000  Uiso   1.00
H1189  H     0.71785   0.89708   0.54464   0.00000  Uiso   1.00
H1190  H     0.96555   0.83005   0.94530   0.00000  Uiso   1.00
H1191  H     0.81372   0.85565   0.61273   0.00000  Uiso   1.00
H1192  H     0.85074   0.81830   0.89120   0.00000  Uiso   1.00
H1193  H     0.95614   0.81972   0.60042   0.00000  Uiso   1.00
H1194  H     0.71467   0.86450   0.89580   0.00000  Uiso   1.00
H1195  H     0.69425   0.88724   0.97699   0.00000  Uiso   1.00
H1196  H     0.98347   0.82124   0.51555   0.00000  Uiso   1.00
H1197  H     0.77559   0.88989   0.58115   0.00000  Uiso   1.00
H1198  H     0.90846   0.84033   0.90870   0.00000  Uiso   1.00
H1199  H     0.91174   0.96253   0.71795   0.00000  Uiso   1.00
H1200  H     0.75491   0.70413   0.78208   0.00000  Uiso   1.00
H1201  H     0.91159   0.70486   0.71751   0.00000  Uiso   1.00
H1202  H     0.75507   0.96179   0.78255   0.00000  Uiso   1.00
H1203  H     0.97001   0.77562   0.71444   0.00000  Uiso   1.00
H1204  H     0.69664   0.89102   0.78562   0.00000  Uiso   1.00
N1205  N     0.71426   0.83334   0.75001   0.00000  Uiso   1.00
N1206  N     0.95241   0.83332   0.74999   0.00000  Uiso   1.00
O1207  O     0.79512   0.89442   0.75000   0.00000  Uiso   1.00
O1208  O     0.87154   0.77225   0.75000   0.00000  Uiso   1.00
O1209  O     0.87157   0.89441   0.75000   0.00000  Uiso   1.00
O1210  O     0.79510   0.77226   0.75000   0.00000  Uiso   1.00
O1211  O     0.77328   0.83334   0.81612   0.00000  Uiso   1.00
O1212  O     0.89339   0.83333   0.68388   0.00000  Uiso   1.00
O1213  O     0.84972   0.83333   0.81612   0.00000  Uiso   1.00
O1214  O     0.81695   0.83334   0.68388   0.00000  Uiso   1.00
Zn1215 Zn    0.78229   0.83334   0.75000   0.00000  Uiso   1.00
Zn1216 Zn    0.88438   0.83333   0.75000   0.00000  Uiso   1.00
C1217  C     0.72728   0.76485   0.70696   0.00000  Uiso   1.00
O1218  O     0.76589   0.76988   0.67477   0.00000  Uiso   1.00
O1219  O     0.70953   0.72453   0.71999   0.00000  Uiso   1.00
H1220  H     0.73271   0.70214   0.70117   0.00000  Uiso   1.00
C1221  C     0.93936   0.90178   0.79313   0.00000  Uiso   1.00
O1222  O     0.90081   0.89673   0.82539   0.00000  Uiso   1.00
O1223  O     0.95705   0.94211   0.78007   0.00000  Uiso   1.00
H1224  H     0.93389   0.96449   0.79894   0.00000  Uiso   1.00
loop_
_geom_bond_atom_site_label_1
_geom_bond_atom_site_label_2
_geom_bond_distance
_geom_bond_site_symmetry_2
_ccdc_geom_bond_type
C1     O51     1.286   .     A
C1     C12     1.415   .     S
C1     O53     1.289   .     A
C2     O52     1.286   .     A
C2     C11     1.415   .     S
C2     O54     1.289   .     A
C3     C32     1.418   .     A
C3     H41     1.079   .     S
C3     C5      1.391   .     A
C4     H42     1.079   .     S
C4     C31     1.417   .     A
C4     C6      1.388   .     A
C5     H33     1.084   .     S
C5     C641    1.392   1_554 S
C6     H34     1.084   .     S
C6     C642    1.391   .     S
C7     C12     1.394   .     A
C7     H43     1.084   .     S
C7     C213    1.371   .     S
C8     C11     1.394   .     A
C8     H44     1.084   .     S
C8     C418    1.371   1_545 S
C9     H45     1.084   .     S
C9     C11     1.398   .     A
C9     C415    1.371   1_545 S
C10    H46     1.084   .     S
C10    C12     1.398   .     A
C10    C212    1.371   .     S
C13    N50     1.356   .     A
C13    H47     1.083   .     S
C13    C83     1.418   .     S
C14    N49     1.356   .     A
C14    H48     1.083   .     S
C14    C152    1.418   1_455 S
C15    C61     1.472   .     S
C15    N49     1.385   .     A
C15    C149    1.418   1_455 S
C16    N50     1.385   .     A
C16    C65     1.472   .     S
C16    C82     1.418   .     S
C17    O55     1.298   .     A
C17    C19     1.457   .     S
C17    O57     1.298   .     A
C18    O56     1.297   .     A
C18    C20     1.457   .     S
C18    O58     1.299   .     A
C19    C23     1.400   .     A
C19    C25     1.391   .     A
C20    C24     1.400   .     A
C20    C26     1.393   .     A
C21    C23     1.396   .     A
C21    C29     1.405   .     A
C21    H39     1.084   .     S
C22    H40     1.083   .     S
C22    C24     1.392   .     A
C22    C30     1.403   .     A
C23    H38     1.083   .     S
C24    H37     1.083   .     S
C25    H36     1.079   .     S
C25    C27     1.392   .     A
C26    C28     1.395   .     A
C26    H35     1.077   .     S
C27    C29     1.416   .     A
C27    C31     1.414   .     A
C28    C30     1.419   .     A
C28    C32     1.417   .     A
C29    C617    1.392   .     S
C30    C618    1.391   1_554 S
C31    C644    1.412   .     S
C32    C643    1.412   1_554 S
N49    Zn59    2.023   .     S
N50    Zn60    2.023   .     S
O51    Zn59    1.989   .     S
O52    Zn60    1.989   .     S
O53    Zn60    1.998   .     S
O54    Zn59    1.998   .     S
O55    Zn59    1.965   .     S
O56    Zn60    1.965   .     S
O57    Zn60    1.921   .     S
O58    Zn59    1.921   .     S
C61    O62     1.220   .     D
C61    O63     1.398   .     S
O63    H64     1.014   .     S
C65    O67     1.398   .     S
C65    O66     1.220   .     D
O67    H68     1.014   .     S
C69    O119    1.286   .     A
C69    C80     1.415   .     S
C69    O121    1.289   .     A
C70    O120    1.286   .     A
C70    C79     1.415   .     S
C70    O122    1.289   .     A
C71    C100    1.418   .     A
C71    H109    1.079   .     S
C71    C73     1.391   .     A
C72    H110    1.079   .     S
C72    C99     1.417   .     A
C72    C74     1.388   .     A
C73    H101    1.084   .     S
C73    C709    1.392   1_554 S
C74    H102    1.084   .     S
C74    C710    1.391   .     S
C75    C80     1.394   .     A
C75    H111    1.084   .     S
C75    C281    1.371   .     S
C76    C79     1.394   .     A
C76    H112    1.084   .     S
C76    C486    1.371   1_545 S
C77    H113    1.084   .     S
C77    C79     1.398   .     A
C77    C483    1.371   1_545 S
C78    H114    1.084   .     S
C78    C80     1.398   .     A
C78    C280    1.371   .     S
C81    N118    1.356   .     A
C81    H115    1.083   .     S
C81    C151    1.418   .     S
C82    N117    1.356   .     A
C82    H116    1.083   .     S
C83    C129    1.472   .     S
C83    N117    1.385   .     A
C84    N118    1.385   .     A
C84    C133    1.472   .     S
C84    C150    1.418   .     S
C85    O123    1.298   .     A
C85    C87     1.457   .     S
C85    O125    1.298   .     A
C86    O124    1.297   .     A
C86    C88     1.457   .     S
C86    O126    1.299   .     A
C87    C91     1.400   .     A
C87    C93     1.391   .     A
C88    C92     1.400   .     A
C88    C94     1.393   .     A
C89    C91     1.396   .     A
C89    C97     1.405   .     A
C89    H107    1.084   .     S
C90    H108    1.083   .     S
C90    C92     1.392   .     A
C90    C98     1.403   .     A
C91    H106    1.083   .     S
C92    H105    1.083   .     S
C93    H104    1.079   .     S
C93    C95     1.392   .     A
C94    C96     1.395   .     A
C94    H103    1.077   .     S
C95    C97     1.416   .     A
C95    C99     1.414   .     A
C96    C98     1.419   .     A
C96    C100    1.417   .     A
C97    C685    1.392   .     S
C98    C686    1.391   1_554 S
C99    C712    1.412   .     S
C100   C711    1.412   1_554 S
N117   Zn127   2.023   .     S
N118   Zn128   2.023   .     S
O119   Zn127   1.989   .     S
O120   Zn128   1.989   .     S
O121   Zn128   1.998   .     S
O122   Zn127   1.998   .     S
O123   Zn127   1.965   .     S
O124   Zn128   1.965   .     S
O125   Zn128   1.921   .     S
O126   Zn127   1.921   .     S
C129   O130    1.220   .     D
C129   O131    1.398   .     S
O131   H132    1.014   .     S
C133   O135    1.398   .     S
C133   O134    1.220   .     D
O135   H136    1.014   .     S
C137   O187    1.286   .     A
C137   C148    1.415   .     S
C137   O189    1.289   .     A
C138   O188    1.286   .     A
C138   C147    1.415   .     S
C138   O190    1.289   .     A
C139   C168    1.418   .     A
C139   H177    1.079   .     S
C139   C141    1.391   .     A
C140   H178    1.079   .     S
C140   C167    1.417   .     A
C140   C142    1.388   .     A
C141   H169    1.084   .     S
C141   C777    1.392   1_554 S
C142   H170    1.084   .     S
C142   C778    1.391   .     S
C143   C148    1.394   .     A
C143   H179    1.084   .     S
C143   C349    1.371   .     S
C144   C147    1.394   .     A
C144   H180    1.084   .     S
C144   C554    1.371   1_545 S
C145   H181    1.084   .     S
C145   C147    1.398   .     A
C145   C551    1.371   1_545 S
C146   H182    1.084   .     S
C146   C148    1.398   .     A
C146   C348    1.371   .     S
C149   N186    1.356   .     A
C149   H183    1.083   .     S
C149   C15     1.418   1_655 S
C150   N185    1.356   .     A
C150   H184    1.083   .     S
C151   C197    1.472   .     S
C151   N185    1.385   .     A
C152   N186    1.385   .     A
C152   C201    1.472   .     S
C152   C14     1.418   1_655 S
C153   O191    1.298   .     A
C153   C155    1.457   .     S
C153   O193    1.298   .     A
C154   O192    1.297   .     A
C154   C156    1.457   .     S
C154   O194    1.299   .     A
C155   C159    1.400   .     A
C155   C161    1.391   .     A
C156   C160    1.400   .     A
C156   C162    1.393   .     A
C157   C159    1.396   .     A
C157   C165    1.405   .     A
C157   H175    1.084   .     S
C158   H176    1.083   .     S
C158   C160    1.392   .     A
C158   C166    1.403   .     A
C159   H174    1.083   .     S
C160   H173    1.083   .     S
C161   H172    1.079   .     S
C161   C163    1.392   .     A
C162   C164    1.395   .     A
C162   H171    1.077   .     S
C163   C165    1.416   .     A
C163   C167    1.414   .     A
C164   C166    1.419   .     A
C164   C168    1.417   .     A
C165   C753    1.392   .     S
C166   C754    1.391   1_554 S
C167   C780    1.412   .     S
C168   C779    1.412   1_554 S
N185   Zn195   2.023   .     S
N186   Zn196   2.023   .     S
O187   Zn195   1.989   .     S
O188   Zn196   1.989   .     S
O189   Zn196   1.998   .     S
O190   Zn195   1.998   .     S
O191   Zn195   1.965   .     S
O192   Zn196   1.965   .     S
O193   Zn196   1.921   .     S
O194   Zn195   1.921   .     S
C197   O198    1.220   .     D
C197   O199    1.398   .     S
O199   H200    1.014   .     S
C201   O203    1.398   .     S
C201   O202    1.220   .     D
O203   H204    1.014   .     S
C205   O255    1.286   .     A
C205   C216    1.415   .     S
C205   O257    1.289   .     A
C206   O256    1.286   .     A
C206   C215    1.415   .     S
C206   O258    1.289   .     A
C207   C236    1.418   .     A
C207   H245    1.079   .     S
C207   C209    1.391   .     A
C208   H246    1.079   .     S
C208   C235    1.417   .     A
C208   C210    1.388   .     A
C209   H237    1.084   .     S
C209   C845    1.392   1_554 S
C210   H238    1.084   .     S
C210   C846    1.391   .     S
C211   C216    1.394   .     A
C211   H247    1.084   .     S
C211   C417    1.371   .     S
C212   C215    1.394   .     A
C212   H248    1.084   .     S
C213   H249    1.084   .     S
C213   C215    1.398   .     A
C214   H250    1.084   .     S
C214   C216    1.398   .     A
C214   C416    1.371   .     S
C217   N254    1.356   .     A
C217   H251    1.083   .     S
C217   C287    1.418   .     S
C218   N253    1.356   .     A
C218   H252    1.083   .     S
C218   C356    1.418   1_455 S
C219   C265    1.472   .     S
C219   N253    1.385   .     A
C219   C353    1.418   1_455 S
C220   N254    1.385   .     A
C220   C269    1.472   .     S
C220   C286    1.418   .     S
C221   O259    1.298   .     A
C221   C223    1.457   .     S
C221   O261    1.298   .     A
C222   O260    1.297   .     A
C222   C224    1.457   .     S
C222   O262    1.299   .     A
C223   C227    1.400   .     A
C223   C229    1.391   .     A
C224   C228    1.400   .     A
C224   C230    1.393   .     A
C225   C227    1.396   .     A
C225   C233    1.405   .     A
C225   H243    1.084   .     S
C226   H244    1.083   .     S
C226   C228    1.392   .     A
C226   C234    1.403   .     A
C227   H242    1.083   .     S
C228   H241    1.083   .     S
C229   H240    1.079   .     S
C229   C231    1.392   .     A
C230   C232    1.395   .     A
C230   H239    1.077   .     S
C231   C233    1.416   .     A
C231   C235    1.414   .     A
C232   C234    1.419   .     A
C232   C236    1.417   .     A
C233   C821    1.392   .     S
C234   C822    1.391   1_554 S
C235   C848    1.412   .     S
C236   C847    1.412   1_554 S
N253   Zn263   2.023   .     S
N254   Zn264   2.023   .     S
O255   Zn263   1.989   .     S
O256   Zn264   1.989   .     S
O257   Zn264   1.998   .     S
O258   Zn263   1.998   .     S
O259   Zn263   1.965   .     S
O260   Zn264   1.965   .     S
O261   Zn264   1.921   .     S
O262   Zn263   1.921   .     S
C265   O266    1.220   .     D
C265   O267    1.398   .     S
O267   H268    1.014   .     S
C269   O271    1.398   .     S
C269   O270    1.220   .     D
O271   H272    1.014   .     S
C273   O323    1.286   .     A
C273   C284    1.415   .     S
C273   O325    1.289   .     A
C274   O324    1.286   .     A
C274   C283    1.415   .     S
C274   O326    1.289   .     A
C275   C304    1.418   .     A
C275   H313    1.079   .     S
C275   C277    1.391   .     A
C276   H314    1.079   .     S
C276   C303    1.417   .     A
C276   C278    1.388   .     A
C277   H305    1.084   .     S
C277   C913    1.392   1_554 S
C278   H306    1.084   .     S
C278   C914    1.391   .     S
C279   C284    1.394   .     A
C279   H315    1.084   .     S
C279   C485    1.371   .     S
C280   C283    1.394   .     A
C280   H316    1.084   .     S
C281   H317    1.084   .     S
C281   C283    1.398   .     A
C282   H318    1.084   .     S
C282   C284    1.398   .     A
C282   C484    1.371   .     S
C285   N322    1.356   .     A
C285   H319    1.083   .     S
C285   C355    1.418   .     S
C286   N321    1.356   .     A
C286   H320    1.083   .     S
C287   C333    1.472   .     S
C287   N321    1.385   .     A
C288   N322    1.385   .     A
C288   C337    1.472   .     S
C288   C354    1.418   .     S
C289   O327    1.298   .     A
C289   C291    1.457   .     S
C289   O329    1.298   .     A
C290   O328    1.297   .     A
C290   C292    1.457   .     S
C290   O330    1.299   .     A
C291   C295    1.400   .     A
C291   C297    1.391   .     A
C292   C296    1.400   .     A
C292   C298    1.393   .     A
C293   C295    1.396   .     A
C293   C301    1.405   .     A
C293   H311    1.084   .     S
C294   H312    1.083   .     S
C294   C296    1.392   .     A
C294   C302    1.403   .     A
C295   H310    1.083   .     S
C296   H309    1.083   .     S
C297   H308    1.079   .     S
C297   C299    1.392   .     A
C298   C300    1.395   .     A
C298   H307    1.077   .     S
C299   C301    1.416   .     A
C299   C303    1.414   .     A
C300   C302    1.419   .     A
C300   C304    1.417   .     A
C301   C889    1.392   .     S
C302   C890    1.391   1_554 S
C303   C916    1.412   .     S
C304   C915    1.412   1_554 S
N321   Zn331   2.023   .     S
N322   Zn332   2.023   .     S
O323   Zn331   1.989   .     S
O324   Zn332   1.989   .     S
O325   Zn332   1.998   .     S
O326   Zn331   1.998   .     S
O327   Zn331   1.965   .     S
O328   Zn332   1.965   .     S
O329   Zn332   1.921   .     S
O330   Zn331   1.921   .     S
C333   O334    1.220   .     D
C333   O335    1.398   .     S
O335   H336    1.014   .     S
C337   O339    1.398   .     S
C337   O338    1.220   .     D
O339   H340    1.014   .     S
C341   O391    1.286   .     A
C341   C352    1.415   .     S
C341   O393    1.289   .     A
C342   O392    1.286   .     A
C342   C351    1.415   .     S
C342   O394    1.289   .     A
C343   C372    1.418   .     A
C343   H381    1.079   .     S
C343   C345    1.391   .     A
C344   H382    1.079   .     S
C344   C371    1.417   .     A
C344   C346    1.388   .     A
C345   H373    1.084   .     S
C345   C981    1.392   1_554 S
C346   H374    1.084   .     S
C346   C982    1.391   .     S
C347   C352    1.394   .     A
C347   H383    1.084   .     S
C347   C553    1.371   .     S
C348   C351    1.394   .     A
C348   H384    1.084   .     S
C349   H385    1.084   .     S
C349   C351    1.398   .     A
C350   H386    1.084   .     S
C350   C352    1.398   .     A
C350   C552    1.371   .     S
C353   N390    1.356   .     A
C353   H387    1.083   .     S
C353   C219    1.418   1_655 S
C354   N389    1.356   .     A
C354   H388    1.083   .     S
C355   C401    1.472   .     S
C355   N389    1.385   .     A
C356   N390    1.385   .     A
C356   C405    1.472   .     S
C356   C218    1.418   1_655 S
C357   O395    1.298   .     A
C357   C359    1.457   .     S
C357   O397    1.298   .     A
C358   O396    1.297   .     A
C358   C360    1.457   .     S
C358   O398    1.299   .     A
C359   C363    1.400   .     A
C359   C365    1.391   .     A
C360   C364    1.400   .     A
C360   C366    1.393   .     A
C361   C363    1.396   .     A
C361   C369    1.405   .     A
C361   H379    1.084   .     S
C362   H380    1.083   .     S
C362   C364    1.392   .     A
C362   C370    1.403   .     A
C363   H378    1.083   .     S
C364   H377    1.083   .     S
C365   H376    1.079   .     S
C365   C367    1.392   .     A
C366   C368    1.395   .     A
C366   H375    1.077   .     S
C367   C369    1.416   .     A
C367   C371    1.414   .     A
C368   C370    1.419   .     A
C368   C372    1.417   .     A
C369   C957    1.392   .     S
C370   C958    1.391   1_554 S
C371   C984    1.412   .     S
C372   C983    1.412   1_554 S
N389   Zn399   2.023   .     S
N390   Zn400   2.023   .     S
O391   Zn399   1.989   .     S
O392   Zn400   1.989   .     S
O393   Zn400   1.998   .     S
O394   Zn399   1.998   .     S
O395   Zn399   1.965   .     S
O396   Zn400   1.965   .     S
O397   Zn400   1.921   .     S
O398   Zn399   1.921   .     S
C401   O402    1.220   .     D
C401   O403    1.398   .     S
O403   H404    1.014   .     S
C405   O407    1.398   .     S
C405   O406    1.220   .     D
O407   H408    1.014   .     S
C409   O459    1.286   .     A
C409   C420    1.415   .     S
C409   O461    1.289   .     A
C410   O460    1.286   .     A
C410   C419    1.415   .     S
C410   O462    1.289   .     A
C411   C440    1.418   .     A
C411   H449    1.079   .     S
C411   C413    1.391   .     A
C412   H450    1.079   .     S
C412   C439    1.417   .     A
C412   C414    1.388   .     A
C413   H441    1.084   .     S
C413   C1049   1.392   1_554 S
C414   H442    1.084   .     S
C414   C1050   1.391   .     S
C415   C420    1.394   .     A
C415   H451    1.084   .     S
C415   C9      1.371   1_565 S
C416   C419    1.394   .     A
C416   H452    1.084   .     S
C417   H453    1.084   .     S
C417   C419    1.398   .     A
C418   H454    1.084   .     S
C418   C420    1.398   .     A
C418   C8      1.371   1_565 S
C421   N458    1.356   .     A
C421   H455    1.083   .     S
C421   C491    1.418   .     S
C422   N457    1.356   .     A
C422   H456    1.083   .     S
C422   C560    1.418   1_455 S
C423   C469    1.472   .     S
C423   N457    1.385   .     A
C423   C557    1.418   1_455 S
C424   N458    1.385   .     A
C424   C473    1.472   .     S
C424   C490    1.418   .     S
C425   O463    1.298   .     A
C425   C427    1.457   .     S
C425   O465    1.298   .     A
C426   O464    1.297   .     A
C426   C428    1.457   .     S
C426   O466    1.299   .     A
C427   C431    1.400   .     A
C427   C433    1.391   .     A
C428   C432    1.400   .     A
C428   C434    1.393   .     A
C429   C431    1.396   .     A
C429   C437    1.405   .     A
C429   H447    1.084   .     S
C430   H448    1.083   .     S
C430   C432    1.392   .     A
C430   C438    1.403   .     A
C431   H446    1.083   .     S
C432   H445    1.083   .     S
C433   H444    1.079   .     S
C433   C435    1.392   .     A
C434   C436    1.395   .     A
C434   H443    1.077   .     S
C435   C437    1.416   .     A
C435   C439    1.414   .     A
C436   C438    1.419   .     A
C436   C440    1.417   .     A
C437   C1025   1.392   .     S
C438   C1026   1.391   1_554 S
C439   C1052   1.412   .     S
C440   C1051   1.412   1_554 S
N457   Zn467   2.023   .     S
N458   Zn468   2.023   .     S
O459   Zn467   1.989   .     S
O460   Zn468   1.989   .     S
O461   Zn468   1.998   .     S
O462   Zn467   1.998   .     S
O463   Zn467   1.965   .     S
O464   Zn468   1.965   .     S
O465   Zn468   1.921   .     S
O466   Zn467   1.921   .     S
C469   O470    1.220   .     D
C469   O471    1.398   .     S
O471   H472    1.014   .     S
C473   O475    1.398   .     S
C473   O474    1.220   .     D
O475   H476    1.014   .     S
C477   O527    1.286   .     A
C477   C488    1.415   .     S
C477   O529    1.289   .     A
C478   O528    1.286   .     A
C478   C487    1.415   .     S
C478   O530    1.289   .     A
C479   C508    1.418   .     A
C479   H517    1.079   .     S
C479   C481    1.391   .     A
C480   H518    1.079   .     S
C480   C507    1.417   .     A
C480   C482    1.388   .     A
C481   H509    1.084   .     S
C481   C1117   1.392   1_554 S
C482   H510    1.084   .     S
C482   C1118   1.391   .     S
C483   C488    1.394   .     A
C483   H519    1.084   .     S
C483   C77     1.371   1_565 S
C484   C487    1.394   .     A
C484   H520    1.084   .     S
C485   H521    1.084   .     S
C485   C487    1.398   .     A
C486   H522    1.084   .     S
C486   C488    1.398   .     A
C486   C76     1.371   1_565 S
C489   N526    1.356   .     A
C489   H523    1.083   .     S
C489   C559    1.418   .     S
C490   N525    1.356   .     A
C490   H524    1.083   .     S
C491   C537    1.472   .     S
C491   N525    1.385   .     A
C492   N526    1.385   .     A
C492   C541    1.472   .     S
C492   C558    1.418   .     S
C493   O531    1.298   .     A
C493   C495    1.457   .     S
C493   O533    1.298   .     A
C494   O532    1.297   .     A
C494   C496    1.457   .     S
C494   O534    1.299   .     A
C495   C499    1.400   .     A
C495   C501    1.391   .     A
C496   C500    1.400   .     A
C496   C502    1.393   .     A
C497   C499    1.396   .     A
C497   C505    1.405   .     A
C497   H515    1.084   .     S
C498   H516    1.083   .     S
C498   C500    1.392   .     A
C498   C506    1.403   .     A
C499   H514    1.083   .     S
C500   H513    1.083   .     S
C501   H512    1.079   .     S
C501   C503    1.392   .     A
C502   C504    1.395   .     A
C502   H511    1.077   .     S
C503   C505    1.416   .     A
C503   C507    1.414   .     A
C504   C506    1.419   .     A
C504   C508    1.417   .     A
C505   C1093   1.392   .     S
C506   C1094   1.391   1_554 S
C507   C1120   1.412   .     S
C508   C1119   1.412   1_554 S
N525   Zn535   2.023   .     S
N526   Zn536   2.023   .     S
O527   Zn535   1.989   .     S
O528   Zn536   1.989   .     S
O529   Zn536   1.998   .     S
O530   Zn535   1.998   .     S
O531   Zn535   1.965   .     S
O532   Zn536   1.965   .     S
O533   Zn536   1.921   .     S
O534   Zn535   1.921   .     S
C537   O538    1.220   .     D
C537   O539    1.398   .     S
O539   H540    1.014   .     S
C541   O543    1.398   .     S
C541   O542    1.220   .     D
O543   H544    1.014   .     S
C545   O595    1.286   .     A
C545   C556    1.415   .     S
C545   O597    1.289   .     A
C546   O596    1.286   .     A
C546   C555    1.415   .     S
C546   O598    1.289   .     A
C547   C576    1.418   .     A
C547   H585    1.079   .     S
C547   C549    1.391   .     A
C548   H586    1.079   .     S
C548   C575    1.417   .     A
C548   C550    1.388   .     A
C549   H577    1.084   .     S
C549   C1185   1.392   1_554 S
C550   H578    1.084   .     S
C550   C1186   1.391   .     S
C551   C556    1.394   .     A
C551   H587    1.084   .     S
C551   C145    1.371   1_565 S
C552   C555    1.394   .     A
C552   H588    1.084   .     S
C553   H589    1.084   .     S
C553   C555    1.398   .     A
C554   H590    1.084   .     S
C554   C556    1.398   .     A
C554   C144    1.371   1_565 S
C557   N594    1.356   .     A
C557   H591    1.083   .     S
C557   C423    1.418   1_655 S
C558   N593    1.356   .     A
C558   H592    1.083   .     S
C559   C605    1.472   .     S
C559   N593    1.385   .     A
C560   N594    1.385   .     A
C560   C609    1.472   .     S
C560   C422    1.418   1_655 S
C561   O599    1.298   .     A
C561   C563    1.457   .     S
C561   O601    1.298   .     A
C562   O600    1.297   .     A
C562   C564    1.457   .     S
C562   O602    1.299   .     A
C563   C567    1.400   .     A
C563   C569    1.391   .     A
C564   C568    1.400   .     A
C564   C570    1.393   .     A
C565   C567    1.396   .     A
C565   C573    1.405   .     A
C565   H583    1.084   .     S
C566   H584    1.083   .     S
C566   C568    1.392   .     A
C566   C574    1.403   .     A
C567   H582    1.083   .     S
C568   H581    1.083   .     S
C569   H580    1.079   .     S
C569   C571    1.392   .     A
C570   C572    1.395   .     A
C570   H579    1.077   .     S
C571   C573    1.416   .     A
C571   C575    1.414   .     A
C572   C574    1.419   .     A
C572   C576    1.417   .     A
C573   C1161   1.392   .     S
C574   C1162   1.391   1_554 S
C575   C1188   1.412   .     S
C576   C1187   1.412   1_554 S
N593   Zn603   2.023   .     S
N594   Zn604   2.023   .     S
O595   Zn603   1.989   .     S
O596   Zn604   1.989   .     S
O597   Zn604   1.998   .     S
O598   Zn603   1.998   .     S
O599   Zn603   1.965   .     S
O600   Zn604   1.965   .     S
O601   Zn604   1.921   .     S
O602   Zn603   1.921   .     S
C605   O606    1.220   .     D
C605   O607    1.398   .     S
O607   H608    1.014   .     S
C609   O611    1.398   .     S
C609   O610    1.220   .     D
O611   H612    1.014   .     S
C613   O663    1.286   .     A
C613   C624    1.415   .     S
C613   O665    1.289   .     A
C614   O664    1.286   .     A
C614   C623    1.415   .     S
C614   O666    1.289   .     A
C615   C644    1.418   .     A
C615   H653    1.079   .     S
C615   C617    1.391   .     A
C616   H654    1.079   .     S
C616   C643    1.417   .     A
C616   C618    1.388   .     A
C617   H645    1.084   .     S
C618   H646    1.084   .     S
C618   C30     1.391   1_556 S
C619   C624    1.394   .     A
C619   H655    1.084   .     S
C619   C825    1.371   .     S
C620   C623    1.394   .     A
C620   H656    1.084   .     S
C620   C1030   1.371   1_545 S
C621   H657    1.084   .     S
C621   C623    1.398   .     A
C621   C1027   1.371   1_545 S
C622   H658    1.084   .     S
C622   C624    1.398   .     A
C622   C824    1.371   .     S
C625   N662    1.356   .     A
C625   H659    1.083   .     S
C625   C695    1.418   .     S
C626   N661    1.356   .     A
C626   H660    1.083   .     S
C626   C764    1.418   1_455 S
C627   C673    1.472   .     S
C627   N661    1.385   .     A
C627   C761    1.418   1_455 S
C628   N662    1.385   .     A
C628   C677    1.472   .     S
C628   C694    1.418   .     S
C629   O667    1.298   .     A
C629   C631    1.457   .     S
C629   O669    1.298   .     A
C630   O668    1.297   .     A
C630   C632    1.457   .     S
C630   O670    1.299   .     A
C631   C635    1.400   .     A
C631   C637    1.391   .     A
C632   C636    1.400   .     A
C632   C638    1.393   .     A
C633   C635    1.396   .     A
C633   C641    1.405   .     A
C633   H651    1.084   .     S
C634   H652    1.083   .     S
C634   C636    1.392   .     A
C634   C642    1.403   .     A
C635   H650    1.083   .     S
C636   H649    1.083   .     S
C637   H648    1.079   .     S
C637   C639    1.392   .     A
C638   C640    1.395   .     A
C638   H647    1.077   .     S
C639   C641    1.416   .     A
C639   C643    1.414   .     A
C640   C642    1.419   .     A
C640   C644    1.417   .     A
C641   C5      1.392   1_556 S
C643   C32     1.412   1_556 S
N661   Zn671   2.023   .     S
N662   Zn672   2.023   .     S
O663   Zn671   1.989   .     S
O664   Zn672   1.989   .     S
O665   Zn672   1.998   .     S
O666   Zn671   1.998   .     S
O667   Zn671   1.965   .     S
O668   Zn672   1.965   .     S
O669   Zn672   1.921   .     S
O670   Zn671   1.921   .     S
C673   O674    1.220   .     D
C673   O675    1.398   .     S
O675   H676    1.014   .     S
C677   O679    1.398   .     S
C677   O678    1.220   .     D
O679   H680    1.014   .     S
C681   O731    1.286   .     A
C681   C692    1.415   .     S
C681   O733    1.289   .     A
C682   O732    1.286   .     A
C682   C691    1.415   .     S
C682   O734    1.289   .     A
C683   C712    1.418   .     A
C683   H721    1.079   .     S
C683   C685    1.391   .     A
C684   H722    1.079   .     S
C684   C711    1.417   .     A
C684   C686    1.388   .     A
C685   H713    1.084   .     S
C686   H714    1.084   .     S
C686   C98     1.391   1_556 S
C687   C692    1.394   .     A
C687   H723    1.084   .     S
C687   C893    1.371   .     S
C688   C691    1.394   .     A
C688   H724    1.084   .     S
C688   C1098   1.371   1_545 S
C689   H725    1.084   .     S
C689   C691    1.398   .     A
C689   C1095   1.371   1_545 S
C690   H726    1.084   .     S
C690   C692    1.398   .     A
C690   C892    1.371   .     S
C693   N730    1.356   .     A
C693   H727    1.083   .     S
C693   C763    1.418   .     S
C694   N729    1.356   .     A
C694   H728    1.083   .     S
C695   C741    1.472   .     S
C695   N729    1.385   .     A
C696   N730    1.385   .     A
C696   C745    1.472   .     S
C696   C762    1.418   .     S
C697   O735    1.298   .     A
C697   C699    1.457   .     S
C697   O737    1.298   .     A
C698   O736    1.297   .     A
C698   C700    1.457   .     S
C698   O738    1.299   .     A
C699   C703    1.400   .     A
C699   C705    1.391   .     A
C700   C704    1.400   .     A
C700   C706    1.393   .     A
C701   C703    1.396   .     A
C701   C709    1.405   .     A
C701   H719    1.084   .     S
C702   H720    1.083   .     S
C702   C704    1.392   .     A
C702   C710    1.403   .     A
C703   H718    1.083   .     S
C704   H717    1.083   .     S
C705   H716    1.079   .     S
C705   C707    1.392   .     A
C706   C708    1.395   .     A
C706   H715    1.077   .     S
C707   C709    1.416   .     A
C707   C711    1.414   .     A
C708   C710    1.419   .     A
C708   C712    1.417   .     A
C709   C73     1.392   1_556 S
C711   C100    1.412   1_556 S
N729   Zn739   2.023   .     S
N730   Zn740   2.023   .     S
O731   Zn739   1.989   .     S
O732   Zn740   1.989   .     S
O733   Zn740   1.998   .     S
O734   Zn739   1.998   .     S
O735   Zn739   1.965   .     S
O736   Zn740   1.965   .     S
O737   Zn740   1.921   .     S
O738   Zn739   1.921   .     S
C741   O742    1.220   .     D
C741   O743    1.398   .     S
O743   H744    1.014   .     S
C745   O747    1.398   .     S
C745   O746    1.220   .     D
O747   H748    1.014   .     S
C749   O799    1.286   .     A
C749   C760    1.415   .     S
C749   O801    1.289   .     A
C750   O800    1.286   .     A
C750   C759    1.415   .     S
C750   O802    1.289   .     A
C751   C780    1.418   .     A
C751   H789    1.079   .     S
C751   C753    1.391   .     A
C752   H790    1.079   .     S
C752   C779    1.417   .     A
C752   C754    1.388   .     A
C753   H781    1.084   .     S
C754   H782    1.084   .     S
C754   C166    1.391   1_556 S
C755   C760    1.394   .     A
C755   H791    1.084   .     S
C755   C961    1.371   .     S
C756   C759    1.394   .     A
C756   H792    1.084   .     S
C756   C1166   1.371   1_545 S
C757   H793    1.084   .     S
C757   C759    1.398   .     A
C757   C1163   1.371   1_545 S
C758   H794    1.084   .     S
C758   C760    1.398   .     A
C758   C960    1.371   .     S
C761   N798    1.356   .     A
C761   H795    1.083   .     S
C761   C627    1.418   1_655 S
C762   N797    1.356   .     A
C762   H796    1.083   .     S
C763   C809    1.472   .     S
C763   N797    1.385   .     A
C764   N798    1.385   .     A
C764   C813    1.472   .     S
C764   C626    1.418   1_655 S
C765   O803    1.298   .     A
C765   C767    1.457   .     S
C765   O805    1.298   .     A
C766   O804    1.297   .     A
C766   C768    1.457   .     S
C766   O806    1.299   .     A
C767   C771    1.400   .     A
C767   C773    1.391   .     A
C768   C772    1.400   .     A
C768   C774    1.393   .     A
C769   C771    1.396   .     A
C769   C777    1.405   .     A
C769   H787    1.084   .     S
C770   H788    1.083   .     S
C770   C772    1.392   .     A
C770   C778    1.403   .     A
C771   H786    1.083   .     S
C772   H785    1.083   .     S
C773   H784    1.079   .     S
C773   C775    1.392   .     A
C774   C776    1.395   .     A
C774   H783    1.077   .     S
C775   C777    1.416   .     A
C775   C779    1.414   .     A
C776   C778    1.419   .     A
C776   C780    1.417   .     A
C777   C141    1.392   1_556 S
C779   C168    1.412   1_556 S
N797   Zn807   2.023   .     S
N798   Zn808   2.023   .     S
O799   Zn807   1.989   .     S
O800   Zn808   1.989   .     S
O801   Zn808   1.998   .     S
O802   Zn807   1.998   .     S
O803   Zn807   1.965   .     S
O804   Zn808   1.965   .     S
O805   Zn808   1.921   .     S
O806   Zn807   1.921   .     S
C809   O810    1.220   .     D
C809   O811    1.398   .     S
O811   H812    1.014   .     S
C813   O815    1.398   .     S
C813   O814    1.220   .     D
O815   H816    1.014   .     S
C817   O867    1.286   .     A
C817   C828    1.415   .     S
C817   O869    1.289   .     A
C818   O868    1.286   .     A
C818   C827    1.415   .     S
C818   O870    1.289   .     A
C819   C848    1.418   .     A
C819   H857    1.079   .     S
C819   C821    1.391   .     A
C820   H858    1.079   .     S
C820   C847    1.417   .     A
C820   C822    1.388   .     A
C821   H849    1.084   .     S
C822   H850    1.084   .     S
C822   C234    1.391   1_556 S
C823   C828    1.394   .     A
C823   H859    1.084   .     S
C823   C1029   1.371   .     S
C824   C827    1.394   .     A
C824   H860    1.084   .     S
C825   H861    1.084   .     S
C825   C827    1.398   .     A
C826   H862    1.084   .     S
C826   C828    1.398   .     A
C826   C1028   1.371   .     S
C829   N866    1.356   .     A
C829   H863    1.083   .     S
C829   C899    1.418   .     S
C830   N865    1.356   .     A
C830   H864    1.083   .     S
C830   C968    1.418   1_455 S
C831   C877    1.472   .     S
C831   N865    1.385   .     A
C831   C965    1.418   1_455 S
C832   N866    1.385   .     A
C832   C881    1.472   .     S
C832   C898    1.418   .     S
C833   O871    1.298   .     A
C833   C835    1.457   .     S
C833   O873    1.298   .     A
C834   O872    1.297   .     A
C834   C836    1.457   .     S
C834   O874    1.299   .     A
C835   C839    1.400   .     A
C835   C841    1.391   .     A
C836   C840    1.400   .     A
C836   C842    1.393   .     A
C837   C839    1.396   .     A
C837   C845    1.405   .     A
C837   H855    1.084   .     S
C838   H856    1.083   .     S
C838   C840    1.392   .     A
C838   C846    1.403   .     A
C839   H854    1.083   .     S
C840   H853    1.083   .     S
C841   H852    1.079   .     S
C841   C843    1.392   .     A
C842   C844    1.395   .     A
C842   H851    1.077   .     S
C843   C845    1.416   .     A
C843   C847    1.414   .     A
C844   C846    1.419   .     A
C844   C848    1.417   .     A
C845   C209    1.392   1_556 S
C847   C236    1.412   1_556 S
N865   Zn875   2.023   .     S
N866   Zn876   2.023   .     S
O867   Zn875   1.989   .     S
O868   Zn876   1.989   .     S
O869   Zn876   1.998   .     S
O870   Zn875   1.998   .     S
O871   Zn875   1.965   .     S
O872   Zn876   1.965   .     S
O873   Zn876   1.921   .     S
O874   Zn875   1.921   .     S
C877   O878    1.220   .     D
C877   O879    1.398   .     S
O879   H880    1.014   .     S
C881   O883    1.398   .     S
C881   O882    1.220   .     D
O883   H884    1.014   .     S
C885   O935    1.286   .     A
C885   C896    1.415   .     S
C885   O937    1.289   .     A
C886   O936    1.286   .     A
C886   C895    1.415   .     S
C886   O938    1.289   .     A
C887   C916    1.418   .     A
C887   H925    1.079   .     S
C887   C889    1.391   .     A
C888   H926    1.079   .     S
C888   C915    1.417   .     A
C888   C890    1.388   .     A
C889   H917    1.084   .     S
C890   H918    1.084   .     S
C890   C302    1.391   1_556 S
C891   C896    1.394   .     A
C891   H927    1.084   .     S
C891   C1097   1.371   .     S
C892   C895    1.394   .     A
C892   H928    1.084   .     S
C893   H929    1.084   .     S
C893   C895    1.398   .     A
C894   H930    1.084   .     S
C894   C896    1.398   .     A
C894   C1096   1.371   .     S
C897   N934    1.356   .     A
C897   H931    1.083   .     S
C897   C967    1.418   .     S
C898   N933    1.356   .     A
C898   H932    1.083   .     S
C899   C945    1.472   .     S
C899   N933    1.385   .     A
C900   N934    1.385   .     A
C900   C949    1.472   .     S
C900   C966    1.418   .     S
C901   O939    1.298   .     A
C901   C903    1.457   .     S
C901   O941    1.298   .     A
C902   O940    1.297   .     A
C902   C904    1.457   .     S
C902   O942    1.299   .     A
C903   C907    1.400   .     A
C903   C909    1.391   .     A
C904   C908    1.400   .     A
C904   C910    1.393   .     A
C905   C907    1.396   .     A
C905   C913    1.405   .     A
C905   H923    1.084   .     S
C906   H924    1.083   .     S
C906   C908    1.392   .     A
C906   C914    1.403   .     A
C907   H922    1.083   .     S
C908   H921    1.083   .     S
C909   H920    1.079   .     S
C909   C911    1.392   .     A
C910   C912    1.395   .     A
C910   H919    1.077   .     S
C911   C913    1.416   .     A
C911   C915    1.414   .     A
C912   C914    1.419   .     A
C912   C916    1.417   .     A
C913   C277    1.392   1_556 S
C915   C304    1.412   1_556 S
N933   Zn943   2.023   .     S
N934   Zn944   2.023   .     S
O935   Zn943   1.989   .     S
O936   Zn944   1.989   .     S
O937   Zn944   1.998   .     S
O938   Zn943   1.998   .     S
O939   Zn943   1.965   .     S
O940   Zn944   1.965   .     S
O941   Zn944   1.921   .     S
O942   Zn943   1.921   .     S
C945   O946    1.220   .     D
C945   O947    1.398   .     S
O947   H948    1.014   .     S
C949   O951    1.398   .     S
C949   O950    1.220   .     D
O951   H952    1.014   .     S
C953   O1003   1.286   .     A
C953   C964    1.415   .     S
C953   O1005   1.289   .     A
C954   O1004   1.286   .     A
C954   C963    1.415   .     S
C954   O1006   1.289   .     A
C955   C984    1.418   .     A
C955   H993    1.079   .     S
C955   C957    1.391   .     A
C956   H994    1.079   .     S
C956   C983    1.417   .     A
C956   C958    1.388   .     A
C957   H985    1.084   .     S
C958   H986    1.084   .     S
C958   C370    1.391   1_556 S
C959   C964    1.394   .     A
C959   H995    1.084   .     S
C959   C1165   1.371   .     S
C960   C963    1.394   .     A
C960   H996    1.084   .     S
C961   H997    1.084   .     S
C961   C963    1.398   .     A
C962   H998    1.084   .     S
C962   C964    1.398   .     A
C962   C1164   1.371   .     S
C965   N1002   1.356   .     A
C965   H999    1.083   .     S
C965   C831    1.418   1_655 S
C966   N1001   1.356   .     A
C966   H1000   1.083   .     S
C967   C1013   1.472   .     S
C967   N1001   1.385   .     A
C968   N1002   1.385   .     A
C968   C1017   1.472   .     S
C968   C830    1.418   1_655 S
C969   O1007   1.298   .     A
C969   C971    1.457   .     S
C969   O1009   1.298   .     A
C970   O1008   1.297   .     A
C970   C972    1.457   .     S
C970   O1010   1.299   .     A
C971   C975    1.400   .     A
C971   C977    1.391   .     A
C972   C976    1.400   .     A
C972   C978    1.393   .     A
C973   C975    1.396   .     A
C973   C981    1.405   .     A
C973   H991    1.084   .     S
C974   H992    1.083   .     S
C974   C976    1.392   .     A
C974   C982    1.403   .     A
C975   H990    1.083   .     S
C976   H989    1.083   .     S
C977   H988    1.079   .     S
C977   C979    1.392   .     A
C978   C980    1.395   .     A
C978   H987    1.077   .     S
C979   C981    1.416   .     A
C979   C983    1.414   .     A
C980   C982    1.419   .     A
C980   C984    1.417   .     A
C981   C345    1.392   1_556 S
C983   C372    1.412   1_556 S
N1001  Zn1011  2.023   .     S
N1002  Zn1012  2.023   .     S
O1003  Zn1011  1.989   .     S
O1004  Zn1012  1.989   .     S
O1005  Zn1012  1.998   .     S
O1006  Zn1011  1.998   .     S
O1007  Zn1011  1.965   .     S
O1008  Zn1012  1.965   .     S
O1009  Zn1012  1.921   .     S
O1010  Zn1011  1.921   .     S
C1013  O1014   1.220   .     D
C1013  O1015   1.398   .     S
O1015  H1016   1.014   .     S
C1017  O1019   1.398   .     S
C1017  O1018   1.220   .     D
O1019  H1020   1.014   .     S
C1021  O1071   1.286   .     A
C1021  C1032   1.415   .     S
C1021  O1073   1.289   .     A
C1022  O1072   1.286   .     A
C1022  C1031   1.415   .     S
C1022  O1074   1.289   .     A
C1023  C1052   1.418   .     A
C1023  H1061   1.079   .     S
C1023  C1025   1.391   .     A
C1024  H1062   1.079   .     S
C1024  C1051   1.417   .     A
C1024  C1026   1.388   .     A
C1025  H1053   1.084   .     S
C1026  H1054   1.084   .     S
C1026  C438    1.391   1_556 S
C1027  C1032   1.394   .     A
C1027  H1063   1.084   .     S
C1027  C621    1.371   1_565 S
C1028  C1031   1.394   .     A
C1028  H1064   1.084   .     S
C1029  H1065   1.084   .     S
C1029  C1031   1.398   .     A
C1030  H1066   1.084   .     S
C1030  C1032   1.398   .     A
C1030  C620    1.371   1_565 S
C1033  N1070   1.356   .     A
C1033  H1067   1.083   .     S
C1033  C1103   1.418   .     S
C1034  N1069   1.356   .     A
C1034  H1068   1.083   .     S
C1034  C1172   1.418   1_455 S
C1035  C1081   1.472   .     S
C1035  N1069   1.385   .     A
C1035  C1169   1.418   1_455 S
C1036  N1070   1.385   .     A
C1036  C1085   1.472   .     S
C1036  C1102   1.418   .     S
C1037  O1075   1.298   .     A
C1037  C1039   1.457   .     S
C1037  O1077   1.298   .     A
C1038  O1076   1.297   .     A
C1038  C1040   1.457   .     S
C1038  O1078   1.299   .     A
C1039  C1043   1.400   .     A
C1039  C1045   1.391   .     A
C1040  C1044   1.400   .     A
C1040  C1046   1.393   .     A
C1041  C1043   1.396   .     A
C1041  C1049   1.405   .     A
C1041  H1059   1.084   .     S
C1042  H1060   1.083   .     S
C1042  C1044   1.392   .     A
C1042  C1050   1.403   .     A
C1043  H1058   1.083   .     S
C1044  H1057   1.083   .     S
C1045  H1056   1.079   .     S
C1045  C1047   1.392   .     A
C1046  C1048   1.395   .     A
C1046  H1055   1.077   .     S
C1047  C1049   1.416   .     A
C1047  C1051   1.414   .     A
C1048  C1050   1.419   .     A
C1048  C1052   1.417   .     A
C1049  C413    1.392   1_556 S
C1051  C440    1.412   1_556 S
N1069  Zn1079  2.023   .     S
N1070  Zn1080  2.023   .     S
O1071  Zn1079  1.989   .     S
O1072  Zn1080  1.989   .     S
O1073  Zn1080  1.998   .     S
O1074  Zn1079  1.998   .     S
O1075  Zn1079  1.965   .     S
O1076  Zn1080  1.965   .     S
O1077  Zn1080  1.921   .     S
O1078  Zn1079  1.921   .     S
C1081  O1082   1.220   .     D
C1081  O1083   1.398   .     S
O1083  H1084   1.014   .     S
C1085  O1087   1.398   .     S
C1085  O1086   1.220   .     D
O1087  H1088   1.014   .     S
C1089  O1139   1.286   .     A
C1089  C1100   1.415   .     S
C1089  O1141   1.289   .     A
C1090  O1140   1.286   .     A
C1090  C1099   1.415   .     S
C1090  O1142   1.289   .     A
C1091  C1120   1.418   .     A
C1091  H1129   1.079   .     S
C1091  C1093   1.391   .     A
C1092  H1130   1.079   .     S
C1092  C1119   1.417   .     A
C1092  C1094   1.388   .     A
C1093  H1121   1.084   .     S
C1094  H1122   1.084   .     S
C1094  C506    1.391   1_556 S
C1095  C1100   1.394   .     A
C1095  H1131   1.084   .     S
C1095  C689    1.371   1_565 S
C1096  C1099   1.394   .     A
C1096  H1132   1.084   .     S
C1097  H1133   1.084   .     S
C1097  C1099   1.398   .     A
C1098  H1134   1.084   .     S
C1098  C1100   1.398   .     A
C1098  C688    1.371   1_565 S
C1101  N1138   1.356   .     A
C1101  H1135   1.083   .     S
C1101  C1171   1.418   .     S
C1102  N1137   1.356   .     A
C1102  H1136   1.083   .     S
C1103  C1149   1.472   .     S
C1103  N1137   1.385   .     A
C1104  N1138   1.385   .     A
C1104  C1153   1.472   .     S
C1104  C1170   1.418   .     S
C1105  O1143   1.298   .     A
C1105  C1107   1.457   .     S
C1105  O1145   1.298   .     A
C1106  O1144   1.297   .     A
C1106  C1108   1.457   .     S
C1106  O1146   1.299   .     A
C1107  C1111   1.400   .     A
C1107  C1113   1.391   .     A
C1108  C1112   1.400   .     A
C1108  C1114   1.393   .     A
C1109  C1111   1.396   .     A
C1109  C1117   1.405   .     A
C1109  H1127   1.084   .     S
C1110  H1128   1.083   .     S
C1110  C1112   1.392   .     A
C1110  C1118   1.403   .     A
C1111  H1126   1.083   .     S
C1112  H1125   1.083   .     S
C1113  H1124   1.079   .     S
C1113  C1115   1.392   .     A
C1114  C1116   1.395   .     A
C1114  H1123   1.077   .     S
C1115  C1117   1.416   .     A
C1115  C1119   1.414   .     A
C1116  C1118   1.419   .     A
C1116  C1120   1.417   .     A
C1117  C481    1.392   1_556 S
C1119  C508    1.412   1_556 S
N1137  Zn1147  2.023   .     S
N1138  Zn1148  2.023   .     S
O1139  Zn1147  1.989   .     S
O1140  Zn1148  1.989   .     S
O1141  Zn1148  1.998   .     S
O1142  Zn1147  1.998   .     S
O1143  Zn1147  1.965   .     S
O1144  Zn1148  1.965   .     S
O1145  Zn1148  1.921   .     S
O1146  Zn1147  1.921   .     S
C1149  O1150   1.220   .     D
C1149  O1151   1.398   .     S
O1151  H1152   1.014   .     S
C1153  O1155   1.398   .     S
C1153  O1154   1.220   .     D
O1155  H1156   1.014   .     S
C1157  O1207   1.286   .     A
C1157  C1168   1.415   .     S
C1157  O1209   1.289   .     A
C1158  O1208   1.286   .     A
C1158  C1167   1.415   .     S
C1158  O1210   1.289   .     A
C1159  C1188   1.418   .     A
C1159  H1197   1.079   .     S
C1159  C1161   1.391   .     A
C1160  H1198   1.079   .     S
C1160  C1187   1.417   .     A
C1160  C1162   1.388   .     A
C1161  H1189   1.084   .     S
C1162  H1190   1.084   .     S
C1162  C574    1.391   1_556 S
C1163  C1168   1.394   .     A
C1163  H1199   1.084   .     S
C1163  C757    1.371   1_565 S
C1164  C1167   1.394   .     A
C1164  H1200   1.084   .     S
C1165  H1201   1.084   .     S
C1165  C1167   1.398   .     A
C1166  H1202   1.084   .     S
C1166  C1168   1.398   .     A
C1166  C756    1.371   1_565 S
C1169  N1206   1.356   .     A
C1169  H1203   1.083   .     S
C1169  C1035   1.418   1_655 S
C1170  N1205   1.356   .     A
C1170  H1204   1.083   .     S
C1171  C1217   1.472   .     S
C1171  N1205   1.385   .     A
C1172  N1206   1.385   .     A
C1172  C1221   1.472   .     S
C1172  C1034   1.418   1_655 S
C1173  O1211   1.298   .     A
C1173  C1175   1.457   .     S
C1173  O1213   1.298   .     A
C1174  O1212   1.297   .     A
C1174  C1176   1.457   .     S
C1174  O1214   1.299   .     A
C1175  C1179   1.400   .     A
C1175  C1181   1.391   .     A
C1176  C1180   1.400   .     A
C1176  C1182   1.393   .     A
C1177  C1179   1.396   .     A
C1177  C1185   1.405   .     A
C1177  H1195   1.084   .     S
C1178  H1196   1.083   .     S
C1178  C1180   1.392   .     A
C1178  C1186   1.403   .     A
C1179  H1194   1.083   .     S
C1180  H1193   1.083   .     S
C1181  H1192   1.079   .     S
C1181  C1183   1.392   .     A
C1182  C1184   1.395   .     A
C1182  H1191   1.077   .     S
C1183  C1185   1.416   .     A
C1183  C1187   1.414   .     A
C1184  C1186   1.419   .     A
C1184  C1188   1.417   .     A
C1185  C549    1.392   1_556 S
C1187  C576    1.412   1_556 S
N1205  Zn1215  2.023   .     S
N1206  Zn1216  2.023   .     S
O1207  Zn1215  1.989   .     S
O1208  Zn1216  1.989   .     S
O1209  Zn1216  1.998   .     S
O1210  Zn1215  1.998   .     S
O1211  Zn1215  1.965   .     S
O1212  Zn1216  1.965   .     S
O1213  Zn1216  1.921   .     S
O1214  Zn1215  1.921   .     S
C1217  O1218   1.220   .     D
C1217  O1219   1.398   .     S
O1219  H1220   1.014   .     S
C1221  O1223   1.398   .     S
C1221  O1222   1.220   .     D
O1223  H1224   1.014   .     S
