data_str_m3_o1_o5_pcu_sym.81
_audit_creation_date              2020-01-03
_audit_creation_method            'Materials Studio'
_symmetry_space_group_name_H-M    'P1'
_symmetry_Int_Tables_number       1
_symmetry_cell_setting            triclinic
loop_
_symmetry_equiv_pos_as_xyz
  x,y,z
_cell_length_a                    31.8642
_cell_length_b                    29.7906
_cell_length_c                    26.7522
_cell_angle_alpha                 90.0001
_cell_angle_beta                  91.2145
_cell_angle_gamma                 90.0000
loop_
_atom_site_label
_atom_site_type_symbol
_atom_site_fract_x
_atom_site_fract_y
_atom_site_fract_z
_atom_site_U_iso_or_equiv
_atom_site_adp_type
_atom_site_occupancy
C1     C     0.08694   0.16667   0.16650   0.00000  Uiso   1.00
C2     C     0.02296   0.16667   0.21285   0.00000  Uiso   1.00
C3     C     0.29062   0.16667   0.16701   0.00000  Uiso   1.00
C4     C     0.04272   0.16667   0.16632   0.00000  Uiso   1.00
C5     C     0.19309   0.02391   0.19802   0.00000  Uiso   1.00
C6     C     0.14025   0.30942   0.13531   0.00000  Uiso   1.00
C7     C     0.14025   0.02391   0.13531   0.00000  Uiso   1.00
C8     C     0.19309   0.30942   0.19802   0.00000  Uiso   1.00
C9     C     0.04363   0.16667   0.07071   0.00000  Uiso   1.00
C10    C     0.28970   0.16667   0.26263   0.00000  Uiso   1.00
C11    C     0.28388   0.16667   0.07241   0.00000  Uiso   1.00
C12    C     0.24639   0.16667   0.16683   0.00000  Uiso   1.00
C13    C     0.04945   0.16667   0.26093   0.00000  Uiso   1.00
C14    C     0.16685   0.16667   0.07296   0.00000  Uiso   1.00
C15    C     0.16649   0.16667   0.26037   0.00000  Uiso   1.00
C16    C     0.16673   0.16667   0.02181   0.00000  Uiso   1.00
C17    C     0.16660   0.16667   0.31153   0.00000  Uiso   1.00
C18    C     0.02081   0.16667   0.12004   0.00000  Uiso   1.00
C19    C     0.31253   0.16667   0.21329   0.00000  Uiso   1.00
C20    C     0.31038   0.16667   0.12048   0.00000  Uiso   1.00
Cl21   Cl    0.22753   0.05290   0.23892   0.00000  Uiso   1.00
Cl22   Cl    0.10580   0.28043   0.09441   0.00000  Uiso   1.00
Cl23   Cl    0.10580   0.05290   0.09441   0.00000  Uiso   1.00
Cl24   Cl    0.22753   0.28043   0.23892   0.00000  Uiso   1.00
H25    H     0.07822   0.16667   0.07459   0.00000  Uiso   1.00
H26    H     0.06968   0.13632   0.26220   0.00000  Uiso   1.00
H27    H     0.06968   0.19701   0.26220   0.00000  Uiso   1.00
H28    H     0.03116   0.16667   0.29546   0.00000  Uiso   1.00
H29    H     0.03502   0.13611   0.04906   0.00000  Uiso   1.00
H30    H     0.03502   0.19723   0.04906   0.00000  Uiso   1.00
H31    H     0.25511   0.16667   0.25874   0.00000  Uiso   1.00
H32    H     0.29831   0.13611   0.28428   0.00000  Uiso   1.00
H33    H     0.29831   0.19723   0.28428   0.00000  Uiso   1.00
H34    H     0.26366   0.19701   0.07113   0.00000  Uiso   1.00
H35    H     0.30218   0.16667   0.03787   0.00000  Uiso   1.00
H36    H     0.26365   0.13632   0.07113   0.00000  Uiso   1.00
N37    N     0.16667   0.28573   0.16667   0.00000  Uiso   1.00
N38    N     0.16667   0.04760   0.16667   0.00000  Uiso   1.00
O39    O     0.10559   0.20487   0.16666   0.00000  Uiso   1.00
O40    O     0.22774   0.12846   0.16667   0.00000  Uiso   1.00
O41    O     0.22774   0.20487   0.16667   0.00000  Uiso   1.00
O42    O     0.10559   0.12846   0.16666   0.00000  Uiso   1.00
O43    O     0.16667   0.20488   0.09511   0.00000  Uiso   1.00
O44    O     0.16666   0.12845   0.23822   0.00000  Uiso   1.00
O45    O     0.16666   0.20488   0.23822   0.00000  Uiso   1.00
O46    O     0.16667   0.12845   0.09511   0.00000  Uiso   1.00
Zn47   Zn    0.16667   0.21771   0.16667   0.00000  Uiso   1.00
Zn48   Zn    0.16667   0.11563   0.16667   0.00000  Uiso   1.00
C49    C     0.42028   0.16667   0.16650   0.00000  Uiso   1.00
C50    C     0.35629   0.16667   0.21285   0.00000  Uiso   1.00
C51    C     0.62395   0.16667   0.16701   0.00000  Uiso   1.00
C52    C     0.37605   0.16667   0.16632   0.00000  Uiso   1.00
C53    C     0.52642   0.02391   0.19802   0.00000  Uiso   1.00
C54    C     0.47358   0.30942   0.13531   0.00000  Uiso   1.00
C55    C     0.47358   0.02391   0.13531   0.00000  Uiso   1.00
C56    C     0.52642   0.30942   0.19802   0.00000  Uiso   1.00
C57    C     0.37696   0.16667   0.07071   0.00000  Uiso   1.00
C58    C     0.62304   0.16667   0.26263   0.00000  Uiso   1.00
C59    C     0.61721   0.16667   0.07241   0.00000  Uiso   1.00
C60    C     0.57972   0.16667   0.16683   0.00000  Uiso   1.00
C61    C     0.38279   0.16667   0.26093   0.00000  Uiso   1.00
C62    C     0.50018   0.16667   0.07296   0.00000  Uiso   1.00
C63    C     0.49982   0.16667   0.26037   0.00000  Uiso   1.00
C64    C     0.50007   0.16667   0.02181   0.00000  Uiso   1.00
C65    C     0.49993   0.16667   0.31153   0.00000  Uiso   1.00
C66    C     0.35414   0.16667   0.12004   0.00000  Uiso   1.00
C67    C     0.64586   0.16667   0.21329   0.00000  Uiso   1.00
C68    C     0.64371   0.16667   0.12048   0.00000  Uiso   1.00
Cl69   Cl    0.56086   0.05290   0.23892   0.00000  Uiso   1.00
Cl70   Cl    0.43913   0.28043   0.09441   0.00000  Uiso   1.00
Cl71   Cl    0.43913   0.05290   0.09441   0.00000  Uiso   1.00
Cl72   Cl    0.56086   0.28043   0.23892   0.00000  Uiso   1.00
H73    H     0.41156   0.16667   0.07459   0.00000  Uiso   1.00
H74    H     0.40301   0.13632   0.26220   0.00000  Uiso   1.00
H75    H     0.40301   0.19701   0.26220   0.00000  Uiso   1.00
H76    H     0.36449   0.16667   0.29546   0.00000  Uiso   1.00
H77    H     0.36836   0.13611   0.04906   0.00000  Uiso   1.00
H78    H     0.36836   0.19723   0.04906   0.00000  Uiso   1.00
H79    H     0.58844   0.16667   0.25874   0.00000  Uiso   1.00
H80    H     0.63164   0.13611   0.28428   0.00000  Uiso   1.00
H81    H     0.63164   0.19723   0.28428   0.00000  Uiso   1.00
H82    H     0.59699   0.19701   0.07113   0.00000  Uiso   1.00
H83    H     0.63551   0.16667   0.03787   0.00000  Uiso   1.00
H84    H     0.59699   0.13632   0.07113   0.00000  Uiso   1.00
N85    N     0.50000   0.28573   0.16667   0.00000  Uiso   1.00
N86    N     0.50000   0.04760   0.16667   0.00000  Uiso   1.00
O87    O     0.43892   0.20487   0.16666   0.00000  Uiso   1.00
O88    O     0.56108   0.12846   0.16667   0.00000  Uiso   1.00
O89    O     0.56108   0.20487   0.16667   0.00000  Uiso   1.00
O90    O     0.43892   0.12846   0.16666   0.00000  Uiso   1.00
O91    O     0.50000   0.20488   0.09511   0.00000  Uiso   1.00
O92    O     0.50000   0.12845   0.23822   0.00000  Uiso   1.00
O93    O     0.50000   0.20488   0.23822   0.00000  Uiso   1.00
O94    O     0.50000   0.12845   0.09511   0.00000  Uiso   1.00
Zn95   Zn    0.50000   0.21771   0.16667   0.00000  Uiso   1.00
Zn96   Zn    0.50000   0.11563   0.16667   0.00000  Uiso   1.00
C97    C     0.75361   0.16667   0.16650   0.00000  Uiso   1.00
C98    C     0.68962   0.16667   0.21285   0.00000  Uiso   1.00
C99    C     0.95728   0.16667   0.16701   0.00000  Uiso   1.00
C100   C     0.70938   0.16667   0.16632   0.00000  Uiso   1.00
C101   C     0.85975   0.02391   0.19802   0.00000  Uiso   1.00
C102   C     0.80691   0.30942   0.13531   0.00000  Uiso   1.00
C103   C     0.80691   0.02391   0.13531   0.00000  Uiso   1.00
C104   C     0.85975   0.30942   0.19802   0.00000  Uiso   1.00
C105   C     0.71030   0.16667   0.07071   0.00000  Uiso   1.00
C106   C     0.95637   0.16667   0.26263   0.00000  Uiso   1.00
C107   C     0.95055   0.16667   0.07241   0.00000  Uiso   1.00
C108   C     0.91306   0.16667   0.16683   0.00000  Uiso   1.00
C109   C     0.71612   0.16667   0.26093   0.00000  Uiso   1.00
C110   C     0.83351   0.16667   0.07296   0.00000  Uiso   1.00
C111   C     0.83315   0.16667   0.26037   0.00000  Uiso   1.00
C112   C     0.83340   0.16667   0.02181   0.00000  Uiso   1.00
C113   C     0.83327   0.16667   0.31153   0.00000  Uiso   1.00
C114   C     0.68747   0.16667   0.12004   0.00000  Uiso   1.00
C115   C     0.97919   0.16667   0.21329   0.00000  Uiso   1.00
C116   C     0.97704   0.16667   0.12048   0.00000  Uiso   1.00
Cl117  Cl    0.89420   0.05290   0.23892   0.00000  Uiso   1.00
Cl118  Cl    0.77247   0.28043   0.09441   0.00000  Uiso   1.00
Cl119  Cl    0.77247   0.05290   0.09441   0.00000  Uiso   1.00
Cl120  Cl    0.89420   0.28043   0.23892   0.00000  Uiso   1.00
H121   H     0.74489   0.16667   0.07459   0.00000  Uiso   1.00
H122   H     0.73634   0.13632   0.26220   0.00000  Uiso   1.00
H123   H     0.73634   0.19701   0.26220   0.00000  Uiso   1.00
H124   H     0.69782   0.16667   0.29546   0.00000  Uiso   1.00
H125   H     0.70169   0.13611   0.04906   0.00000  Uiso   1.00
H126   H     0.70169   0.19723   0.04906   0.00000  Uiso   1.00
H127   H     0.92178   0.16667   0.25874   0.00000  Uiso   1.00
H128   H     0.96498   0.13611   0.28428   0.00000  Uiso   1.00
H129   H     0.96498   0.19723   0.28428   0.00000  Uiso   1.00
H130   H     0.93032   0.19701   0.07113   0.00000  Uiso   1.00
H131   H     0.96884   0.16667   0.03787   0.00000  Uiso   1.00
H132   H     0.93032   0.13632   0.07113   0.00000  Uiso   1.00
N133   N     0.83333   0.28573   0.16667   0.00000  Uiso   1.00
N134   N     0.83333   0.04760   0.16667   0.00000  Uiso   1.00
O135   O     0.77226   0.20487   0.16666   0.00000  Uiso   1.00
O136   O     0.89441   0.12846   0.16667   0.00000  Uiso   1.00
O137   O     0.89441   0.20487   0.16667   0.00000  Uiso   1.00
O138   O     0.77226   0.12846   0.16666   0.00000  Uiso   1.00
O139   O     0.83334   0.20488   0.09511   0.00000  Uiso   1.00
O140   O     0.83333   0.12845   0.23822   0.00000  Uiso   1.00
O141   O     0.83333   0.20488   0.23822   0.00000  Uiso   1.00
O142   O     0.83334   0.12845   0.09511   0.00000  Uiso   1.00
Zn143  Zn    0.83333   0.21771   0.16667   0.00000  Uiso   1.00
Zn144  Zn    0.83333   0.11563   0.16667   0.00000  Uiso   1.00
C145   C     0.08694   0.50000   0.16650   0.00000  Uiso   1.00
C146   C     0.02296   0.50000   0.21285   0.00000  Uiso   1.00
C147   C     0.29062   0.50000   0.16701   0.00000  Uiso   1.00
C148   C     0.04272   0.50000   0.16632   0.00000  Uiso   1.00
C149   C     0.19309   0.35724   0.19802   0.00000  Uiso   1.00
C150   C     0.14025   0.64276   0.13531   0.00000  Uiso   1.00
C151   C     0.14025   0.35724   0.13531   0.00000  Uiso   1.00
C152   C     0.19309   0.64276   0.19802   0.00000  Uiso   1.00
C153   C     0.04363   0.50000   0.07071   0.00000  Uiso   1.00
C154   C     0.28970   0.50000   0.26263   0.00000  Uiso   1.00
C155   C     0.28388   0.50000   0.07241   0.00000  Uiso   1.00
C156   C     0.24639   0.50000   0.16683   0.00000  Uiso   1.00
C157   C     0.04945   0.50000   0.26093   0.00000  Uiso   1.00
C158   C     0.16685   0.50000   0.07296   0.00000  Uiso   1.00
C159   C     0.16649   0.50000   0.26037   0.00000  Uiso   1.00
C160   C     0.16673   0.50000   0.02181   0.00000  Uiso   1.00
C161   C     0.16660   0.50000   0.31153   0.00000  Uiso   1.00
C162   C     0.02081   0.50000   0.12004   0.00000  Uiso   1.00
C163   C     0.31253   0.50000   0.21329   0.00000  Uiso   1.00
C164   C     0.31038   0.50000   0.12048   0.00000  Uiso   1.00
Cl165  Cl    0.22753   0.38623   0.23892   0.00000  Uiso   1.00
Cl166  Cl    0.10580   0.61377   0.09441   0.00000  Uiso   1.00
Cl167  Cl    0.10580   0.38623   0.09441   0.00000  Uiso   1.00
Cl168  Cl    0.22753   0.61377   0.23892   0.00000  Uiso   1.00
H169   H     0.07822   0.50000   0.07459   0.00000  Uiso   1.00
H170   H     0.06968   0.46965   0.26220   0.00000  Uiso   1.00
H171   H     0.06968   0.53035   0.26220   0.00000  Uiso   1.00
H172   H     0.03116   0.50000   0.29546   0.00000  Uiso   1.00
H173   H     0.03502   0.46944   0.04906   0.00000  Uiso   1.00
H174   H     0.03502   0.53056   0.04906   0.00000  Uiso   1.00
H175   H     0.25511   0.50000   0.25874   0.00000  Uiso   1.00
H176   H     0.29831   0.46944   0.28428   0.00000  Uiso   1.00
H177   H     0.29831   0.53056   0.28428   0.00000  Uiso   1.00
H178   H     0.26366   0.53035   0.07113   0.00000  Uiso   1.00
H179   H     0.30218   0.50000   0.03787   0.00000  Uiso   1.00
H180   H     0.26365   0.46965   0.07113   0.00000  Uiso   1.00
N181   N     0.16667   0.61907   0.16667   0.00000  Uiso   1.00
N182   N     0.16667   0.38093   0.16667   0.00000  Uiso   1.00
O183   O     0.10559   0.53821   0.16666   0.00000  Uiso   1.00
O184   O     0.22774   0.46179   0.16667   0.00000  Uiso   1.00
O185   O     0.22774   0.53821   0.16667   0.00000  Uiso   1.00
O186   O     0.10559   0.46179   0.16666   0.00000  Uiso   1.00
O187   O     0.16667   0.53821   0.09511   0.00000  Uiso   1.00
O188   O     0.16666   0.46179   0.23822   0.00000  Uiso   1.00
O189   O     0.16666   0.53821   0.23822   0.00000  Uiso   1.00
O190   O     0.16667   0.46179   0.09511   0.00000  Uiso   1.00
Zn191  Zn    0.16667   0.55104   0.16667   0.00000  Uiso   1.00
Zn192  Zn    0.16667   0.44896   0.16667   0.00000  Uiso   1.00
C193   C     0.42028   0.50000   0.16650   0.00000  Uiso   1.00
C194   C     0.35629   0.50000   0.21285   0.00000  Uiso   1.00
C195   C     0.62395   0.50000   0.16701   0.00000  Uiso   1.00
C196   C     0.37605   0.50000   0.16632   0.00000  Uiso   1.00
C197   C     0.52642   0.35724   0.19802   0.00000  Uiso   1.00
C198   C     0.47358   0.64276   0.13531   0.00000  Uiso   1.00
C199   C     0.47358   0.35724   0.13531   0.00000  Uiso   1.00
C200   C     0.52642   0.64276   0.19802   0.00000  Uiso   1.00
C201   C     0.37696   0.50000   0.07071   0.00000  Uiso   1.00
C202   C     0.62304   0.50000   0.26263   0.00000  Uiso   1.00
C203   C     0.61721   0.50000   0.07241   0.00000  Uiso   1.00
C204   C     0.57972   0.50000   0.16683   0.00000  Uiso   1.00
C205   C     0.38279   0.50000   0.26093   0.00000  Uiso   1.00
C206   C     0.50018   0.50000   0.07296   0.00000  Uiso   1.00
C207   C     0.49982   0.50000   0.26037   0.00000  Uiso   1.00
C208   C     0.50007   0.50000   0.02181   0.00000  Uiso   1.00
C209   C     0.49993   0.50000   0.31153   0.00000  Uiso   1.00
C210   C     0.35414   0.50000   0.12004   0.00000  Uiso   1.00
C211   C     0.64586   0.50000   0.21329   0.00000  Uiso   1.00
C212   C     0.64371   0.50000   0.12048   0.00000  Uiso   1.00
Cl213  Cl    0.56086   0.38623   0.23892   0.00000  Uiso   1.00
Cl214  Cl    0.43913   0.61377   0.09441   0.00000  Uiso   1.00
Cl215  Cl    0.43913   0.38623   0.09441   0.00000  Uiso   1.00
Cl216  Cl    0.56086   0.61377   0.23892   0.00000  Uiso   1.00
H217   H     0.41156   0.50000   0.07459   0.00000  Uiso   1.00
H218   H     0.40301   0.46965   0.26220   0.00000  Uiso   1.00
H219   H     0.40301   0.53035   0.26220   0.00000  Uiso   1.00
H220   H     0.36449   0.50000   0.29546   0.00000  Uiso   1.00
H221   H     0.36836   0.46944   0.04906   0.00000  Uiso   1.00
H222   H     0.36836   0.53056   0.04906   0.00000  Uiso   1.00
H223   H     0.58844   0.50000   0.25874   0.00000  Uiso   1.00
H224   H     0.63164   0.46944   0.28428   0.00000  Uiso   1.00
H225   H     0.63164   0.53056   0.28428   0.00000  Uiso   1.00
H226   H     0.59699   0.53035   0.07113   0.00000  Uiso   1.00
H227   H     0.63551   0.50000   0.03787   0.00000  Uiso   1.00
H228   H     0.59699   0.46965   0.07113   0.00000  Uiso   1.00
N229   N     0.50000   0.61907   0.16667   0.00000  Uiso   1.00
N230   N     0.50000   0.38093   0.16667   0.00000  Uiso   1.00
O231   O     0.43892   0.53821   0.16666   0.00000  Uiso   1.00
O232   O     0.56108   0.46179   0.16667   0.00000  Uiso   1.00
O233   O     0.56108   0.53821   0.16667   0.00000  Uiso   1.00
O234   O     0.43892   0.46179   0.16666   0.00000  Uiso   1.00
O235   O     0.50000   0.53821   0.09511   0.00000  Uiso   1.00
O236   O     0.50000   0.46179   0.23822   0.00000  Uiso   1.00
O237   O     0.50000   0.53821   0.23822   0.00000  Uiso   1.00
O238   O     0.50000   0.46179   0.09511   0.00000  Uiso   1.00
Zn239  Zn    0.50000   0.55104   0.16667   0.00000  Uiso   1.00
Zn240  Zn    0.50000   0.44896   0.16667   0.00000  Uiso   1.00
C241   C     0.75361   0.50000   0.16650   0.00000  Uiso   1.00
C242   C     0.68962   0.50000   0.21285   0.00000  Uiso   1.00
C243   C     0.95728   0.50000   0.16701   0.00000  Uiso   1.00
C244   C     0.70938   0.50000   0.16632   0.00000  Uiso   1.00
C245   C     0.85975   0.35724   0.19802   0.00000  Uiso   1.00
C246   C     0.80691   0.64276   0.13531   0.00000  Uiso   1.00
C247   C     0.80691   0.35724   0.13531   0.00000  Uiso   1.00
C248   C     0.85975   0.64276   0.19802   0.00000  Uiso   1.00
C249   C     0.71030   0.50000   0.07071   0.00000  Uiso   1.00
C250   C     0.95637   0.50000   0.26263   0.00000  Uiso   1.00
C251   C     0.95055   0.50000   0.07241   0.00000  Uiso   1.00
C252   C     0.91306   0.50000   0.16683   0.00000  Uiso   1.00
C253   C     0.71612   0.50000   0.26093   0.00000  Uiso   1.00
C254   C     0.83351   0.50000   0.07296   0.00000  Uiso   1.00
C255   C     0.83315   0.50000   0.26037   0.00000  Uiso   1.00
C256   C     0.83340   0.50000   0.02181   0.00000  Uiso   1.00
C257   C     0.83327   0.50000   0.31153   0.00000  Uiso   1.00
C258   C     0.68747   0.50000   0.12004   0.00000  Uiso   1.00
C259   C     0.97919   0.50000   0.21329   0.00000  Uiso   1.00
C260   C     0.97704   0.50000   0.12048   0.00000  Uiso   1.00
Cl261  Cl    0.89420   0.38623   0.23892   0.00000  Uiso   1.00
Cl262  Cl    0.77247   0.61377   0.09441   0.00000  Uiso   1.00
Cl263  Cl    0.77247   0.38623   0.09441   0.00000  Uiso   1.00
Cl264  Cl    0.89420   0.61377   0.23892   0.00000  Uiso   1.00
H265   H     0.74489   0.50000   0.07459   0.00000  Uiso   1.00
H266   H     0.73634   0.46965   0.26220   0.00000  Uiso   1.00
H267   H     0.73634   0.53035   0.26220   0.00000  Uiso   1.00
H268   H     0.69782   0.50000   0.29546   0.00000  Uiso   1.00
H269   H     0.70169   0.46944   0.04906   0.00000  Uiso   1.00
H270   H     0.70169   0.53056   0.04906   0.00000  Uiso   1.00
H271   H     0.92178   0.50000   0.25874   0.00000  Uiso   1.00
H272   H     0.96498   0.46944   0.28428   0.00000  Uiso   1.00
H273   H     0.96498   0.53056   0.28428   0.00000  Uiso   1.00
H274   H     0.93032   0.53035   0.07113   0.00000  Uiso   1.00
H275   H     0.96884   0.50000   0.03787   0.00000  Uiso   1.00
H276   H     0.93032   0.46965   0.07113   0.00000  Uiso   1.00
N277   N     0.83333   0.61907   0.16667   0.00000  Uiso   1.00
N278   N     0.83333   0.38093   0.16667   0.00000  Uiso   1.00
O279   O     0.77226   0.53821   0.16666   0.00000  Uiso   1.00
O280   O     0.89441   0.46179   0.16667   0.00000  Uiso   1.00
O281   O     0.89441   0.53821   0.16667   0.00000  Uiso   1.00
O282   O     0.77226   0.46179   0.16666   0.00000  Uiso   1.00
O283   O     0.83334   0.53821   0.09511   0.00000  Uiso   1.00
O284   O     0.83333   0.46179   0.23822   0.00000  Uiso   1.00
O285   O     0.83333   0.53821   0.23822   0.00000  Uiso   1.00
O286   O     0.83334   0.46179   0.09511   0.00000  Uiso   1.00
Zn287  Zn    0.83333   0.55104   0.16667   0.00000  Uiso   1.00
Zn288  Zn    0.83333   0.44896   0.16667   0.00000  Uiso   1.00
C289   C     0.08694   0.83333   0.16650   0.00000  Uiso   1.00
C290   C     0.02296   0.83333   0.21285   0.00000  Uiso   1.00
C291   C     0.29062   0.83333   0.16701   0.00000  Uiso   1.00
C292   C     0.04272   0.83333   0.16632   0.00000  Uiso   1.00
C293   C     0.19309   0.69058   0.19802   0.00000  Uiso   1.00
C294   C     0.14025   0.97609   0.13531   0.00000  Uiso   1.00
C295   C     0.14025   0.69058   0.13531   0.00000  Uiso   1.00
C296   C     0.19309   0.97609   0.19802   0.00000  Uiso   1.00
C297   C     0.04363   0.83333   0.07071   0.00000  Uiso   1.00
C298   C     0.28970   0.83333   0.26263   0.00000  Uiso   1.00
C299   C     0.28388   0.83333   0.07241   0.00000  Uiso   1.00
C300   C     0.24639   0.83333   0.16683   0.00000  Uiso   1.00
C301   C     0.04945   0.83333   0.26093   0.00000  Uiso   1.00
C302   C     0.16685   0.83333   0.07296   0.00000  Uiso   1.00
C303   C     0.16649   0.83333   0.26037   0.00000  Uiso   1.00
C304   C     0.16673   0.83333   0.02181   0.00000  Uiso   1.00
C305   C     0.16660   0.83333   0.31153   0.00000  Uiso   1.00
C306   C     0.02081   0.83333   0.12004   0.00000  Uiso   1.00
C307   C     0.31253   0.83333   0.21329   0.00000  Uiso   1.00
C308   C     0.31038   0.83333   0.12048   0.00000  Uiso   1.00
Cl309  Cl    0.22753   0.71957   0.23892   0.00000  Uiso   1.00
Cl310  Cl    0.10580   0.94710   0.09441   0.00000  Uiso   1.00
Cl311  Cl    0.10580   0.71957   0.09441   0.00000  Uiso   1.00
Cl312  Cl    0.22753   0.94710   0.23892   0.00000  Uiso   1.00
H313   H     0.07822   0.83333   0.07459   0.00000  Uiso   1.00
H314   H     0.06968   0.80299   0.26220   0.00000  Uiso   1.00
H315   H     0.06968   0.86368   0.26220   0.00000  Uiso   1.00
H316   H     0.03116   0.83333   0.29546   0.00000  Uiso   1.00
H317   H     0.03502   0.80277   0.04906   0.00000  Uiso   1.00
H318   H     0.03502   0.86389   0.04906   0.00000  Uiso   1.00
H319   H     0.25511   0.83333   0.25874   0.00000  Uiso   1.00
H320   H     0.29831   0.80277   0.28428   0.00000  Uiso   1.00
H321   H     0.29831   0.86389   0.28428   0.00000  Uiso   1.00
H322   H     0.26366   0.86368   0.07113   0.00000  Uiso   1.00
H323   H     0.30218   0.83333   0.03787   0.00000  Uiso   1.00
H324   H     0.26365   0.80299   0.07113   0.00000  Uiso   1.00
N325   N     0.16667   0.95240   0.16667   0.00000  Uiso   1.00
N326   N     0.16667   0.71427   0.16667   0.00000  Uiso   1.00
O327   O     0.10559   0.87154   0.16666   0.00000  Uiso   1.00
O328   O     0.22774   0.79513   0.16667   0.00000  Uiso   1.00
O329   O     0.22774   0.87154   0.16667   0.00000  Uiso   1.00
O330   O     0.10559   0.79513   0.16666   0.00000  Uiso   1.00
O331   O     0.16667   0.87155   0.09511   0.00000  Uiso   1.00
O332   O     0.16666   0.79512   0.23822   0.00000  Uiso   1.00
O333   O     0.16666   0.87155   0.23822   0.00000  Uiso   1.00
O334   O     0.16667   0.79512   0.09511   0.00000  Uiso   1.00
Zn335  Zn    0.16667   0.88437   0.16667   0.00000  Uiso   1.00
Zn336  Zn    0.16667   0.78229   0.16667   0.00000  Uiso   1.00
C337   C     0.42028   0.83333   0.16650   0.00000  Uiso   1.00
C338   C     0.35629   0.83333   0.21285   0.00000  Uiso   1.00
C339   C     0.62395   0.83333   0.16701   0.00000  Uiso   1.00
C340   C     0.37605   0.83333   0.16632   0.00000  Uiso   1.00
C341   C     0.52642   0.69058   0.19802   0.00000  Uiso   1.00
C342   C     0.47358   0.97609   0.13531   0.00000  Uiso   1.00
C343   C     0.47358   0.69058   0.13531   0.00000  Uiso   1.00
C344   C     0.52642   0.97609   0.19802   0.00000  Uiso   1.00
C345   C     0.37696   0.83333   0.07071   0.00000  Uiso   1.00
C346   C     0.62304   0.83333   0.26263   0.00000  Uiso   1.00
C347   C     0.61721   0.83333   0.07241   0.00000  Uiso   1.00
C348   C     0.57972   0.83333   0.16683   0.00000  Uiso   1.00
C349   C     0.38279   0.83333   0.26093   0.00000  Uiso   1.00
C350   C     0.50018   0.83333   0.07296   0.00000  Uiso   1.00
C351   C     0.49982   0.83333   0.26037   0.00000  Uiso   1.00
C352   C     0.50007   0.83333   0.02181   0.00000  Uiso   1.00
C353   C     0.49993   0.83333   0.31153   0.00000  Uiso   1.00
C354   C     0.35414   0.83333   0.12004   0.00000  Uiso   1.00
C355   C     0.64586   0.83333   0.21329   0.00000  Uiso   1.00
C356   C     0.64371   0.83333   0.12048   0.00000  Uiso   1.00
Cl357  Cl    0.56086   0.71957   0.23892   0.00000  Uiso   1.00
Cl358  Cl    0.43913   0.94710   0.09441   0.00000  Uiso   1.00
Cl359  Cl    0.43913   0.71957   0.09441   0.00000  Uiso   1.00
Cl360  Cl    0.56086   0.94710   0.23892   0.00000  Uiso   1.00
H361   H     0.41156   0.83333   0.07459   0.00000  Uiso   1.00
H362   H     0.40301   0.80299   0.26220   0.00000  Uiso   1.00
H363   H     0.40301   0.86368   0.26220   0.00000  Uiso   1.00
H364   H     0.36449   0.83333   0.29546   0.00000  Uiso   1.00
H365   H     0.36836   0.80277   0.04906   0.00000  Uiso   1.00
H366   H     0.36836   0.86389   0.04906   0.00000  Uiso   1.00
H367   H     0.58844   0.83333   0.25874   0.00000  Uiso   1.00
H368   H     0.63164   0.80277   0.28428   0.00000  Uiso   1.00
H369   H     0.63164   0.86389   0.28428   0.00000  Uiso   1.00
H370   H     0.59699   0.86368   0.07113   0.00000  Uiso   1.00
H371   H     0.63551   0.83333   0.03787   0.00000  Uiso   1.00
H372   H     0.59699   0.80299   0.07113   0.00000  Uiso   1.00
N373   N     0.50000   0.95240   0.16667   0.00000  Uiso   1.00
N374   N     0.50000   0.71427   0.16667   0.00000  Uiso   1.00
O375   O     0.43892   0.87154   0.16666   0.00000  Uiso   1.00
O376   O     0.56108   0.79513   0.16667   0.00000  Uiso   1.00
O377   O     0.56108   0.87154   0.16667   0.00000  Uiso   1.00
O378   O     0.43892   0.79513   0.16666   0.00000  Uiso   1.00
O379   O     0.50000   0.87155   0.09511   0.00000  Uiso   1.00
O380   O     0.50000   0.79512   0.23822   0.00000  Uiso   1.00
O381   O     0.50000   0.87155   0.23822   0.00000  Uiso   1.00
O382   O     0.50000   0.79512   0.09511   0.00000  Uiso   1.00
Zn383  Zn    0.50000   0.88437   0.16667   0.00000  Uiso   1.00
Zn384  Zn    0.50000   0.78229   0.16667   0.00000  Uiso   1.00
C385   C     0.75361   0.83333   0.16650   0.00000  Uiso   1.00
C386   C     0.68962   0.83333   0.21285   0.00000  Uiso   1.00
C387   C     0.95728   0.83333   0.16701   0.00000  Uiso   1.00
C388   C     0.70938   0.83333   0.16632   0.00000  Uiso   1.00
C389   C     0.85975   0.69058   0.19802   0.00000  Uiso   1.00
C390   C     0.80691   0.97609   0.13531   0.00000  Uiso   1.00
C391   C     0.80691   0.69058   0.13531   0.00000  Uiso   1.00
C392   C     0.85975   0.97609   0.19802   0.00000  Uiso   1.00
C393   C     0.71030   0.83333   0.07071   0.00000  Uiso   1.00
C394   C     0.95637   0.83333   0.26263   0.00000  Uiso   1.00
C395   C     0.95055   0.83333   0.07241   0.00000  Uiso   1.00
C396   C     0.91306   0.83333   0.16683   0.00000  Uiso   1.00
C397   C     0.71612   0.83333   0.26093   0.00000  Uiso   1.00
C398   C     0.83351   0.83333   0.07296   0.00000  Uiso   1.00
C399   C     0.83315   0.83333   0.26037   0.00000  Uiso   1.00
C400   C     0.83340   0.83333   0.02181   0.00000  Uiso   1.00
C401   C     0.83327   0.83333   0.31153   0.00000  Uiso   1.00
C402   C     0.68747   0.83333   0.12004   0.00000  Uiso   1.00
C403   C     0.97919   0.83333   0.21329   0.00000  Uiso   1.00
C404   C     0.97704   0.83333   0.12048   0.00000  Uiso   1.00
Cl405  Cl    0.89420   0.71957   0.23892   0.00000  Uiso   1.00
Cl406  Cl    0.77247   0.94710   0.09441   0.00000  Uiso   1.00
Cl407  Cl    0.77247   0.71957   0.09441   0.00000  Uiso   1.00
Cl408  Cl    0.89420   0.94710   0.23892   0.00000  Uiso   1.00
H409   H     0.74489   0.83333   0.07459   0.00000  Uiso   1.00
H410   H     0.73634   0.80299   0.26220   0.00000  Uiso   1.00
H411   H     0.73634   0.86368   0.26220   0.00000  Uiso   1.00
H412   H     0.69782   0.83333   0.29546   0.00000  Uiso   1.00
H413   H     0.70169   0.80277   0.04906   0.00000  Uiso   1.00
H414   H     0.70169   0.86389   0.04906   0.00000  Uiso   1.00
H415   H     0.92178   0.83333   0.25874   0.00000  Uiso   1.00
H416   H     0.96498   0.80277   0.28428   0.00000  Uiso   1.00
H417   H     0.96498   0.86389   0.28428   0.00000  Uiso   1.00
H418   H     0.93032   0.86368   0.07113   0.00000  Uiso   1.00
H419   H     0.96884   0.83333   0.03787   0.00000  Uiso   1.00
H420   H     0.93032   0.80299   0.07113   0.00000  Uiso   1.00
N421   N     0.83333   0.95240   0.16667   0.00000  Uiso   1.00
N422   N     0.83333   0.71427   0.16667   0.00000  Uiso   1.00
O423   O     0.77226   0.87154   0.16666   0.00000  Uiso   1.00
O424   O     0.89441   0.79513   0.16667   0.00000  Uiso   1.00
O425   O     0.89441   0.87154   0.16667   0.00000  Uiso   1.00
O426   O     0.77226   0.79513   0.16666   0.00000  Uiso   1.00
O427   O     0.83334   0.87155   0.09511   0.00000  Uiso   1.00
O428   O     0.83333   0.79512   0.23822   0.00000  Uiso   1.00
O429   O     0.83333   0.87155   0.23822   0.00000  Uiso   1.00
O430   O     0.83334   0.79512   0.09511   0.00000  Uiso   1.00
Zn431  Zn    0.83333   0.88437   0.16667   0.00000  Uiso   1.00
Zn432  Zn    0.83333   0.78229   0.16667   0.00000  Uiso   1.00
C433   C     0.08694   0.16667   0.49983   0.00000  Uiso   1.00
C434   C     0.02296   0.16667   0.54619   0.00000  Uiso   1.00
C435   C     0.29062   0.16667   0.50035   0.00000  Uiso   1.00
C436   C     0.04272   0.16667   0.49965   0.00000  Uiso   1.00
C437   C     0.19309   0.02391   0.53136   0.00000  Uiso   1.00
C438   C     0.14025   0.30942   0.46864   0.00000  Uiso   1.00
C439   C     0.14025   0.02391   0.46864   0.00000  Uiso   1.00
C440   C     0.19309   0.30942   0.53136   0.00000  Uiso   1.00
C441   C     0.04363   0.16667   0.40404   0.00000  Uiso   1.00
C442   C     0.28970   0.16667   0.59596   0.00000  Uiso   1.00
C443   C     0.28388   0.16667   0.40574   0.00000  Uiso   1.00
C444   C     0.24639   0.16667   0.50017   0.00000  Uiso   1.00
C445   C     0.04945   0.16667   0.59426   0.00000  Uiso   1.00
C446   C     0.16685   0.16667   0.40630   0.00000  Uiso   1.00
C447   C     0.16649   0.16667   0.59370   0.00000  Uiso   1.00
C448   C     0.16673   0.16667   0.35514   0.00000  Uiso   1.00
C449   C     0.16660   0.16667   0.64486   0.00000  Uiso   1.00
C450   C     0.02081   0.16667   0.45337   0.00000  Uiso   1.00
C451   C     0.31253   0.16667   0.54663   0.00000  Uiso   1.00
C452   C     0.31038   0.16667   0.45381   0.00000  Uiso   1.00
Cl453  Cl    0.22753   0.05290   0.57226   0.00000  Uiso   1.00
Cl454  Cl    0.10580   0.28043   0.42774   0.00000  Uiso   1.00
Cl455  Cl    0.10580   0.05290   0.42774   0.00000  Uiso   1.00
Cl456  Cl    0.22753   0.28043   0.57226   0.00000  Uiso   1.00
H457   H     0.07822   0.16667   0.40793   0.00000  Uiso   1.00
H458   H     0.06968   0.13632   0.59554   0.00000  Uiso   1.00
H459   H     0.06968   0.19701   0.59554   0.00000  Uiso   1.00
H460   H     0.03116   0.16667   0.62879   0.00000  Uiso   1.00
H461   H     0.03502   0.13611   0.38239   0.00000  Uiso   1.00
H462   H     0.03502   0.19723   0.38239   0.00000  Uiso   1.00
H463   H     0.25511   0.16667   0.59207   0.00000  Uiso   1.00
H464   H     0.29831   0.13611   0.61761   0.00000  Uiso   1.00
H465   H     0.29831   0.19723   0.61761   0.00000  Uiso   1.00
H466   H     0.26366   0.19701   0.40446   0.00000  Uiso   1.00
H467   H     0.30218   0.16667   0.37121   0.00000  Uiso   1.00
H468   H     0.26365   0.13632   0.40446   0.00000  Uiso   1.00
N469   N     0.16667   0.28573   0.50000   0.00000  Uiso   1.00
N470   N     0.16667   0.04760   0.50000   0.00000  Uiso   1.00
O471   O     0.10559   0.20487   0.50000   0.00000  Uiso   1.00
O472   O     0.22774   0.12846   0.50000   0.00000  Uiso   1.00
O473   O     0.22774   0.20487   0.50000   0.00000  Uiso   1.00
O474   O     0.10559   0.12846   0.50000   0.00000  Uiso   1.00
O475   O     0.16667   0.20488   0.42845   0.00000  Uiso   1.00
O476   O     0.16666   0.12845   0.57155   0.00000  Uiso   1.00
O477   O     0.16666   0.20488   0.57155   0.00000  Uiso   1.00
O478   O     0.16667   0.12845   0.42845   0.00000  Uiso   1.00
Zn479  Zn    0.16667   0.21771   0.50000   0.00000  Uiso   1.00
Zn480  Zn    0.16667   0.11563   0.50000   0.00000  Uiso   1.00
C481   C     0.42028   0.16667   0.49983   0.00000  Uiso   1.00
C482   C     0.35629   0.16667   0.54619   0.00000  Uiso   1.00
C483   C     0.62395   0.16667   0.50035   0.00000  Uiso   1.00
C484   C     0.37605   0.16667   0.49965   0.00000  Uiso   1.00
C485   C     0.52642   0.02391   0.53136   0.00000  Uiso   1.00
C486   C     0.47358   0.30942   0.46864   0.00000  Uiso   1.00
C487   C     0.47358   0.02391   0.46864   0.00000  Uiso   1.00
C488   C     0.52642   0.30942   0.53136   0.00000  Uiso   1.00
C489   C     0.37696   0.16667   0.40404   0.00000  Uiso   1.00
C490   C     0.62304   0.16667   0.59596   0.00000  Uiso   1.00
C491   C     0.61721   0.16667   0.40574   0.00000  Uiso   1.00
C492   C     0.57972   0.16667   0.50017   0.00000  Uiso   1.00
C493   C     0.38279   0.16667   0.59426   0.00000  Uiso   1.00
C494   C     0.50018   0.16667   0.40630   0.00000  Uiso   1.00
C495   C     0.49982   0.16667   0.59370   0.00000  Uiso   1.00
C496   C     0.50007   0.16667   0.35514   0.00000  Uiso   1.00
C497   C     0.49993   0.16667   0.64486   0.00000  Uiso   1.00
C498   C     0.35414   0.16667   0.45337   0.00000  Uiso   1.00
C499   C     0.64586   0.16667   0.54663   0.00000  Uiso   1.00
C500   C     0.64371   0.16667   0.45381   0.00000  Uiso   1.00
Cl501  Cl    0.56086   0.05290   0.57226   0.00000  Uiso   1.00
Cl502  Cl    0.43913   0.28043   0.42774   0.00000  Uiso   1.00
Cl503  Cl    0.43913   0.05290   0.42774   0.00000  Uiso   1.00
Cl504  Cl    0.56086   0.28043   0.57226   0.00000  Uiso   1.00
H505   H     0.41156   0.16667   0.40793   0.00000  Uiso   1.00
H506   H     0.40301   0.13632   0.59554   0.00000  Uiso   1.00
H507   H     0.40301   0.19701   0.59554   0.00000  Uiso   1.00
H508   H     0.36449   0.16667   0.62879   0.00000  Uiso   1.00
H509   H     0.36836   0.13611   0.38239   0.00000  Uiso   1.00
H510   H     0.36836   0.19723   0.38239   0.00000  Uiso   1.00
H511   H     0.58844   0.16667   0.59207   0.00000  Uiso   1.00
H512   H     0.63164   0.13611   0.61761   0.00000  Uiso   1.00
H513   H     0.63164   0.19723   0.61761   0.00000  Uiso   1.00
H514   H     0.59699   0.19701   0.40446   0.00000  Uiso   1.00
H515   H     0.63551   0.16667   0.37121   0.00000  Uiso   1.00
H516   H     0.59699   0.13632   0.40446   0.00000  Uiso   1.00
N517   N     0.50000   0.28573   0.50000   0.00000  Uiso   1.00
N518   N     0.50000   0.04760   0.50000   0.00000  Uiso   1.00
O519   O     0.43892   0.20487   0.50000   0.00000  Uiso   1.00
O520   O     0.56108   0.12846   0.50000   0.00000  Uiso   1.00
O521   O     0.56108   0.20487   0.50000   0.00000  Uiso   1.00
O522   O     0.43892   0.12846   0.50000   0.00000  Uiso   1.00
O523   O     0.50000   0.20488   0.42845   0.00000  Uiso   1.00
O524   O     0.50000   0.12845   0.57155   0.00000  Uiso   1.00
O525   O     0.50000   0.20488   0.57155   0.00000  Uiso   1.00
O526   O     0.50000   0.12845   0.42845   0.00000  Uiso   1.00
Zn527  Zn    0.50000   0.21771   0.50000   0.00000  Uiso   1.00
Zn528  Zn    0.50000   0.11563   0.50000   0.00000  Uiso   1.00
C529   C     0.75361   0.16667   0.49983   0.00000  Uiso   1.00
C530   C     0.68962   0.16667   0.54619   0.00000  Uiso   1.00
C531   C     0.95728   0.16667   0.50035   0.00000  Uiso   1.00
C532   C     0.70938   0.16667   0.49965   0.00000  Uiso   1.00
C533   C     0.85975   0.02391   0.53136   0.00000  Uiso   1.00
C534   C     0.80691   0.30942   0.46864   0.00000  Uiso   1.00
C535   C     0.80691   0.02391   0.46864   0.00000  Uiso   1.00
C536   C     0.85975   0.30942   0.53136   0.00000  Uiso   1.00
C537   C     0.71030   0.16667   0.40404   0.00000  Uiso   1.00
C538   C     0.95637   0.16667   0.59596   0.00000  Uiso   1.00
C539   C     0.95055   0.16667   0.40574   0.00000  Uiso   1.00
C540   C     0.91306   0.16667   0.50017   0.00000  Uiso   1.00
C541   C     0.71612   0.16667   0.59426   0.00000  Uiso   1.00
C542   C     0.83351   0.16667   0.40630   0.00000  Uiso   1.00
C543   C     0.83315   0.16667   0.59370   0.00000  Uiso   1.00
C544   C     0.83340   0.16667   0.35514   0.00000  Uiso   1.00
C545   C     0.83327   0.16667   0.64486   0.00000  Uiso   1.00
C546   C     0.68747   0.16667   0.45337   0.00000  Uiso   1.00
C547   C     0.97919   0.16667   0.54663   0.00000  Uiso   1.00
C548   C     0.97704   0.16667   0.45381   0.00000  Uiso   1.00
Cl549  Cl    0.89420   0.05290   0.57226   0.00000  Uiso   1.00
Cl550  Cl    0.77247   0.28043   0.42774   0.00000  Uiso   1.00
Cl551  Cl    0.77247   0.05290   0.42774   0.00000  Uiso   1.00
Cl552  Cl    0.89420   0.28043   0.57226   0.00000  Uiso   1.00
H553   H     0.74489   0.16667   0.40793   0.00000  Uiso   1.00
H554   H     0.73634   0.13632   0.59554   0.00000  Uiso   1.00
H555   H     0.73634   0.19701   0.59554   0.00000  Uiso   1.00
H556   H     0.69782   0.16667   0.62879   0.00000  Uiso   1.00
H557   H     0.70169   0.13611   0.38239   0.00000  Uiso   1.00
H558   H     0.70169   0.19723   0.38239   0.00000  Uiso   1.00
H559   H     0.92178   0.16667   0.59207   0.00000  Uiso   1.00
H560   H     0.96498   0.13611   0.61761   0.00000  Uiso   1.00
H561   H     0.96498   0.19723   0.61761   0.00000  Uiso   1.00
H562   H     0.93032   0.19701   0.40446   0.00000  Uiso   1.00
H563   H     0.96884   0.16667   0.37121   0.00000  Uiso   1.00
H564   H     0.93032   0.13632   0.40446   0.00000  Uiso   1.00
N565   N     0.83333   0.28573   0.50000   0.00000  Uiso   1.00
N566   N     0.83333   0.04760   0.50000   0.00000  Uiso   1.00
O567   O     0.77226   0.20487   0.50000   0.00000  Uiso   1.00
O568   O     0.89441   0.12846   0.50000   0.00000  Uiso   1.00
O569   O     0.89441   0.20487   0.50000   0.00000  Uiso   1.00
O570   O     0.77226   0.12846   0.50000   0.00000  Uiso   1.00
O571   O     0.83334   0.20488   0.42845   0.00000  Uiso   1.00
O572   O     0.83333   0.12845   0.57155   0.00000  Uiso   1.00
O573   O     0.83333   0.20488   0.57155   0.00000  Uiso   1.00
O574   O     0.83334   0.12845   0.42845   0.00000  Uiso   1.00
Zn575  Zn    0.83333   0.21771   0.50000   0.00000  Uiso   1.00
Zn576  Zn    0.83333   0.11563   0.50000   0.00000  Uiso   1.00
C577   C     0.08694   0.50000   0.49983   0.00000  Uiso   1.00
C578   C     0.02296   0.50000   0.54619   0.00000  Uiso   1.00
C579   C     0.29062   0.50000   0.50035   0.00000  Uiso   1.00
C580   C     0.04272   0.50000   0.49965   0.00000  Uiso   1.00
C581   C     0.19309   0.35724   0.53136   0.00000  Uiso   1.00
C582   C     0.14025   0.64276   0.46864   0.00000  Uiso   1.00
C583   C     0.14025   0.35724   0.46864   0.00000  Uiso   1.00
C584   C     0.19309   0.64276   0.53136   0.00000  Uiso   1.00
C585   C     0.04363   0.50000   0.40404   0.00000  Uiso   1.00
C586   C     0.28970   0.50000   0.59596   0.00000  Uiso   1.00
C587   C     0.28388   0.50000   0.40574   0.00000  Uiso   1.00
C588   C     0.24639   0.50000   0.50017   0.00000  Uiso   1.00
C589   C     0.04945   0.50000   0.59426   0.00000  Uiso   1.00
C590   C     0.16685   0.50000   0.40630   0.00000  Uiso   1.00
C591   C     0.16649   0.50000   0.59370   0.00000  Uiso   1.00
C592   C     0.16673   0.50000   0.35514   0.00000  Uiso   1.00
C593   C     0.16660   0.50000   0.64486   0.00000  Uiso   1.00
C594   C     0.02081   0.50000   0.45337   0.00000  Uiso   1.00
C595   C     0.31253   0.50000   0.54663   0.00000  Uiso   1.00
C596   C     0.31038   0.50000   0.45381   0.00000  Uiso   1.00
Cl597  Cl    0.22753   0.38623   0.57226   0.00000  Uiso   1.00
Cl598  Cl    0.10580   0.61377   0.42774   0.00000  Uiso   1.00
Cl599  Cl    0.10580   0.38623   0.42774   0.00000  Uiso   1.00
Cl600  Cl    0.22753   0.61377   0.57226   0.00000  Uiso   1.00
H601   H     0.07822   0.50000   0.40793   0.00000  Uiso   1.00
H602   H     0.06968   0.46965   0.59554   0.00000  Uiso   1.00
H603   H     0.06968   0.53035   0.59554   0.00000  Uiso   1.00
H604   H     0.03116   0.50000   0.62879   0.00000  Uiso   1.00
H605   H     0.03502   0.46944   0.38239   0.00000  Uiso   1.00
H606   H     0.03502   0.53056   0.38239   0.00000  Uiso   1.00
H607   H     0.25511   0.50000   0.59207   0.00000  Uiso   1.00
H608   H     0.29831   0.46944   0.61761   0.00000  Uiso   1.00
H609   H     0.29831   0.53056   0.61761   0.00000  Uiso   1.00
H610   H     0.26366   0.53035   0.40446   0.00000  Uiso   1.00
H611   H     0.30218   0.50000   0.37121   0.00000  Uiso   1.00
H612   H     0.26365   0.46965   0.40446   0.00000  Uiso   1.00
N613   N     0.16667   0.61907   0.50000   0.00000  Uiso   1.00
N614   N     0.16667   0.38093   0.50000   0.00000  Uiso   1.00
O615   O     0.10559   0.53821   0.50000   0.00000  Uiso   1.00
O616   O     0.22774   0.46179   0.50000   0.00000  Uiso   1.00
O617   O     0.22774   0.53821   0.50000   0.00000  Uiso   1.00
O618   O     0.10559   0.46179   0.50000   0.00000  Uiso   1.00
O619   O     0.16667   0.53821   0.42845   0.00000  Uiso   1.00
O620   O     0.16666   0.46179   0.57155   0.00000  Uiso   1.00
O621   O     0.16666   0.53821   0.57155   0.00000  Uiso   1.00
O622   O     0.16667   0.46179   0.42845   0.00000  Uiso   1.00
Zn623  Zn    0.16667   0.55104   0.50000   0.00000  Uiso   1.00
Zn624  Zn    0.16667   0.44896   0.50000   0.00000  Uiso   1.00
C625   C     0.42028   0.50000   0.49983   0.00000  Uiso   1.00
C626   C     0.35629   0.50000   0.54619   0.00000  Uiso   1.00
C627   C     0.62395   0.50000   0.50035   0.00000  Uiso   1.00
C628   C     0.37605   0.50000   0.49965   0.00000  Uiso   1.00
C629   C     0.52642   0.35724   0.53136   0.00000  Uiso   1.00
C630   C     0.47358   0.64276   0.46864   0.00000  Uiso   1.00
C631   C     0.47358   0.35724   0.46864   0.00000  Uiso   1.00
C632   C     0.52642   0.64276   0.53136   0.00000  Uiso   1.00
C633   C     0.37696   0.50000   0.40404   0.00000  Uiso   1.00
C634   C     0.62304   0.50000   0.59596   0.00000  Uiso   1.00
C635   C     0.61721   0.50000   0.40574   0.00000  Uiso   1.00
C636   C     0.57972   0.50000   0.50017   0.00000  Uiso   1.00
C637   C     0.38279   0.50000   0.59426   0.00000  Uiso   1.00
C638   C     0.50018   0.50000   0.40630   0.00000  Uiso   1.00
C639   C     0.49982   0.50000   0.59370   0.00000  Uiso   1.00
C640   C     0.50007   0.50000   0.35514   0.00000  Uiso   1.00
C641   C     0.49993   0.50000   0.64486   0.00000  Uiso   1.00
C642   C     0.35414   0.50000   0.45337   0.00000  Uiso   1.00
C643   C     0.64586   0.50000   0.54663   0.00000  Uiso   1.00
C644   C     0.64371   0.50000   0.45381   0.00000  Uiso   1.00
Cl645  Cl    0.56086   0.38623   0.57226   0.00000  Uiso   1.00
Cl646  Cl    0.43913   0.61377   0.42774   0.00000  Uiso   1.00
Cl647  Cl    0.43913   0.38623   0.42774   0.00000  Uiso   1.00
Cl648  Cl    0.56086   0.61377   0.57226   0.00000  Uiso   1.00
H649   H     0.41156   0.50000   0.40793   0.00000  Uiso   1.00
H650   H     0.40301   0.46965   0.59554   0.00000  Uiso   1.00
H651   H     0.40301   0.53035   0.59554   0.00000  Uiso   1.00
H652   H     0.36449   0.50000   0.62879   0.00000  Uiso   1.00
H653   H     0.36836   0.46944   0.38239   0.00000  Uiso   1.00
H654   H     0.36836   0.53056   0.38239   0.00000  Uiso   1.00
H655   H     0.58844   0.50000   0.59207   0.00000  Uiso   1.00
H656   H     0.63164   0.46944   0.61761   0.00000  Uiso   1.00
H657   H     0.63164   0.53056   0.61761   0.00000  Uiso   1.00
H658   H     0.59699   0.53035   0.40446   0.00000  Uiso   1.00
H659   H     0.63551   0.50000   0.37121   0.00000  Uiso   1.00
H660   H     0.59699   0.46965   0.40446   0.00000  Uiso   1.00
N661   N     0.50000   0.61907   0.50000   0.00000  Uiso   1.00
N662   N     0.50000   0.38093   0.50000   0.00000  Uiso   1.00
O663   O     0.43892   0.53821   0.50000   0.00000  Uiso   1.00
O664   O     0.56108   0.46179   0.50000   0.00000  Uiso   1.00
O665   O     0.56108   0.53821   0.50000   0.00000  Uiso   1.00
O666   O     0.43892   0.46179   0.50000   0.00000  Uiso   1.00
O667   O     0.50000   0.53821   0.42845   0.00000  Uiso   1.00
O668   O     0.50000   0.46179   0.57155   0.00000  Uiso   1.00
O669   O     0.50000   0.53821   0.57155   0.00000  Uiso   1.00
O670   O     0.50000   0.46179   0.42845   0.00000  Uiso   1.00
Zn671  Zn    0.50000   0.55104   0.50000   0.00000  Uiso   1.00
Zn672  Zn    0.50000   0.44896   0.50000   0.00000  Uiso   1.00
C673   C     0.75361   0.50000   0.49983   0.00000  Uiso   1.00
C674   C     0.68962   0.50000   0.54619   0.00000  Uiso   1.00
C675   C     0.95728   0.50000   0.50035   0.00000  Uiso   1.00
C676   C     0.70938   0.50000   0.49965   0.00000  Uiso   1.00
C677   C     0.85975   0.35724   0.53136   0.00000  Uiso   1.00
C678   C     0.80691   0.64276   0.46864   0.00000  Uiso   1.00
C679   C     0.80691   0.35724   0.46864   0.00000  Uiso   1.00
C680   C     0.85975   0.64276   0.53136   0.00000  Uiso   1.00
C681   C     0.71030   0.50000   0.40404   0.00000  Uiso   1.00
C682   C     0.95637   0.50000   0.59596   0.00000  Uiso   1.00
C683   C     0.95055   0.50000   0.40574   0.00000  Uiso   1.00
C684   C     0.91306   0.50000   0.50017   0.00000  Uiso   1.00
C685   C     0.71612   0.50000   0.59426   0.00000  Uiso   1.00
C686   C     0.83351   0.50000   0.40630   0.00000  Uiso   1.00
C687   C     0.83315   0.50000   0.59370   0.00000  Uiso   1.00
C688   C     0.83340   0.50000   0.35514   0.00000  Uiso   1.00
C689   C     0.83327   0.50000   0.64486   0.00000  Uiso   1.00
C690   C     0.68747   0.50000   0.45337   0.00000  Uiso   1.00
C691   C     0.97919   0.50000   0.54663   0.00000  Uiso   1.00
C692   C     0.97704   0.50000   0.45381   0.00000  Uiso   1.00
Cl693  Cl    0.89420   0.38623   0.57226   0.00000  Uiso   1.00
Cl694  Cl    0.77247   0.61377   0.42774   0.00000  Uiso   1.00
Cl695  Cl    0.77247   0.38623   0.42774   0.00000  Uiso   1.00
Cl696  Cl    0.89420   0.61377   0.57226   0.00000  Uiso   1.00
H697   H     0.74489   0.50000   0.40793   0.00000  Uiso   1.00
H698   H     0.73634   0.46965   0.59554   0.00000  Uiso   1.00
H699   H     0.73634   0.53035   0.59554   0.00000  Uiso   1.00
H700   H     0.69782   0.50000   0.62879   0.00000  Uiso   1.00
H701   H     0.70169   0.46944   0.38239   0.00000  Uiso   1.00
H702   H     0.70169   0.53056   0.38239   0.00000  Uiso   1.00
H703   H     0.92178   0.50000   0.59207   0.00000  Uiso   1.00
H704   H     0.96498   0.46944   0.61761   0.00000  Uiso   1.00
H705   H     0.96498   0.53056   0.61761   0.00000  Uiso   1.00
H706   H     0.93032   0.53035   0.40446   0.00000  Uiso   1.00
H707   H     0.96884   0.50000   0.37121   0.00000  Uiso   1.00
H708   H     0.93032   0.46965   0.40446   0.00000  Uiso   1.00
N709   N     0.83333   0.61907   0.50000   0.00000  Uiso   1.00
N710   N     0.83333   0.38093   0.50000   0.00000  Uiso   1.00
O711   O     0.77226   0.53821   0.50000   0.00000  Uiso   1.00
O712   O     0.89441   0.46179   0.50000   0.00000  Uiso   1.00
O713   O     0.89441   0.53821   0.50000   0.00000  Uiso   1.00
O714   O     0.77226   0.46179   0.50000   0.00000  Uiso   1.00
O715   O     0.83334   0.53821   0.42845   0.00000  Uiso   1.00
O716   O     0.83333   0.46179   0.57155   0.00000  Uiso   1.00
O717   O     0.83333   0.53821   0.57155   0.00000  Uiso   1.00
O718   O     0.83334   0.46179   0.42845   0.00000  Uiso   1.00
Zn719  Zn    0.83333   0.55104   0.50000   0.00000  Uiso   1.00
Zn720  Zn    0.83333   0.44896   0.50000   0.00000  Uiso   1.00
C721   C     0.08694   0.83333   0.49983   0.00000  Uiso   1.00
C722   C     0.02296   0.83333   0.54619   0.00000  Uiso   1.00
C723   C     0.29062   0.83333   0.50035   0.00000  Uiso   1.00
C724   C     0.04272   0.83333   0.49965   0.00000  Uiso   1.00
C725   C     0.19309   0.69058   0.53136   0.00000  Uiso   1.00
C726   C     0.14025   0.97609   0.46864   0.00000  Uiso   1.00
C727   C     0.14025   0.69058   0.46864   0.00000  Uiso   1.00
C728   C     0.19309   0.97609   0.53136   0.00000  Uiso   1.00
C729   C     0.04363   0.83333   0.40404   0.00000  Uiso   1.00
C730   C     0.28970   0.83333   0.59596   0.00000  Uiso   1.00
C731   C     0.28388   0.83333   0.40574   0.00000  Uiso   1.00
C732   C     0.24639   0.83333   0.50017   0.00000  Uiso   1.00
C733   C     0.04945   0.83333   0.59426   0.00000  Uiso   1.00
C734   C     0.16685   0.83333   0.40630   0.00000  Uiso   1.00
C735   C     0.16649   0.83333   0.59370   0.00000  Uiso   1.00
C736   C     0.16673   0.83333   0.35514   0.00000  Uiso   1.00
C737   C     0.16660   0.83333   0.64486   0.00000  Uiso   1.00
C738   C     0.02081   0.83333   0.45337   0.00000  Uiso   1.00
C739   C     0.31253   0.83333   0.54663   0.00000  Uiso   1.00
C740   C     0.31038   0.83333   0.45381   0.00000  Uiso   1.00
Cl741  Cl    0.22753   0.71957   0.57226   0.00000  Uiso   1.00
Cl742  Cl    0.10580   0.94710   0.42774   0.00000  Uiso   1.00
Cl743  Cl    0.10580   0.71957   0.42774   0.00000  Uiso   1.00
Cl744  Cl    0.22753   0.94710   0.57226   0.00000  Uiso   1.00
H745   H     0.07822   0.83333   0.40793   0.00000  Uiso   1.00
H746   H     0.06968   0.80299   0.59554   0.00000  Uiso   1.00
H747   H     0.06968   0.86368   0.59554   0.00000  Uiso   1.00
H748   H     0.03116   0.83333   0.62879   0.00000  Uiso   1.00
H749   H     0.03502   0.80277   0.38239   0.00000  Uiso   1.00
H750   H     0.03502   0.86389   0.38239   0.00000  Uiso   1.00
H751   H     0.25511   0.83333   0.59207   0.00000  Uiso   1.00
H752   H     0.29831   0.80277   0.61761   0.00000  Uiso   1.00
H753   H     0.29831   0.86389   0.61761   0.00000  Uiso   1.00
H754   H     0.26366   0.86368   0.40446   0.00000  Uiso   1.00
H755   H     0.30218   0.83333   0.37121   0.00000  Uiso   1.00
H756   H     0.26365   0.80299   0.40446   0.00000  Uiso   1.00
N757   N     0.16667   0.95240   0.50000   0.00000  Uiso   1.00
N758   N     0.16667   0.71427   0.50000   0.00000  Uiso   1.00
O759   O     0.10559   0.87154   0.50000   0.00000  Uiso   1.00
O760   O     0.22774   0.79513   0.50000   0.00000  Uiso   1.00
O761   O     0.22774   0.87154   0.50000   0.00000  Uiso   1.00
O762   O     0.10559   0.79513   0.50000   0.00000  Uiso   1.00
O763   O     0.16667   0.87155   0.42845   0.00000  Uiso   1.00
O764   O     0.16666   0.79512   0.57155   0.00000  Uiso   1.00
O765   O     0.16666   0.87155   0.57155   0.00000  Uiso   1.00
O766   O     0.16667   0.79512   0.42845   0.00000  Uiso   1.00
Zn767  Zn    0.16667   0.88437   0.50000   0.00000  Uiso   1.00
Zn768  Zn    0.16667   0.78229   0.50000   0.00000  Uiso   1.00
C769   C     0.42028   0.83333   0.49983   0.00000  Uiso   1.00
C770   C     0.35629   0.83333   0.54619   0.00000  Uiso   1.00
C771   C     0.62395   0.83333   0.50035   0.00000  Uiso   1.00
C772   C     0.37605   0.83333   0.49965   0.00000  Uiso   1.00
C773   C     0.52642   0.69058   0.53136   0.00000  Uiso   1.00
C774   C     0.47358   0.97609   0.46864   0.00000  Uiso   1.00
C775   C     0.47358   0.69058   0.46864   0.00000  Uiso   1.00
C776   C     0.52642   0.97609   0.53136   0.00000  Uiso   1.00
C777   C     0.37696   0.83333   0.40404   0.00000  Uiso   1.00
C778   C     0.62304   0.83333   0.59596   0.00000  Uiso   1.00
C779   C     0.61721   0.83333   0.40574   0.00000  Uiso   1.00
C780   C     0.57972   0.83333   0.50017   0.00000  Uiso   1.00
C781   C     0.38279   0.83333   0.59426   0.00000  Uiso   1.00
C782   C     0.50018   0.83333   0.40630   0.00000  Uiso   1.00
C783   C     0.49982   0.83333   0.59370   0.00000  Uiso   1.00
C784   C     0.50007   0.83333   0.35514   0.00000  Uiso   1.00
C785   C     0.49993   0.83333   0.64486   0.00000  Uiso   1.00
C786   C     0.35414   0.83333   0.45337   0.00000  Uiso   1.00
C787   C     0.64586   0.83333   0.54663   0.00000  Uiso   1.00
C788   C     0.64371   0.83333   0.45381   0.00000  Uiso   1.00
Cl789  Cl    0.56086   0.71957   0.57226   0.00000  Uiso   1.00
Cl790  Cl    0.43913   0.94710   0.42774   0.00000  Uiso   1.00
Cl791  Cl    0.43913   0.71957   0.42774   0.00000  Uiso   1.00
Cl792  Cl    0.56086   0.94710   0.57226   0.00000  Uiso   1.00
H793   H     0.41156   0.83333   0.40793   0.00000  Uiso   1.00
H794   H     0.40301   0.80299   0.59554   0.00000  Uiso   1.00
H795   H     0.40301   0.86368   0.59554   0.00000  Uiso   1.00
H796   H     0.36449   0.83333   0.62879   0.00000  Uiso   1.00
H797   H     0.36836   0.80277   0.38239   0.00000  Uiso   1.00
H798   H     0.36836   0.86389   0.38239   0.00000  Uiso   1.00
H799   H     0.58844   0.83333   0.59207   0.00000  Uiso   1.00
H800   H     0.63164   0.80277   0.61761   0.00000  Uiso   1.00
H801   H     0.63164   0.86389   0.61761   0.00000  Uiso   1.00
H802   H     0.59699   0.86368   0.40446   0.00000  Uiso   1.00
H803   H     0.63551   0.83333   0.37121   0.00000  Uiso   1.00
H804   H     0.59699   0.80299   0.40446   0.00000  Uiso   1.00
N805   N     0.50000   0.95240   0.50000   0.00000  Uiso   1.00
N806   N     0.50000   0.71427   0.50000   0.00000  Uiso   1.00
O807   O     0.43892   0.87154   0.50000   0.00000  Uiso   1.00
O808   O     0.56108   0.79513   0.50000   0.00000  Uiso   1.00
O809   O     0.56108   0.87154   0.50000   0.00000  Uiso   1.00
O810   O     0.43892   0.79513   0.50000   0.00000  Uiso   1.00
O811   O     0.50000   0.87155   0.42845   0.00000  Uiso   1.00
O812   O     0.50000   0.79512   0.57155   0.00000  Uiso   1.00
O813   O     0.50000   0.87155   0.57155   0.00000  Uiso   1.00
O814   O     0.50000   0.79512   0.42845   0.00000  Uiso   1.00
Zn815  Zn    0.50000   0.88437   0.50000   0.00000  Uiso   1.00
Zn816  Zn    0.50000   0.78229   0.50000   0.00000  Uiso   1.00
C817   C     0.75361   0.83333   0.49983   0.00000  Uiso   1.00
C818   C     0.68962   0.83333   0.54619   0.00000  Uiso   1.00
C819   C     0.95728   0.83333   0.50035   0.00000  Uiso   1.00
C820   C     0.70938   0.83333   0.49965   0.00000  Uiso   1.00
C821   C     0.85975   0.69058   0.53136   0.00000  Uiso   1.00
C822   C     0.80691   0.97609   0.46864   0.00000  Uiso   1.00
C823   C     0.80691   0.69058   0.46864   0.00000  Uiso   1.00
C824   C     0.85975   0.97609   0.53136   0.00000  Uiso   1.00
C825   C     0.71030   0.83333   0.40404   0.00000  Uiso   1.00
C826   C     0.95637   0.83333   0.59596   0.00000  Uiso   1.00
C827   C     0.95055   0.83333   0.40574   0.00000  Uiso   1.00
C828   C     0.91306   0.83333   0.50017   0.00000  Uiso   1.00
C829   C     0.71612   0.83333   0.59426   0.00000  Uiso   1.00
C830   C     0.83351   0.83333   0.40630   0.00000  Uiso   1.00
C831   C     0.83315   0.83333   0.59370   0.00000  Uiso   1.00
C832   C     0.83340   0.83333   0.35514   0.00000  Uiso   1.00
C833   C     0.83327   0.83333   0.64486   0.00000  Uiso   1.00
C834   C     0.68747   0.83333   0.45337   0.00000  Uiso   1.00
C835   C     0.97919   0.83333   0.54663   0.00000  Uiso   1.00
C836   C     0.97704   0.83333   0.45381   0.00000  Uiso   1.00
Cl837  Cl    0.89420   0.71957   0.57226   0.00000  Uiso   1.00
Cl838  Cl    0.77247   0.94710   0.42774   0.00000  Uiso   1.00
Cl839  Cl    0.77247   0.71957   0.42774   0.00000  Uiso   1.00
Cl840  Cl    0.89420   0.94710   0.57226   0.00000  Uiso   1.00
H841   H     0.74489   0.83333   0.40793   0.00000  Uiso   1.00
H842   H     0.73634   0.80299   0.59554   0.00000  Uiso   1.00
H843   H     0.73634   0.86368   0.59554   0.00000  Uiso   1.00
H844   H     0.69782   0.83333   0.62879   0.00000  Uiso   1.00
H845   H     0.70169   0.80277   0.38239   0.00000  Uiso   1.00
H846   H     0.70169   0.86389   0.38239   0.00000  Uiso   1.00
H847   H     0.92178   0.83333   0.59207   0.00000  Uiso   1.00
H848   H     0.96498   0.80277   0.61761   0.00000  Uiso   1.00
H849   H     0.96498   0.86389   0.61761   0.00000  Uiso   1.00
H850   H     0.93032   0.86368   0.40446   0.00000  Uiso   1.00
H851   H     0.96884   0.83333   0.37121   0.00000  Uiso   1.00
H852   H     0.93032   0.80299   0.40446   0.00000  Uiso   1.00
N853   N     0.83333   0.95240   0.50000   0.00000  Uiso   1.00
N854   N     0.83333   0.71427   0.50000   0.00000  Uiso   1.00
O855   O     0.77226   0.87154   0.50000   0.00000  Uiso   1.00
O856   O     0.89441   0.79513   0.50000   0.00000  Uiso   1.00
O857   O     0.89441   0.87154   0.50000   0.00000  Uiso   1.00
O858   O     0.77226   0.79513   0.50000   0.00000  Uiso   1.00
O859   O     0.83334   0.87155   0.42845   0.00000  Uiso   1.00
O860   O     0.83333   0.79512   0.57155   0.00000  Uiso   1.00
O861   O     0.83333   0.87155   0.57155   0.00000  Uiso   1.00
O862   O     0.83334   0.79512   0.42845   0.00000  Uiso   1.00
Zn863  Zn    0.83333   0.88437   0.50000   0.00000  Uiso   1.00
Zn864  Zn    0.83333   0.78229   0.50000   0.00000  Uiso   1.00
C865   C     0.08694   0.16667   0.83317   0.00000  Uiso   1.00
C866   C     0.02296   0.16667   0.87952   0.00000  Uiso   1.00
C867   C     0.29062   0.16667   0.83368   0.00000  Uiso   1.00
C868   C     0.04272   0.16667   0.83299   0.00000  Uiso   1.00
C869   C     0.19309   0.02391   0.86469   0.00000  Uiso   1.00
C870   C     0.14025   0.30942   0.80197   0.00000  Uiso   1.00
C871   C     0.14025   0.02391   0.80197   0.00000  Uiso   1.00
C872   C     0.19309   0.30942   0.86469   0.00000  Uiso   1.00
C873   C     0.04363   0.16667   0.73737   0.00000  Uiso   1.00
C874   C     0.28970   0.16667   0.92929   0.00000  Uiso   1.00
C875   C     0.28388   0.16667   0.73907   0.00000  Uiso   1.00
C876   C     0.24639   0.16667   0.83350   0.00000  Uiso   1.00
C877   C     0.04945   0.16667   0.92759   0.00000  Uiso   1.00
C878   C     0.16685   0.16667   0.73963   0.00000  Uiso   1.00
C879   C     0.16649   0.16667   0.92704   0.00000  Uiso   1.00
C880   C     0.16673   0.16667   0.68847   0.00000  Uiso   1.00
C881   C     0.16660   0.16667   0.97819   0.00000  Uiso   1.00
C882   C     0.02081   0.16667   0.78671   0.00000  Uiso   1.00
C883   C     0.31253   0.16667   0.87996   0.00000  Uiso   1.00
C884   C     0.31038   0.16667   0.78715   0.00000  Uiso   1.00
Cl885  Cl    0.22753   0.05290   0.90559   0.00000  Uiso   1.00
Cl886  Cl    0.10580   0.28043   0.76108   0.00000  Uiso   1.00
Cl887  Cl    0.10580   0.05290   0.76108   0.00000  Uiso   1.00
Cl888  Cl    0.22753   0.28043   0.90559   0.00000  Uiso   1.00
H889   H     0.07822   0.16667   0.74126   0.00000  Uiso   1.00
H890   H     0.06968   0.13632   0.92887   0.00000  Uiso   1.00
H891   H     0.06968   0.19701   0.92887   0.00000  Uiso   1.00
H892   H     0.03116   0.16667   0.96212   0.00000  Uiso   1.00
H893   H     0.03502   0.13611   0.71572   0.00000  Uiso   1.00
H894   H     0.03502   0.19723   0.71572   0.00000  Uiso   1.00
H895   H     0.25511   0.16667   0.92541   0.00000  Uiso   1.00
H896   H     0.29831   0.13611   0.95094   0.00000  Uiso   1.00
H897   H     0.29831   0.19723   0.95094   0.00000  Uiso   1.00
H898   H     0.26366   0.19701   0.73780   0.00000  Uiso   1.00
H899   H     0.30218   0.16667   0.70454   0.00000  Uiso   1.00
H900   H     0.26365   0.13632   0.73780   0.00000  Uiso   1.00
N901   N     0.16667   0.28573   0.83333   0.00000  Uiso   1.00
N902   N     0.16667   0.04760   0.83333   0.00000  Uiso   1.00
O903   O     0.10559   0.20487   0.83333   0.00000  Uiso   1.00
O904   O     0.22774   0.12846   0.83334   0.00000  Uiso   1.00
O905   O     0.22774   0.20487   0.83334   0.00000  Uiso   1.00
O906   O     0.10559   0.12846   0.83333   0.00000  Uiso   1.00
O907   O     0.16667   0.20488   0.76178   0.00000  Uiso   1.00
O908   O     0.16666   0.12845   0.90489   0.00000  Uiso   1.00
O909   O     0.16666   0.20488   0.90489   0.00000  Uiso   1.00
O910   O     0.16667   0.12845   0.76178   0.00000  Uiso   1.00
Zn911  Zn    0.16667   0.21771   0.83333   0.00000  Uiso   1.00
Zn912  Zn    0.16667   0.11563   0.83333   0.00000  Uiso   1.00
C913   C     0.42028   0.16667   0.83317   0.00000  Uiso   1.00
C914   C     0.35629   0.16667   0.87952   0.00000  Uiso   1.00
C915   C     0.62395   0.16667   0.83368   0.00000  Uiso   1.00
C916   C     0.37605   0.16667   0.83299   0.00000  Uiso   1.00
C917   C     0.52642   0.02391   0.86469   0.00000  Uiso   1.00
C918   C     0.47358   0.30942   0.80197   0.00000  Uiso   1.00
C919   C     0.47358   0.02391   0.80197   0.00000  Uiso   1.00
C920   C     0.52642   0.30942   0.86469   0.00000  Uiso   1.00
C921   C     0.37696   0.16667   0.73737   0.00000  Uiso   1.00
C922   C     0.62304   0.16667   0.92929   0.00000  Uiso   1.00
C923   C     0.61721   0.16667   0.73907   0.00000  Uiso   1.00
C924   C     0.57972   0.16667   0.83350   0.00000  Uiso   1.00
C925   C     0.38279   0.16667   0.92759   0.00000  Uiso   1.00
C926   C     0.50018   0.16667   0.73963   0.00000  Uiso   1.00
C927   C     0.49982   0.16667   0.92704   0.00000  Uiso   1.00
C928   C     0.50007   0.16667   0.68847   0.00000  Uiso   1.00
C929   C     0.49993   0.16667   0.97819   0.00000  Uiso   1.00
C930   C     0.35414   0.16667   0.78671   0.00000  Uiso   1.00
C931   C     0.64586   0.16667   0.87996   0.00000  Uiso   1.00
C932   C     0.64371   0.16667   0.78715   0.00000  Uiso   1.00
Cl933  Cl    0.56086   0.05290   0.90559   0.00000  Uiso   1.00
Cl934  Cl    0.43913   0.28043   0.76108   0.00000  Uiso   1.00
Cl935  Cl    0.43913   0.05290   0.76108   0.00000  Uiso   1.00
Cl936  Cl    0.56086   0.28043   0.90559   0.00000  Uiso   1.00
H937   H     0.41156   0.16667   0.74126   0.00000  Uiso   1.00
H938   H     0.40301   0.13632   0.92887   0.00000  Uiso   1.00
H939   H     0.40301   0.19701   0.92887   0.00000  Uiso   1.00
H940   H     0.36449   0.16667   0.96212   0.00000  Uiso   1.00
H941   H     0.36836   0.13611   0.71572   0.00000  Uiso   1.00
H942   H     0.36836   0.19723   0.71572   0.00000  Uiso   1.00
H943   H     0.58844   0.16667   0.92541   0.00000  Uiso   1.00
H944   H     0.63164   0.13611   0.95094   0.00000  Uiso   1.00
H945   H     0.63164   0.19723   0.95094   0.00000  Uiso   1.00
H946   H     0.59699   0.19701   0.73780   0.00000  Uiso   1.00
H947   H     0.63551   0.16667   0.70454   0.00000  Uiso   1.00
H948   H     0.59699   0.13632   0.73780   0.00000  Uiso   1.00
N949   N     0.50000   0.28573   0.83333   0.00000  Uiso   1.00
N950   N     0.50000   0.04760   0.83333   0.00000  Uiso   1.00
O951   O     0.43892   0.20487   0.83333   0.00000  Uiso   1.00
O952   O     0.56108   0.12846   0.83334   0.00000  Uiso   1.00
O953   O     0.56108   0.20487   0.83334   0.00000  Uiso   1.00
O954   O     0.43892   0.12846   0.83333   0.00000  Uiso   1.00
O955   O     0.50000   0.20488   0.76178   0.00000  Uiso   1.00
O956   O     0.50000   0.12845   0.90489   0.00000  Uiso   1.00
O957   O     0.50000   0.20488   0.90489   0.00000  Uiso   1.00
O958   O     0.50000   0.12845   0.76178   0.00000  Uiso   1.00
Zn959  Zn    0.50000   0.21771   0.83333   0.00000  Uiso   1.00
Zn960  Zn    0.50000   0.11563   0.83333   0.00000  Uiso   1.00
C961   C     0.75361   0.16667   0.83317   0.00000  Uiso   1.00
C962   C     0.68962   0.16667   0.87952   0.00000  Uiso   1.00
C963   C     0.95728   0.16667   0.83368   0.00000  Uiso   1.00
C964   C     0.70938   0.16667   0.83299   0.00000  Uiso   1.00
C965   C     0.85975   0.02391   0.86469   0.00000  Uiso   1.00
C966   C     0.80691   0.30942   0.80197   0.00000  Uiso   1.00
C967   C     0.80691   0.02391   0.80197   0.00000  Uiso   1.00
C968   C     0.85975   0.30942   0.86469   0.00000  Uiso   1.00
C969   C     0.71030   0.16667   0.73737   0.00000  Uiso   1.00
C970   C     0.95637   0.16667   0.92929   0.00000  Uiso   1.00
C971   C     0.95055   0.16667   0.73907   0.00000  Uiso   1.00
C972   C     0.91306   0.16667   0.83350   0.00000  Uiso   1.00
C973   C     0.71612   0.16667   0.92759   0.00000  Uiso   1.00
C974   C     0.83351   0.16667   0.73963   0.00000  Uiso   1.00
C975   C     0.83315   0.16667   0.92704   0.00000  Uiso   1.00
C976   C     0.83340   0.16667   0.68847   0.00000  Uiso   1.00
C977   C     0.83327   0.16667   0.97819   0.00000  Uiso   1.00
C978   C     0.68747   0.16667   0.78671   0.00000  Uiso   1.00
C979   C     0.97919   0.16667   0.87996   0.00000  Uiso   1.00
C980   C     0.97704   0.16667   0.78715   0.00000  Uiso   1.00
Cl981  Cl    0.89420   0.05290   0.90559   0.00000  Uiso   1.00
Cl982  Cl    0.77247   0.28043   0.76108   0.00000  Uiso   1.00
Cl983  Cl    0.77247   0.05290   0.76108   0.00000  Uiso   1.00
Cl984  Cl    0.89420   0.28043   0.90559   0.00000  Uiso   1.00
H985   H     0.74489   0.16667   0.74126   0.00000  Uiso   1.00
H986   H     0.73634   0.13632   0.92887   0.00000  Uiso   1.00
H987   H     0.73634   0.19701   0.92887   0.00000  Uiso   1.00
H988   H     0.69782   0.16667   0.96212   0.00000  Uiso   1.00
H989   H     0.70169   0.13611   0.71572   0.00000  Uiso   1.00
H990   H     0.70169   0.19723   0.71572   0.00000  Uiso   1.00
H991   H     0.92178   0.16667   0.92541   0.00000  Uiso   1.00
H992   H     0.96498   0.13611   0.95094   0.00000  Uiso   1.00
H993   H     0.96498   0.19723   0.95094   0.00000  Uiso   1.00
H994   H     0.93032   0.19701   0.73780   0.00000  Uiso   1.00
H995   H     0.96884   0.16667   0.70454   0.00000  Uiso   1.00
H996   H     0.93032   0.13632   0.73780   0.00000  Uiso   1.00
N997   N     0.83333   0.28573   0.83333   0.00000  Uiso   1.00
N998   N     0.83333   0.04760   0.83333   0.00000  Uiso   1.00
O999   O     0.77226   0.20487   0.83333   0.00000  Uiso   1.00
O1000  O     0.89441   0.12846   0.83334   0.00000  Uiso   1.00
O1001  O     0.89441   0.20487   0.83334   0.00000  Uiso   1.00
O1002  O     0.77226   0.12846   0.83333   0.00000  Uiso   1.00
O1003  O     0.83334   0.20488   0.76178   0.00000  Uiso   1.00
O1004  O     0.83333   0.12845   0.90489   0.00000  Uiso   1.00
O1005  O     0.83333   0.20488   0.90489   0.00000  Uiso   1.00
O1006  O     0.83334   0.12845   0.76178   0.00000  Uiso   1.00
Zn1007 Zn    0.83333   0.21771   0.83333   0.00000  Uiso   1.00
Zn1008 Zn    0.83333   0.11563   0.83333   0.00000  Uiso   1.00
C1009  C     0.08694   0.50000   0.83317   0.00000  Uiso   1.00
C1010  C     0.02296   0.50000   0.87952   0.00000  Uiso   1.00
C1011  C     0.29062   0.50000   0.83368   0.00000  Uiso   1.00
C1012  C     0.04272   0.50000   0.83299   0.00000  Uiso   1.00
C1013  C     0.19309   0.35724   0.86469   0.00000  Uiso   1.00
C1014  C     0.14025   0.64276   0.80197   0.00000  Uiso   1.00
C1015  C     0.14025   0.35724   0.80197   0.00000  Uiso   1.00
C1016  C     0.19309   0.64276   0.86469   0.00000  Uiso   1.00
C1017  C     0.04363   0.50000   0.73737   0.00000  Uiso   1.00
C1018  C     0.28970   0.50000   0.92929   0.00000  Uiso   1.00
C1019  C     0.28388   0.50000   0.73907   0.00000  Uiso   1.00
C1020  C     0.24639   0.50000   0.83350   0.00000  Uiso   1.00
C1021  C     0.04945   0.50000   0.92759   0.00000  Uiso   1.00
C1022  C     0.16685   0.50000   0.73963   0.00000  Uiso   1.00
C1023  C     0.16649   0.50000   0.92704   0.00000  Uiso   1.00
C1024  C     0.16673   0.50000   0.68847   0.00000  Uiso   1.00
C1025  C     0.16660   0.50000   0.97819   0.00000  Uiso   1.00
C1026  C     0.02081   0.50000   0.78671   0.00000  Uiso   1.00
C1027  C     0.31253   0.50000   0.87996   0.00000  Uiso   1.00
C1028  C     0.31038   0.50000   0.78715   0.00000  Uiso   1.00
Cl1029 Cl    0.22753   0.38623   0.90559   0.00000  Uiso   1.00
Cl1030 Cl    0.10580   0.61377   0.76108   0.00000  Uiso   1.00
Cl1031 Cl    0.10580   0.38623   0.76108   0.00000  Uiso   1.00
Cl1032 Cl    0.22753   0.61377   0.90559   0.00000  Uiso   1.00
H1033  H     0.07822   0.50000   0.74126   0.00000  Uiso   1.00
H1034  H     0.06968   0.46965   0.92887   0.00000  Uiso   1.00
H1035  H     0.06968   0.53035   0.92887   0.00000  Uiso   1.00
H1036  H     0.03116   0.50000   0.96212   0.00000  Uiso   1.00
H1037  H     0.03502   0.46944   0.71572   0.00000  Uiso   1.00
H1038  H     0.03502   0.53056   0.71572   0.00000  Uiso   1.00
H1039  H     0.25511   0.50000   0.92541   0.00000  Uiso   1.00
H1040  H     0.29831   0.46944   0.95094   0.00000  Uiso   1.00
H1041  H     0.29831   0.53056   0.95094   0.00000  Uiso   1.00
H1042  H     0.26366   0.53035   0.73780   0.00000  Uiso   1.00
H1043  H     0.30218   0.50000   0.70454   0.00000  Uiso   1.00
H1044  H     0.26365   0.46965   0.73780   0.00000  Uiso   1.00
N1045  N     0.16667   0.61907   0.83333   0.00000  Uiso   1.00
N1046  N     0.16667   0.38093   0.83333   0.00000  Uiso   1.00
O1047  O     0.10559   0.53821   0.83333   0.00000  Uiso   1.00
O1048  O     0.22774   0.46179   0.83334   0.00000  Uiso   1.00
O1049  O     0.22774   0.53821   0.83334   0.00000  Uiso   1.00
O1050  O     0.10559   0.46179   0.83333   0.00000  Uiso   1.00
O1051  O     0.16667   0.53821   0.76178   0.00000  Uiso   1.00
O1052  O     0.16666   0.46179   0.90489   0.00000  Uiso   1.00
O1053  O     0.16666   0.53821   0.90489   0.00000  Uiso   1.00
O1054  O     0.16667   0.46179   0.76178   0.00000  Uiso   1.00
Zn1055 Zn    0.16667   0.55104   0.83333   0.00000  Uiso   1.00
Zn1056 Zn    0.16667   0.44896   0.83333   0.00000  Uiso   1.00
C1057  C     0.42028   0.50000   0.83317   0.00000  Uiso   1.00
C1058  C     0.35629   0.50000   0.87952   0.00000  Uiso   1.00
C1059  C     0.62395   0.50000   0.83368   0.00000  Uiso   1.00
C1060  C     0.37605   0.50000   0.83299   0.00000  Uiso   1.00
C1061  C     0.52642   0.35724   0.86469   0.00000  Uiso   1.00
C1062  C     0.47358   0.64276   0.80197   0.00000  Uiso   1.00
C1063  C     0.47358   0.35724   0.80197   0.00000  Uiso   1.00
C1064  C     0.52642   0.64276   0.86469   0.00000  Uiso   1.00
C1065  C     0.37696   0.50000   0.73737   0.00000  Uiso   1.00
C1066  C     0.62304   0.50000   0.92929   0.00000  Uiso   1.00
C1067  C     0.61721   0.50000   0.73907   0.00000  Uiso   1.00
C1068  C     0.57972   0.50000   0.83350   0.00000  Uiso   1.00
C1069  C     0.38279   0.50000   0.92759   0.00000  Uiso   1.00
C1070  C     0.50018   0.50000   0.73963   0.00000  Uiso   1.00
C1071  C     0.49982   0.50000   0.92704   0.00000  Uiso   1.00
C1072  C     0.50007   0.50000   0.68847   0.00000  Uiso   1.00
C1073  C     0.49993   0.50000   0.97819   0.00000  Uiso   1.00
C1074  C     0.35414   0.50000   0.78671   0.00000  Uiso   1.00
C1075  C     0.64586   0.50000   0.87996   0.00000  Uiso   1.00
C1076  C     0.64371   0.50000   0.78715   0.00000  Uiso   1.00
Cl1077 Cl    0.56086   0.38623   0.90559   0.00000  Uiso   1.00
Cl1078 Cl    0.43913   0.61377   0.76108   0.00000  Uiso   1.00
Cl1079 Cl    0.43913   0.38623   0.76108   0.00000  Uiso   1.00
Cl1080 Cl    0.56086   0.61377   0.90559   0.00000  Uiso   1.00
H1081  H     0.41156   0.50000   0.74126   0.00000  Uiso   1.00
H1082  H     0.40301   0.46965   0.92887   0.00000  Uiso   1.00
H1083  H     0.40301   0.53035   0.92887   0.00000  Uiso   1.00
H1084  H     0.36449   0.50000   0.96212   0.00000  Uiso   1.00
H1085  H     0.36836   0.46944   0.71572   0.00000  Uiso   1.00
H1086  H     0.36836   0.53056   0.71572   0.00000  Uiso   1.00
H1087  H     0.58844   0.50000   0.92541   0.00000  Uiso   1.00
H1088  H     0.63164   0.46944   0.95094   0.00000  Uiso   1.00
H1089  H     0.63164   0.53056   0.95094   0.00000  Uiso   1.00
H1090  H     0.59699   0.53035   0.73780   0.00000  Uiso   1.00
H1091  H     0.63551   0.50000   0.70454   0.00000  Uiso   1.00
H1092  H     0.59699   0.46965   0.73780   0.00000  Uiso   1.00
N1093  N     0.50000   0.61907   0.83333   0.00000  Uiso   1.00
N1094  N     0.50000   0.38093   0.83333   0.00000  Uiso   1.00
O1095  O     0.43892   0.53821   0.83333   0.00000  Uiso   1.00
O1096  O     0.56108   0.46179   0.83334   0.00000  Uiso   1.00
O1097  O     0.56108   0.53821   0.83334   0.00000  Uiso   1.00
O1098  O     0.43892   0.46179   0.83333   0.00000  Uiso   1.00
O1099  O     0.50000   0.53821   0.76178   0.00000  Uiso   1.00
O1100  O     0.50000   0.46179   0.90489   0.00000  Uiso   1.00
O1101  O     0.50000   0.53821   0.90489   0.00000  Uiso   1.00
O1102  O     0.50000   0.46179   0.76178   0.00000  Uiso   1.00
Zn1103 Zn    0.50000   0.55104   0.83333   0.00000  Uiso   1.00
Zn1104 Zn    0.50000   0.44896   0.83333   0.00000  Uiso   1.00
C1105  C     0.75361   0.50000   0.83317   0.00000  Uiso   1.00
C1106  C     0.68962   0.50000   0.87952   0.00000  Uiso   1.00
C1107  C     0.95728   0.50000   0.83368   0.00000  Uiso   1.00
C1108  C     0.70938   0.50000   0.83299   0.00000  Uiso   1.00
C1109  C     0.85975   0.35724   0.86469   0.00000  Uiso   1.00
C1110  C     0.80691   0.64276   0.80197   0.00000  Uiso   1.00
C1111  C     0.80691   0.35724   0.80197   0.00000  Uiso   1.00
C1112  C     0.85975   0.64276   0.86469   0.00000  Uiso   1.00
C1113  C     0.71030   0.50000   0.73737   0.00000  Uiso   1.00
C1114  C     0.95637   0.50000   0.92929   0.00000  Uiso   1.00
C1115  C     0.95055   0.50000   0.73907   0.00000  Uiso   1.00
C1116  C     0.91306   0.50000   0.83350   0.00000  Uiso   1.00
C1117  C     0.71612   0.50000   0.92759   0.00000  Uiso   1.00
C1118  C     0.83351   0.50000   0.73963   0.00000  Uiso   1.00
C1119  C     0.83315   0.50000   0.92704   0.00000  Uiso   1.00
C1120  C     0.83340   0.50000   0.68847   0.00000  Uiso   1.00
C1121  C     0.83327   0.50000   0.97819   0.00000  Uiso   1.00
C1122  C     0.68747   0.50000   0.78671   0.00000  Uiso   1.00
C1123  C     0.97919   0.50000   0.87996   0.00000  Uiso   1.00
C1124  C     0.97704   0.50000   0.78715   0.00000  Uiso   1.00
Cl1125 Cl    0.89420   0.38623   0.90559   0.00000  Uiso   1.00
Cl1126 Cl    0.77247   0.61377   0.76108   0.00000  Uiso   1.00
Cl1127 Cl    0.77247   0.38623   0.76108   0.00000  Uiso   1.00
Cl1128 Cl    0.89420   0.61377   0.90559   0.00000  Uiso   1.00
H1129  H     0.74489   0.50000   0.74126   0.00000  Uiso   1.00
H1130  H     0.73634   0.46965   0.92887   0.00000  Uiso   1.00
H1131  H     0.73634   0.53035   0.92887   0.00000  Uiso   1.00
H1132  H     0.69782   0.50000   0.96212   0.00000  Uiso   1.00
H1133  H     0.70169   0.46944   0.71572   0.00000  Uiso   1.00
H1134  H     0.70169   0.53056   0.71572   0.00000  Uiso   1.00
H1135  H     0.92178   0.50000   0.92541   0.00000  Uiso   1.00
H1136  H     0.96498   0.46944   0.95094   0.00000  Uiso   1.00
H1137  H     0.96498   0.53056   0.95094   0.00000  Uiso   1.00
H1138  H     0.93032   0.53035   0.73780   0.00000  Uiso   1.00
H1139  H     0.96884   0.50000   0.70454   0.00000  Uiso   1.00
H1140  H     0.93032   0.46965   0.73780   0.00000  Uiso   1.00
N1141  N     0.83333   0.61907   0.83333   0.00000  Uiso   1.00
N1142  N     0.83333   0.38093   0.83333   0.00000  Uiso   1.00
O1143  O     0.77226   0.53821   0.83333   0.00000  Uiso   1.00
O1144  O     0.89441   0.46179   0.83334   0.00000  Uiso   1.00
O1145  O     0.89441   0.53821   0.83334   0.00000  Uiso   1.00
O1146  O     0.77226   0.46179   0.83333   0.00000  Uiso   1.00
O1147  O     0.83334   0.53821   0.76178   0.00000  Uiso   1.00
O1148  O     0.83333   0.46179   0.90489   0.00000  Uiso   1.00
O1149  O     0.83333   0.53821   0.90489   0.00000  Uiso   1.00
O1150  O     0.83334   0.46179   0.76178   0.00000  Uiso   1.00
Zn1151 Zn    0.83333   0.55104   0.83333   0.00000  Uiso   1.00
Zn1152 Zn    0.83333   0.44896   0.83333   0.00000  Uiso   1.00
C1153  C     0.08694   0.83333   0.83317   0.00000  Uiso   1.00
C1154  C     0.02296   0.83333   0.87952   0.00000  Uiso   1.00
C1155  C     0.29062   0.83333   0.83368   0.00000  Uiso   1.00
C1156  C     0.04272   0.83333   0.83299   0.00000  Uiso   1.00
C1157  C     0.19309   0.69058   0.86469   0.00000  Uiso   1.00
C1158  C     0.14025   0.97609   0.80197   0.00000  Uiso   1.00
C1159  C     0.14025   0.69058   0.80197   0.00000  Uiso   1.00
C1160  C     0.19309   0.97609   0.86469   0.00000  Uiso   1.00
C1161  C     0.04363   0.83333   0.73737   0.00000  Uiso   1.00
C1162  C     0.28970   0.83333   0.92929   0.00000  Uiso   1.00
C1163  C     0.28388   0.83333   0.73907   0.00000  Uiso   1.00
C1164  C     0.24639   0.83333   0.83350   0.00000  Uiso   1.00
C1165  C     0.04945   0.83333   0.92759   0.00000  Uiso   1.00
C1166  C     0.16685   0.83333   0.73963   0.00000  Uiso   1.00
C1167  C     0.16649   0.83333   0.92704   0.00000  Uiso   1.00
C1168  C     0.16673   0.83333   0.68847   0.00000  Uiso   1.00
C1169  C     0.16660   0.83333   0.97819   0.00000  Uiso   1.00
C1170  C     0.02081   0.83333   0.78671   0.00000  Uiso   1.00
C1171  C     0.31253   0.83333   0.87996   0.00000  Uiso   1.00
C1172  C     0.31038   0.83333   0.78715   0.00000  Uiso   1.00
Cl1173 Cl    0.22753   0.71957   0.90559   0.00000  Uiso   1.00
Cl1174 Cl    0.10580   0.94710   0.76108   0.00000  Uiso   1.00
Cl1175 Cl    0.10580   0.71957   0.76108   0.00000  Uiso   1.00
Cl1176 Cl    0.22753   0.94710   0.90559   0.00000  Uiso   1.00
H1177  H     0.07822   0.83333   0.74126   0.00000  Uiso   1.00
H1178  H     0.06968   0.80299   0.92887   0.00000  Uiso   1.00
H1179  H     0.06968   0.86368   0.92887   0.00000  Uiso   1.00
H1180  H     0.03116   0.83333   0.96212   0.00000  Uiso   1.00
H1181  H     0.03502   0.80277   0.71572   0.00000  Uiso   1.00
H1182  H     0.03502   0.86389   0.71572   0.00000  Uiso   1.00
H1183  H     0.25511   0.83333   0.92541   0.00000  Uiso   1.00
H1184  H     0.29831   0.80277   0.95094   0.00000  Uiso   1.00
H1185  H     0.29831   0.86389   0.95094   0.00000  Uiso   1.00
H1186  H     0.26366   0.86368   0.73780   0.00000  Uiso   1.00
H1187  H     0.30218   0.83333   0.70454   0.00000  Uiso   1.00
H1188  H     0.26365   0.80299   0.73780   0.00000  Uiso   1.00
N1189  N     0.16667   0.95240   0.83333   0.00000  Uiso   1.00
N1190  N     0.16667   0.71427   0.83333   0.00000  Uiso   1.00
O1191  O     0.10559   0.87154   0.83333   0.00000  Uiso   1.00
O1192  O     0.22774   0.79513   0.83334   0.00000  Uiso   1.00
O1193  O     0.22774   0.87154   0.83334   0.00000  Uiso   1.00
O1194  O     0.10559   0.79513   0.83333   0.00000  Uiso   1.00
O1195  O     0.16667   0.87155   0.76178   0.00000  Uiso   1.00
O1196  O     0.16666   0.79512   0.90489   0.00000  Uiso   1.00
O1197  O     0.16666   0.87155   0.90489   0.00000  Uiso   1.00
O1198  O     0.16667   0.79512   0.76178   0.00000  Uiso   1.00
Zn1199 Zn    0.16667   0.88437   0.83333   0.00000  Uiso   1.00
Zn1200 Zn    0.16667   0.78229   0.83333   0.00000  Uiso   1.00
C1201  C     0.42028   0.83333   0.83317   0.00000  Uiso   1.00
C1202  C     0.35629   0.83333   0.87952   0.00000  Uiso   1.00
C1203  C     0.62395   0.83333   0.83368   0.00000  Uiso   1.00
C1204  C     0.37605   0.83333   0.83299   0.00000  Uiso   1.00
C1205  C     0.52642   0.69058   0.86469   0.00000  Uiso   1.00
C1206  C     0.47358   0.97609   0.80197   0.00000  Uiso   1.00
C1207  C     0.47358   0.69058   0.80197   0.00000  Uiso   1.00
C1208  C     0.52642   0.97609   0.86469   0.00000  Uiso   1.00
C1209  C     0.37696   0.83333   0.73737   0.00000  Uiso   1.00
C1210  C     0.62304   0.83333   0.92929   0.00000  Uiso   1.00
C1211  C     0.61721   0.83333   0.73907   0.00000  Uiso   1.00
C1212  C     0.57972   0.83333   0.83350   0.00000  Uiso   1.00
C1213  C     0.38279   0.83333   0.92759   0.00000  Uiso   1.00
C1214  C     0.50018   0.83333   0.73963   0.00000  Uiso   1.00
C1215  C     0.49982   0.83333   0.92704   0.00000  Uiso   1.00
C1216  C     0.50007   0.83333   0.68847   0.00000  Uiso   1.00
C1217  C     0.49993   0.83333   0.97819   0.00000  Uiso   1.00
C1218  C     0.35414   0.83333   0.78671   0.00000  Uiso   1.00
C1219  C     0.64586   0.83333   0.87996   0.00000  Uiso   1.00
C1220  C     0.64371   0.83333   0.78715   0.00000  Uiso   1.00
Cl1221 Cl    0.56086   0.71957   0.90559   0.00000  Uiso   1.00
Cl1222 Cl    0.43913   0.94710   0.76108   0.00000  Uiso   1.00
Cl1223 Cl    0.43913   0.71957   0.76108   0.00000  Uiso   1.00
Cl1224 Cl    0.56086   0.94710   0.90559   0.00000  Uiso   1.00
H1225  H     0.41156   0.83333   0.74126   0.00000  Uiso   1.00
H1226  H     0.40301   0.80299   0.92887   0.00000  Uiso   1.00
H1227  H     0.40301   0.86368   0.92887   0.00000  Uiso   1.00
H1228  H     0.36449   0.83333   0.96212   0.00000  Uiso   1.00
H1229  H     0.36836   0.80277   0.71572   0.00000  Uiso   1.00
H1230  H     0.36836   0.86389   0.71572   0.00000  Uiso   1.00
H1231  H     0.58844   0.83333   0.92541   0.00000  Uiso   1.00
H1232  H     0.63164   0.80277   0.95094   0.00000  Uiso   1.00
H1233  H     0.63164   0.86389   0.95094   0.00000  Uiso   1.00
H1234  H     0.59699   0.86368   0.73780   0.00000  Uiso   1.00
H1235  H     0.63551   0.83333   0.70454   0.00000  Uiso   1.00
H1236  H     0.59699   0.80299   0.73780   0.00000  Uiso   1.00
N1237  N     0.50000   0.95240   0.83333   0.00000  Uiso   1.00
N1238  N     0.50000   0.71427   0.83333   0.00000  Uiso   1.00
O1239  O     0.43892   0.87154   0.83333   0.00000  Uiso   1.00
O1240  O     0.56108   0.79513   0.83334   0.00000  Uiso   1.00
O1241  O     0.56108   0.87154   0.83334   0.00000  Uiso   1.00
O1242  O     0.43892   0.79513   0.83333   0.00000  Uiso   1.00
O1243  O     0.50000   0.87155   0.76178   0.00000  Uiso   1.00
O1244  O     0.50000   0.79512   0.90489   0.00000  Uiso   1.00
O1245  O     0.50000   0.87155   0.90489   0.00000  Uiso   1.00
O1246  O     0.50000   0.79512   0.76178   0.00000  Uiso   1.00
Zn1247 Zn    0.50000   0.88437   0.83333   0.00000  Uiso   1.00
Zn1248 Zn    0.50000   0.78229   0.83333   0.00000  Uiso   1.00
C1249  C     0.75361   0.83333   0.83317   0.00000  Uiso   1.00
C1250  C     0.68962   0.83333   0.87952   0.00000  Uiso   1.00
C1251  C     0.95728   0.83333   0.83368   0.00000  Uiso   1.00
C1252  C     0.70938   0.83333   0.83299   0.00000  Uiso   1.00
C1253  C     0.85975   0.69058   0.86469   0.00000  Uiso   1.00
C1254  C     0.80691   0.97609   0.80197   0.00000  Uiso   1.00
C1255  C     0.80691   0.69058   0.80197   0.00000  Uiso   1.00
C1256  C     0.85975   0.97609   0.86469   0.00000  Uiso   1.00
C1257  C     0.71030   0.83333   0.73737   0.00000  Uiso   1.00
C1258  C     0.95637   0.83333   0.92929   0.00000  Uiso   1.00
C1259  C     0.95055   0.83333   0.73907   0.00000  Uiso   1.00
C1260  C     0.91306   0.83333   0.83350   0.00000  Uiso   1.00
C1261  C     0.71612   0.83333   0.92759   0.00000  Uiso   1.00
C1262  C     0.83351   0.83333   0.73963   0.00000  Uiso   1.00
C1263  C     0.83315   0.83333   0.92704   0.00000  Uiso   1.00
C1264  C     0.83340   0.83333   0.68847   0.00000  Uiso   1.00
C1265  C     0.83327   0.83333   0.97819   0.00000  Uiso   1.00
C1266  C     0.68747   0.83333   0.78671   0.00000  Uiso   1.00
C1267  C     0.97919   0.83333   0.87996   0.00000  Uiso   1.00
C1268  C     0.97704   0.83333   0.78715   0.00000  Uiso   1.00
Cl1269 Cl    0.89420   0.71957   0.90559   0.00000  Uiso   1.00
Cl1270 Cl    0.77247   0.94710   0.76108   0.00000  Uiso   1.00
Cl1271 Cl    0.77247   0.71957   0.76108   0.00000  Uiso   1.00
Cl1272 Cl    0.89420   0.94710   0.90559   0.00000  Uiso   1.00
H1273  H     0.74489   0.83333   0.74126   0.00000  Uiso   1.00
H1274  H     0.73634   0.80299   0.92887   0.00000  Uiso   1.00
H1275  H     0.73634   0.86368   0.92887   0.00000  Uiso   1.00
H1276  H     0.69782   0.83333   0.96212   0.00000  Uiso   1.00
H1277  H     0.70169   0.80277   0.71572   0.00000  Uiso   1.00
H1278  H     0.70169   0.86389   0.71572   0.00000  Uiso   1.00
H1279  H     0.92178   0.83333   0.92541   0.00000  Uiso   1.00
H1280  H     0.96498   0.80277   0.95094   0.00000  Uiso   1.00
H1281  H     0.96498   0.86389   0.95094   0.00000  Uiso   1.00
H1282  H     0.93032   0.86368   0.73780   0.00000  Uiso   1.00
H1283  H     0.96884   0.83333   0.70454   0.00000  Uiso   1.00
H1284  H     0.93032   0.80299   0.73780   0.00000  Uiso   1.00
N1285  N     0.83333   0.95240   0.83333   0.00000  Uiso   1.00
N1286  N     0.83333   0.71427   0.83333   0.00000  Uiso   1.00
O1287  O     0.77226   0.87154   0.83333   0.00000  Uiso   1.00
O1288  O     0.89441   0.79513   0.83334   0.00000  Uiso   1.00
O1289  O     0.89441   0.87154   0.83334   0.00000  Uiso   1.00
O1290  O     0.77226   0.79513   0.83333   0.00000  Uiso   1.00
O1291  O     0.83334   0.87155   0.76178   0.00000  Uiso   1.00
O1292  O     0.83333   0.79512   0.90489   0.00000  Uiso   1.00
O1293  O     0.83333   0.87155   0.90489   0.00000  Uiso   1.00
O1294  O     0.83334   0.79512   0.76178   0.00000  Uiso   1.00
Zn1295 Zn    0.83333   0.88437   0.83333   0.00000  Uiso   1.00
Zn1296 Zn    0.83333   0.78229   0.83333   0.00000  Uiso   1.00
loop_
_geom_bond_atom_site_label_1
_geom_bond_atom_site_label_2
_geom_bond_distance
_geom_bond_site_symmetry_2
_ccdc_geom_bond_type
C1     O42     1.284   .     A
C1     C4      1.409   .     S
C1     O39     1.284   .     A
C2     C4      1.407   .     A
C2     C13     1.523   .     S
C2     C115    1.395   1_455 S
C3     C19     1.408   .     A
C3     C20     1.407   .     A
C3     C12     1.409   .     S
C4     C18     1.408   .     A
C5     N38     1.371   .     A
C5     Cl21    1.760   .     S
C5     C296    1.425   1_545 S
C6     N37     1.371   .     A
C6     Cl22    1.760   .     S
C6     C151    1.425   .     S
C7     Cl23    1.760   .     S
C7     N38     1.371   .     A
C7     C294    1.425   1_545 S
C8     Cl24    1.760   .     S
C8     N37     1.371   .     A
C8     C149    1.425   .     S
C9     H29     1.110   .     S
C9     H25     1.105   .     S
C9     H30     1.110   .     S
C9     C18     1.520   .     S
C10    C19     1.520   .     S
C10    H33     1.110   .     S
C10    H32     1.110   .     S
C10    H31     1.105   .     S
C11    H35     1.103   .     S
C11    H36     1.110   .     S
C11    C20     1.523   .     S
C11    H34     1.110   .     S
C12    O40     1.284   .     A
C12    O41     1.284   .     A
C13    H28     1.103   .     S
C13    H26     1.110   .     S
C13    H27     1.110   .     S
C14    O43     1.283   .     A
C14    O46     1.283   .     A
C14    C16     1.368   .     S
C15    O44     1.283   .     A
C15    C17     1.368   .     S
C15    O45     1.283   .     A
C16    C881    1.167   1_554 S
C17    C448    1.167   .     S
C18    C116    1.395   1_455 S
C19    C50     1.395   .     S
C20    C66     1.395   .     S
N37    Zn47    2.027   .     S
N38    Zn48    2.027   .     S
O39    Zn47    1.983   .     S
O40    Zn48    1.983   .     S
O41    Zn47    1.983   .     S
O42    Zn48    1.983   .     S
O43    Zn47    1.952   .     S
O44    Zn48    1.952   .     S
O45    Zn47    1.952   .     S
O46    Zn48    1.952   .     S
C49    O90     1.284   .     A
C49    C52     1.409   .     S
C49    O87     1.284   .     A
C50    C52     1.407   .     A
C50    C61     1.523   .     S
C51    C67     1.408   .     A
C51    C68     1.407   .     A
C51    C60     1.409   .     S
C52    C66     1.408   .     A
C53    N86     1.371   .     A
C53    Cl69    1.760   .     S
C53    C344    1.425   1_545 S
C54    N85     1.371   .     A
C54    Cl70    1.760   .     S
C54    C199    1.425   .     S
C55    Cl71    1.760   .     S
C55    N86     1.371   .     A
C55    C342    1.425   1_545 S
C56    Cl72    1.760   .     S
C56    N85     1.371   .     A
C56    C197    1.425   .     S
C57    H77     1.110   .     S
C57    H73     1.105   .     S
C57    H78     1.110   .     S
C57    C66     1.520   .     S
C58    C67     1.520   .     S
C58    H81     1.110   .     S
C58    H80     1.110   .     S
C58    H79     1.105   .     S
C59    H83     1.103   .     S
C59    H84     1.110   .     S
C59    C68     1.523   .     S
C59    H82     1.110   .     S
C60    O88     1.284   .     A
C60    O89     1.284   .     A
C61    H76     1.103   .     S
C61    H74     1.110   .     S
C61    H75     1.110   .     S
C62    O91     1.283   .     A
C62    O94     1.283   .     A
C62    C64     1.368   .     S
C63    O92     1.283   .     A
C63    C65     1.368   .     S
C63    O93     1.283   .     A
C64    C929    1.167   1_554 S
C65    C496    1.167   .     S
C67    C98     1.395   .     S
C68    C114    1.395   .     S
N85    Zn95    2.027   .     S
N86    Zn96    2.027   .     S
O87    Zn95    1.983   .     S
O88    Zn96    1.983   .     S
O89    Zn95    1.983   .     S
O90    Zn96    1.983   .     S
O91    Zn95    1.952   .     S
O92    Zn96    1.952   .     S
O93    Zn95    1.952   .     S
O94    Zn96    1.952   .     S
C97    O138    1.284   .     A
C97    C100    1.409   .     S
C97    O135    1.284   .     A
C98    C100    1.407   .     A
C98    C109    1.523   .     S
C99    C115    1.408   .     A
C99    C116    1.407   .     A
C99    C108    1.409   .     S
C100   C114    1.408   .     A
C101   N134    1.371   .     A
C101   Cl117   1.760   .     S
C101   C392    1.425   1_545 S
C102   N133    1.371   .     A
C102   Cl118   1.760   .     S
C102   C247    1.425   .     S
C103   Cl119   1.760   .     S
C103   N134    1.371   .     A
C103   C390    1.425   1_545 S
C104   Cl120   1.760   .     S
C104   N133    1.371   .     A
C104   C245    1.425   .     S
C105   H125    1.110   .     S
C105   H121    1.105   .     S
C105   H126    1.110   .     S
C105   C114    1.520   .     S
C106   C115    1.520   .     S
C106   H129    1.110   .     S
C106   H128    1.110   .     S
C106   H127    1.105   .     S
C107   H131    1.103   .     S
C107   H132    1.110   .     S
C107   C116    1.523   .     S
C107   H130    1.110   .     S
C108   O136    1.284   .     A
C108   O137    1.284   .     A
C109   H124    1.103   .     S
C109   H122    1.110   .     S
C109   H123    1.110   .     S
C110   O139    1.283   .     A
C110   O142    1.283   .     A
C110   C112    1.368   .     S
C111   O140    1.283   .     A
C111   C113    1.368   .     S
C111   O141    1.283   .     A
C112   C977    1.167   1_554 S
C113   C544    1.167   .     S
C115   C2      1.395   1_655 S
C116   C18     1.395   1_655 S
N133   Zn143   2.027   .     S
N134   Zn144   2.027   .     S
O135   Zn143   1.983   .     S
O136   Zn144   1.983   .     S
O137   Zn143   1.983   .     S
O138   Zn144   1.983   .     S
O139   Zn143   1.952   .     S
O140   Zn144   1.952   .     S
O141   Zn143   1.952   .     S
O142   Zn144   1.952   .     S
C145   O186    1.284   .     A
C145   C148    1.409   .     S
C145   O183    1.284   .     A
C146   C148    1.407   .     A
C146   C157    1.523   .     S
C146   C259    1.395   1_455 S
C147   C163    1.408   .     A
C147   C164    1.407   .     A
C147   C156    1.409   .     S
C148   C162    1.408   .     A
C149   N182    1.371   .     A
C149   Cl165   1.760   .     S
C150   N181    1.371   .     A
C150   Cl166   1.760   .     S
C150   C295    1.425   .     S
C151   Cl167   1.760   .     S
C151   N182    1.371   .     A
C152   Cl168   1.760   .     S
C152   N181    1.371   .     A
C152   C293    1.425   .     S
C153   H173    1.110   .     S
C153   H169    1.105   .     S
C153   H174    1.110   .     S
C153   C162    1.520   .     S
C154   C163    1.520   .     S
C154   H177    1.110   .     S
C154   H176    1.110   .     S
C154   H175    1.105   .     S
C155   H179    1.103   .     S
C155   H180    1.110   .     S
C155   C164    1.523   .     S
C155   H178    1.110   .     S
C156   O184    1.284   .     A
C156   O185    1.284   .     A
C157   H172    1.103   .     S
C157   H170    1.110   .     S
C157   H171    1.110   .     S
C158   O187    1.283   .     A
C158   O190    1.283   .     A
C158   C160    1.368   .     S
C159   O188    1.283   .     A
C159   C161    1.368   .     S
C159   O189    1.283   .     A
C160   C1025   1.167   1_554 S
C161   C592    1.167   .     S
C162   C260    1.395   1_455 S
C163   C194    1.395   .     S
C164   C210    1.395   .     S
N181   Zn191   2.027   .     S
N182   Zn192   2.027   .     S
O183   Zn191   1.983   .     S
O184   Zn192   1.983   .     S
O185   Zn191   1.983   .     S
O186   Zn192   1.983   .     S
O187   Zn191   1.952   .     S
O188   Zn192   1.952   .     S
O189   Zn191   1.952   .     S
O190   Zn192   1.952   .     S
C193   O234    1.284   .     A
C193   C196    1.409   .     S
C193   O231    1.284   .     A
C194   C196    1.407   .     A
C194   C205    1.523   .     S
C195   C211    1.408   .     A
C195   C212    1.407   .     A
C195   C204    1.409   .     S
C196   C210    1.408   .     A
C197   N230    1.371   .     A
C197   Cl213   1.760   .     S
C198   N229    1.371   .     A
C198   Cl214   1.760   .     S
C198   C343    1.425   .     S
C199   Cl215   1.760   .     S
C199   N230    1.371   .     A
C200   Cl216   1.760   .     S
C200   N229    1.371   .     A
C200   C341    1.425   .     S
C201   H221    1.110   .     S
C201   H217    1.105   .     S
C201   H222    1.110   .     S
C201   C210    1.520   .     S
C202   C211    1.520   .     S
C202   H225    1.110   .     S
C202   H224    1.110   .     S
C202   H223    1.105   .     S
C203   H227    1.103   .     S
C203   H228    1.110   .     S
C203   C212    1.523   .     S
C203   H226    1.110   .     S
C204   O232    1.284   .     A
C204   O233    1.284   .     A
C205   H220    1.103   .     S
C205   H218    1.110   .     S
C205   H219    1.110   .     S
C206   O235    1.283   .     A
C206   O238    1.283   .     A
C206   C208    1.368   .     S
C207   O236    1.283   .     A
C207   C209    1.368   .     S
C207   O237    1.283   .     A
C208   C1073   1.167   1_554 S
C209   C640    1.167   .     S
C211   C242    1.395   .     S
C212   C258    1.395   .     S
N229   Zn239   2.027   .     S
N230   Zn240   2.027   .     S
O231   Zn239   1.983   .     S
O232   Zn240   1.983   .     S
O233   Zn239   1.983   .     S
O234   Zn240   1.983   .     S
O235   Zn239   1.952   .     S
O236   Zn240   1.952   .     S
O237   Zn239   1.952   .     S
O238   Zn240   1.952   .     S
C241   O282    1.284   .     A
C241   C244    1.409   .     S
C241   O279    1.284   .     A
C242   C244    1.407   .     A
C242   C253    1.523   .     S
C243   C259    1.408   .     A
C243   C260    1.407   .     A
C243   C252    1.409   .     S
C244   C258    1.408   .     A
C245   N278    1.371   .     A
C245   Cl261   1.760   .     S
C246   N277    1.371   .     A
C246   Cl262   1.760   .     S
C246   C391    1.425   .     S
C247   Cl263   1.760   .     S
C247   N278    1.371   .     A
C248   Cl264   1.760   .     S
C248   N277    1.371   .     A
C248   C389    1.425   .     S
C249   H269    1.110   .     S
C249   H265    1.105   .     S
C249   H270    1.110   .     S
C249   C258    1.520   .     S
C250   C259    1.520   .     S
C250   H273    1.110   .     S
C250   H272    1.110   .     S
C250   H271    1.105   .     S
C251   H275    1.103   .     S
C251   H276    1.110   .     S
C251   C260    1.523   .     S
C251   H274    1.110   .     S
C252   O280    1.284   .     A
C252   O281    1.284   .     A
C253   H268    1.103   .     S
C253   H266    1.110   .     S
C253   H267    1.110   .     S
C254   O283    1.283   .     A
C254   O286    1.283   .     A
C254   C256    1.368   .     S
C255   O284    1.283   .     A
C255   C257    1.368   .     S
C255   O285    1.283   .     A
C256   C1121   1.167   1_554 S
C257   C688    1.167   .     S
C259   C146    1.395   1_655 S
C260   C162    1.395   1_655 S
N277   Zn287   2.027   .     S
N278   Zn288   2.027   .     S
O279   Zn287   1.983   .     S
O280   Zn288   1.983   .     S
O281   Zn287   1.983   .     S
O282   Zn288   1.983   .     S
O283   Zn287   1.952   .     S
O284   Zn288   1.952   .     S
O285   Zn287   1.952   .     S
O286   Zn288   1.952   .     S
C289   O330    1.284   .     A
C289   C292    1.409   .     S
C289   O327    1.284   .     A
C290   C292    1.407   .     A
C290   C301    1.523   .     S
C290   C403    1.395   1_455 S
C291   C307    1.408   .     A
C291   C308    1.407   .     A
C291   C300    1.409   .     S
C292   C306    1.408   .     A
C293   N326    1.371   .     A
C293   Cl309   1.760   .     S
C294   N325    1.371   .     A
C294   Cl310   1.760   .     S
C294   C7      1.425   1_565 S
C295   Cl311   1.760   .     S
C295   N326    1.371   .     A
C296   Cl312   1.760   .     S
C296   N325    1.371   .     A
C296   C5      1.425   1_565 S
C297   H317    1.110   .     S
C297   H313    1.105   .     S
C297   H318    1.110   .     S
C297   C306    1.520   .     S
C298   C307    1.520   .     S
C298   H321    1.110   .     S
C298   H320    1.110   .     S
C298   H319    1.105   .     S
C299   H323    1.103   .     S
C299   H324    1.110   .     S
C299   C308    1.523   .     S
C299   H322    1.110   .     S
C300   O328    1.284   .     A
C300   O329    1.284   .     A
C301   H316    1.103   .     S
C301   H314    1.110   .     S
C301   H315    1.110   .     S
C302   O331    1.283   .     A
C302   O334    1.283   .     A
C302   C304    1.368   .     S
C303   O332    1.283   .     A
C303   C305    1.368   .     S
C303   O333    1.283   .     A
C304   C1169   1.167   1_554 S
C305   C736    1.167   .     S
C306   C404    1.395   1_455 S
C307   C338    1.395   .     S
C308   C354    1.395   .     S
N325   Zn335   2.027   .     S
N326   Zn336   2.027   .     S
O327   Zn335   1.983   .     S
O328   Zn336   1.983   .     S
O329   Zn335   1.983   .     S
O330   Zn336   1.983   .     S
O331   Zn335   1.952   .     S
O332   Zn336   1.952   .     S
O333   Zn335   1.952   .     S
O334   Zn336   1.952   .     S
C337   O378    1.284   .     A
C337   C340    1.409   .     S
C337   O375    1.284   .     A
C338   C340    1.407   .     A
C338   C349    1.523   .     S
C339   C355    1.408   .     A
C339   C356    1.407   .     A
C339   C348    1.409   .     S
C340   C354    1.408   .     A
C341   N374    1.371   .     A
C341   Cl357   1.760   .     S
C342   N373    1.371   .     A
C342   Cl358   1.760   .     S
C342   C55     1.425   1_565 S
C343   Cl359   1.760   .     S
C343   N374    1.371   .     A
C344   Cl360   1.760   .     S
C344   N373    1.371   .     A
C344   C53     1.425   1_565 S
C345   H365    1.110   .     S
C345   H361    1.105   .     S
C345   H366    1.110   .     S
C345   C354    1.520   .     S
C346   C355    1.520   .     S
C346   H369    1.110   .     S
C346   H368    1.110   .     S
C346   H367    1.105   .     S
C347   H371    1.103   .     S
C347   H372    1.110   .     S
C347   C356    1.523   .     S
C347   H370    1.110   .     S
C348   O376    1.284   .     A
C348   O377    1.284   .     A
C349   H364    1.103   .     S
C349   H362    1.110   .     S
C349   H363    1.110   .     S
C350   O379    1.283   .     A
C350   O382    1.283   .     A
C350   C352    1.368   .     S
C351   O380    1.283   .     A
C351   C353    1.368   .     S
C351   O381    1.283   .     A
C352   C1217   1.167   1_554 S
C353   C784    1.167   .     S
C355   C386    1.395   .     S
C356   C402    1.395   .     S
N373   Zn383   2.027   .     S
N374   Zn384   2.027   .     S
O375   Zn383   1.983   .     S
O376   Zn384   1.983   .     S
O377   Zn383   1.983   .     S
O378   Zn384   1.983   .     S
O379   Zn383   1.952   .     S
O380   Zn384   1.952   .     S
O381   Zn383   1.952   .     S
O382   Zn384   1.952   .     S
C385   O426    1.284   .     A
C385   C388    1.409   .     S
C385   O423    1.284   .     A
C386   C388    1.407   .     A
C386   C397    1.523   .     S
C387   C403    1.408   .     A
C387   C404    1.407   .     A
C387   C396    1.409   .     S
C388   C402    1.408   .     A
C389   N422    1.371   .     A
C389   Cl405   1.760   .     S
C390   N421    1.371   .     A
C390   Cl406   1.760   .     S
C390   C103    1.425   1_565 S
C391   Cl407   1.760   .     S
C391   N422    1.371   .     A
C392   Cl408   1.760   .     S
C392   N421    1.371   .     A
C392   C101    1.425   1_565 S
C393   H413    1.110   .     S
C393   H409    1.105   .     S
C393   H414    1.110   .     S
C393   C402    1.520   .     S
C394   C403    1.520   .     S
C394   H417    1.110   .     S
C394   H416    1.110   .     S
C394   H415    1.105   .     S
C395   H419    1.103   .     S
C395   H420    1.110   .     S
C395   C404    1.523   .     S
C395   H418    1.110   .     S
C396   O424    1.284   .     A
C396   O425    1.284   .     A
C397   H412    1.103   .     S
C397   H410    1.110   .     S
C397   H411    1.110   .     S
C398   O427    1.283   .     A
C398   O430    1.283   .     A
C398   C400    1.368   .     S
C399   O428    1.283   .     A
C399   C401    1.368   .     S
C399   O429    1.283   .     A
C400   C1265   1.167   1_554 S
C401   C832    1.167   .     S
C403   C290    1.395   1_655 S
C404   C306    1.395   1_655 S
N421   Zn431   2.027   .     S
N422   Zn432   2.027   .     S
O423   Zn431   1.983   .     S
O424   Zn432   1.983   .     S
O425   Zn431   1.983   .     S
O426   Zn432   1.983   .     S
O427   Zn431   1.952   .     S
O428   Zn432   1.952   .     S
O429   Zn431   1.952   .     S
O430   Zn432   1.952   .     S
C433   O474    1.284   .     A
C433   C436    1.409   .     S
C433   O471    1.284   .     A
C434   C436    1.407   .     A
C434   C445    1.523   .     S
C434   C547    1.395   1_455 S
C435   C451    1.408   .     A
C435   C452    1.407   .     A
C435   C444    1.409   .     S
C436   C450    1.408   .     A
C437   N470    1.371   .     A
C437   Cl453   1.760   .     S
C437   C728    1.425   1_545 S
C438   N469    1.371   .     A
C438   Cl454   1.760   .     S
C438   C583    1.425   .     S
C439   Cl455   1.760   .     S
C439   N470    1.371   .     A
C439   C726    1.425   1_545 S
C440   Cl456   1.760   .     S
C440   N469    1.371   .     A
C440   C581    1.425   .     S
C441   H461    1.110   .     S
C441   H457    1.105   .     S
C441   H462    1.110   .     S
C441   C450    1.520   .     S
C442   C451    1.520   .     S
C442   H465    1.110   .     S
C442   H464    1.110   .     S
C442   H463    1.105   .     S
C443   H467    1.103   .     S
C443   H468    1.110   .     S
C443   C452    1.523   .     S
C443   H466    1.110   .     S
C444   O472    1.284   .     A
C444   O473    1.284   .     A
C445   H460    1.103   .     S
C445   H458    1.110   .     S
C445   H459    1.110   .     S
C446   O475    1.283   .     A
C446   O478    1.283   .     A
C446   C448    1.368   .     S
C447   O476    1.283   .     A
C447   C449    1.368   .     S
C447   O477    1.283   .     A
C449   C880    1.167   .     S
C450   C548    1.395   1_455 S
C451   C482    1.395   .     S
C452   C498    1.395   .     S
N469   Zn479   2.027   .     S
N470   Zn480   2.027   .     S
O471   Zn479   1.983   .     S
O472   Zn480   1.983   .     S
O473   Zn479   1.983   .     S
O474   Zn480   1.983   .     S
O475   Zn479   1.952   .     S
O476   Zn480   1.952   .     S
O477   Zn479   1.952   .     S
O478   Zn480   1.952   .     S
C481   O522    1.284   .     A
C481   C484    1.409   .     S
C481   O519    1.284   .     A
C482   C484    1.407   .     A
C482   C493    1.523   .     S
C483   C499    1.408   .     A
C483   C500    1.407   .     A
C483   C492    1.409   .     S
C484   C498    1.408   .     A
C485   N518    1.371   .     A
C485   Cl501   1.760   .     S
C485   C776    1.425   1_545 S
C486   N517    1.371   .     A
C486   Cl502   1.760   .     S
C486   C631    1.425   .     S
C487   Cl503   1.760   .     S
C487   N518    1.371   .     A
C487   C774    1.425   1_545 S
C488   Cl504   1.760   .     S
C488   N517    1.371   .     A
C488   C629    1.425   .     S
C489   H509    1.110   .     S
C489   H505    1.105   .     S
C489   H510    1.110   .     S
C489   C498    1.520   .     S
C490   C499    1.520   .     S
C490   H513    1.110   .     S
C490   H512    1.110   .     S
C490   H511    1.105   .     S
C491   H515    1.103   .     S
C491   H516    1.110   .     S
C491   C500    1.523   .     S
C491   H514    1.110   .     S
C492   O520    1.284   .     A
C492   O521    1.284   .     A
C493   H508    1.103   .     S
C493   H506    1.110   .     S
C493   H507    1.110   .     S
C494   O523    1.283   .     A
C494   O526    1.283   .     A
C494   C496    1.368   .     S
C495   O524    1.283   .     A
C495   C497    1.368   .     S
C495   O525    1.283   .     A
C497   C928    1.167   .     S
C499   C530    1.395   .     S
C500   C546    1.395   .     S
N517   Zn527   2.027   .     S
N518   Zn528   2.027   .     S
O519   Zn527   1.983   .     S
O520   Zn528   1.983   .     S
O521   Zn527   1.983   .     S
O522   Zn528   1.983   .     S
O523   Zn527   1.952   .     S
O524   Zn528   1.952   .     S
O525   Zn527   1.952   .     S
O526   Zn528   1.952   .     S
C529   O570    1.284   .     A
C529   C532    1.409   .     S
C529   O567    1.284   .     A
C530   C532    1.407   .     A
C530   C541    1.523   .     S
C531   C547    1.408   .     A
C531   C548    1.407   .     A
C531   C540    1.409   .     S
C532   C546    1.408   .     A
C533   N566    1.371   .     A
C533   Cl549   1.760   .     S
C533   C824    1.425   1_545 S
C534   N565    1.371   .     A
C534   Cl550   1.760   .     S
C534   C679    1.425   .     S
C535   Cl551   1.760   .     S
C535   N566    1.371   .     A
C535   C822    1.425   1_545 S
C536   Cl552   1.760   .     S
C536   N565    1.371   .     A
C536   C677    1.425   .     S
C537   H557    1.110   .     S
C537   H553    1.105   .     S
C537   H558    1.110   .     S
C537   C546    1.520   .     S
C538   C547    1.520   .     S
C538   H561    1.110   .     S
C538   H560    1.110   .     S
C538   H559    1.105   .     S
C539   H563    1.103   .     S
C539   H564    1.110   .     S
C539   C548    1.523   .     S
C539   H562    1.110   .     S
C540   O568    1.284   .     A
C540   O569    1.284   .     A
C541   H556    1.103   .     S
C541   H554    1.110   .     S
C541   H555    1.110   .     S
C542   O571    1.283   .     A
C542   O574    1.283   .     A
C542   C544    1.368   .     S
C543   O572    1.283   .     A
C543   C545    1.368   .     S
C543   O573    1.283   .     A
C545   C976    1.167   .     S
C547   C434    1.395   1_655 S
C548   C450    1.395   1_655 S
N565   Zn575   2.027   .     S
N566   Zn576   2.027   .     S
O567   Zn575   1.983   .     S
O568   Zn576   1.983   .     S
O569   Zn575   1.983   .     S
O570   Zn576   1.983   .     S
O571   Zn575   1.952   .     S
O572   Zn576   1.952   .     S
O573   Zn575   1.952   .     S
O574   Zn576   1.952   .     S
C577   O618    1.284   .     A
C577   C580    1.409   .     S
C577   O615    1.284   .     A
C578   C580    1.407   .     A
C578   C589    1.523   .     S
C578   C691    1.395   1_455 S
C579   C595    1.408   .     A
C579   C596    1.407   .     A
C579   C588    1.409   .     S
C580   C594    1.408   .     A
C581   N614    1.371   .     A
C581   Cl597   1.760   .     S
C582   N613    1.371   .     A
C582   Cl598   1.760   .     S
C582   C727    1.425   .     S
C583   Cl599   1.760   .     S
C583   N614    1.371   .     A
C584   Cl600   1.760   .     S
C584   N613    1.371   .     A
C584   C725    1.425   .     S
C585   H605    1.110   .     S
C585   H601    1.105   .     S
C585   H606    1.110   .     S
C585   C594    1.520   .     S
C586   C595    1.520   .     S
C586   H609    1.110   .     S
C586   H608    1.110   .     S
C586   H607    1.105   .     S
C587   H611    1.103   .     S
C587   H612    1.110   .     S
C587   C596    1.523   .     S
C587   H610    1.110   .     S
C588   O616    1.284   .     A
C588   O617    1.284   .     A
C589   H604    1.103   .     S
C589   H602    1.110   .     S
C589   H603    1.110   .     S
C590   O619    1.283   .     A
C590   O622    1.283   .     A
C590   C592    1.368   .     S
C591   O620    1.283   .     A
C591   C593    1.368   .     S
C591   O621    1.283   .     A
C593   C1024   1.167   .     S
C594   C692    1.395   1_455 S
C595   C626    1.395   .     S
C596   C642    1.395   .     S
N613   Zn623   2.027   .     S
N614   Zn624   2.027   .     S
O615   Zn623   1.983   .     S
O616   Zn624   1.983   .     S
O617   Zn623   1.983   .     S
O618   Zn624   1.983   .     S
O619   Zn623   1.952   .     S
O620   Zn624   1.952   .     S
O621   Zn623   1.952   .     S
O622   Zn624   1.952   .     S
C625   O666    1.284   .     A
C625   C628    1.409   .     S
C625   O663    1.284   .     A
C626   C628    1.407   .     A
C626   C637    1.523   .     S
C627   C643    1.408   .     A
C627   C644    1.407   .     A
C627   C636    1.409   .     S
C628   C642    1.408   .     A
C629   N662    1.371   .     A
C629   Cl645   1.760   .     S
C630   N661    1.371   .     A
C630   Cl646   1.760   .     S
C630   C775    1.425   .     S
C631   Cl647   1.760   .     S
C631   N662    1.371   .     A
C632   Cl648   1.760   .     S
C632   N661    1.371   .     A
C632   C773    1.425   .     S
C633   H653    1.110   .     S
C633   H649    1.105   .     S
C633   H654    1.110   .     S
C633   C642    1.520   .     S
C634   C643    1.520   .     S
C634   H657    1.110   .     S
C634   H656    1.110   .     S
C634   H655    1.105   .     S
C635   H659    1.103   .     S
C635   H660    1.110   .     S
C635   C644    1.523   .     S
C635   H658    1.110   .     S
C636   O664    1.284   .     A
C636   O665    1.284   .     A
C637   H652    1.103   .     S
C637   H650    1.110   .     S
C637   H651    1.110   .     S
C638   O667    1.283   .     A
C638   O670    1.283   .     A
C638   C640    1.368   .     S
C639   O668    1.283   .     A
C639   C641    1.368   .     S
C639   O669    1.283   .     A
C641   C1072   1.167   .     S
C643   C674    1.395   .     S
C644   C690    1.395   .     S
N661   Zn671   2.027   .     S
N662   Zn672   2.027   .     S
O663   Zn671   1.983   .     S
O664   Zn672   1.983   .     S
O665   Zn671   1.983   .     S
O666   Zn672   1.983   .     S
O667   Zn671   1.952   .     S
O668   Zn672   1.952   .     S
O669   Zn671   1.952   .     S
O670   Zn672   1.952   .     S
C673   O714    1.284   .     A
C673   C676    1.409   .     S
C673   O711    1.284   .     A
C674   C676    1.407   .     A
C674   C685    1.523   .     S
C675   C691    1.408   .     A
C675   C692    1.407   .     A
C675   C684    1.409   .     S
C676   C690    1.408   .     A
C677   N710    1.371   .     A
C677   Cl693   1.760   .     S
C678   N709    1.371   .     A
C678   Cl694   1.760   .     S
C678   C823    1.425   .     S
C679   Cl695   1.760   .     S
C679   N710    1.371   .     A
C680   Cl696   1.760   .     S
C680   N709    1.371   .     A
C680   C821    1.425   .     S
C681   H701    1.110   .     S
C681   H697    1.105   .     S
C681   H702    1.110   .     S
C681   C690    1.520   .     S
C682   C691    1.520   .     S
C682   H705    1.110   .     S
C682   H704    1.110   .     S
C682   H703    1.105   .     S
C683   H707    1.103   .     S
C683   H708    1.110   .     S
C683   C692    1.523   .     S
C683   H706    1.110   .     S
C684   O712    1.284   .     A
C684   O713    1.284   .     A
C685   H700    1.103   .     S
C685   H698    1.110   .     S
C685   H699    1.110   .     S
C686   O715    1.283   .     A
C686   O718    1.283   .     A
C686   C688    1.368   .     S
C687   O716    1.283   .     A
C687   C689    1.368   .     S
C687   O717    1.283   .     A
C689   C1120   1.167   .     S
C691   C578    1.395   1_655 S
C692   C594    1.395   1_655 S
N709   Zn719   2.027   .     S
N710   Zn720   2.027   .     S
O711   Zn719   1.983   .     S
O712   Zn720   1.983   .     S
O713   Zn719   1.983   .     S
O714   Zn720   1.983   .     S
O715   Zn719   1.952   .     S
O716   Zn720   1.952   .     S
O717   Zn719   1.952   .     S
O718   Zn720   1.952   .     S
C721   O762    1.284   .     A
C721   C724    1.409   .     S
C721   O759    1.284   .     A
C722   C724    1.407   .     A
C722   C733    1.523   .     S
C722   C835    1.395   1_455 S
C723   C739    1.408   .     A
C723   C740    1.407   .     A
C723   C732    1.409   .     S
C724   C738    1.408   .     A
C725   N758    1.371   .     A
C725   Cl741   1.760   .     S
C726   N757    1.371   .     A
C726   Cl742   1.760   .     S
C726   C439    1.425   1_565 S
C727   Cl743   1.760   .     S
C727   N758    1.371   .     A
C728   Cl744   1.760   .     S
C728   N757    1.371   .     A
C728   C437    1.425   1_565 S
C729   H749    1.110   .     S
C729   H745    1.105   .     S
C729   H750    1.110   .     S
C729   C738    1.520   .     S
C730   C739    1.520   .     S
C730   H753    1.110   .     S
C730   H752    1.110   .     S
C730   H751    1.105   .     S
C731   H755    1.103   .     S
C731   H756    1.110   .     S
C731   C740    1.523   .     S
C731   H754    1.110   .     S
C732   O760    1.284   .     A
C732   O761    1.284   .     A
C733   H748    1.103   .     S
C733   H746    1.110   .     S
C733   H747    1.110   .     S
C734   O763    1.283   .     A
C734   O766    1.283   .     A
C734   C736    1.368   .     S
C735   O764    1.283   .     A
C735   C737    1.368   .     S
C735   O765    1.283   .     A
C737   C1168   1.167   .     S
C738   C836    1.395   1_455 S
C739   C770    1.395   .     S
C740   C786    1.395   .     S
N757   Zn767   2.027   .     S
N758   Zn768   2.027   .     S
O759   Zn767   1.983   .     S
O760   Zn768   1.983   .     S
O761   Zn767   1.983   .     S
O762   Zn768   1.983   .     S
O763   Zn767   1.952   .     S
O764   Zn768   1.952   .     S
O765   Zn767   1.952   .     S
O766   Zn768   1.952   .     S
C769   O810    1.284   .     A
C769   C772    1.409   .     S
C769   O807    1.284   .     A
C770   C772    1.407   .     A
C770   C781    1.523   .     S
C771   C787    1.408   .     A
C771   C788    1.407   .     A
C771   C780    1.409   .     S
C772   C786    1.408   .     A
C773   N806    1.371   .     A
C773   Cl789   1.760   .     S
C774   N805    1.371   .     A
C774   Cl790   1.760   .     S
C774   C487    1.425   1_565 S
C775   Cl791   1.760   .     S
C775   N806    1.371   .     A
C776   Cl792   1.760   .     S
C776   N805    1.371   .     A
C776   C485    1.425   1_565 S
C777   H797    1.110   .     S
C777   H793    1.105   .     S
C777   H798    1.110   .     S
C777   C786    1.520   .     S
C778   C787    1.520   .     S
C778   H801    1.110   .     S
C778   H800    1.110   .     S
C778   H799    1.105   .     S
C779   H803    1.103   .     S
C779   H804    1.110   .     S
C779   C788    1.523   .     S
C779   H802    1.110   .     S
C780   O808    1.284   .     A
C780   O809    1.284   .     A
C781   H796    1.103   .     S
C781   H794    1.110   .     S
C781   H795    1.110   .     S
C782   O811    1.283   .     A
C782   O814    1.283   .     A
C782   C784    1.368   .     S
C783   O812    1.283   .     A
C783   C785    1.368   .     S
C783   O813    1.283   .     A
C785   C1216   1.167   .     S
C787   C818    1.395   .     S
C788   C834    1.395   .     S
N805   Zn815   2.027   .     S
N806   Zn816   2.027   .     S
O807   Zn815   1.983   .     S
O808   Zn816   1.983   .     S
O809   Zn815   1.983   .     S
O810   Zn816   1.983   .     S
O811   Zn815   1.952   .     S
O812   Zn816   1.952   .     S
O813   Zn815   1.952   .     S
O814   Zn816   1.952   .     S
C817   O858    1.284   .     A
C817   C820    1.409   .     S
C817   O855    1.284   .     A
C818   C820    1.407   .     A
C818   C829    1.523   .     S
C819   C835    1.408   .     A
C819   C836    1.407   .     A
C819   C828    1.409   .     S
C820   C834    1.408   .     A
C821   N854    1.371   .     A
C821   Cl837   1.760   .     S
C822   N853    1.371   .     A
C822   Cl838   1.760   .     S
C822   C535    1.425   1_565 S
C823   Cl839   1.760   .     S
C823   N854    1.371   .     A
C824   Cl840   1.760   .     S
C824   N853    1.371   .     A
C824   C533    1.425   1_565 S
C825   H845    1.110   .     S
C825   H841    1.105   .     S
C825   H846    1.110   .     S
C825   C834    1.520   .     S
C826   C835    1.520   .     S
C826   H849    1.110   .     S
C826   H848    1.110   .     S
C826   H847    1.105   .     S
C827   H851    1.103   .     S
C827   H852    1.110   .     S
C827   C836    1.523   .     S
C827   H850    1.110   .     S
C828   O856    1.284   .     A
C828   O857    1.284   .     A
C829   H844    1.103   .     S
C829   H842    1.110   .     S
C829   H843    1.110   .     S
C830   O859    1.283   .     A
C830   O862    1.283   .     A
C830   C832    1.368   .     S
C831   O860    1.283   .     A
C831   C833    1.368   .     S
C831   O861    1.283   .     A
C833   C1264   1.167   .     S
C835   C722    1.395   1_655 S
C836   C738    1.395   1_655 S
N853   Zn863   2.027   .     S
N854   Zn864   2.027   .     S
O855   Zn863   1.983   .     S
O856   Zn864   1.983   .     S
O857   Zn863   1.983   .     S
O858   Zn864   1.983   .     S
O859   Zn863   1.952   .     S
O860   Zn864   1.952   .     S
O861   Zn863   1.952   .     S
O862   Zn864   1.952   .     S
C865   O906    1.284   .     A
C865   C868    1.409   .     S
C865   O903    1.284   .     A
C866   C868    1.407   .     A
C866   C877    1.523   .     S
C866   C979    1.395   1_455 S
C867   C883    1.408   .     A
C867   C884    1.407   .     A
C867   C876    1.409   .     S
C868   C882    1.408   .     A
C869   N902    1.371   .     A
C869   Cl885   1.760   .     S
C869   C1160   1.425   1_545 S
C870   N901    1.371   .     A
C870   Cl886   1.760   .     S
C870   C1015   1.425   .     S
C871   Cl887   1.760   .     S
C871   N902    1.371   .     A
C871   C1158   1.425   1_545 S
C872   Cl888   1.760   .     S
C872   N901    1.371   .     A
C872   C1013   1.425   .     S
C873   H893    1.110   .     S
C873   H889    1.105   .     S
C873   H894    1.110   .     S
C873   C882    1.520   .     S
C874   C883    1.520   .     S
C874   H897    1.110   .     S
C874   H896    1.110   .     S
C874   H895    1.105   .     S
C875   H899    1.103   .     S
C875   H900    1.110   .     S
C875   C884    1.523   .     S
C875   H898    1.110   .     S
C876   O904    1.284   .     A
C876   O905    1.284   .     A
C877   H892    1.103   .     S
C877   H890    1.110   .     S
C877   H891    1.110   .     S
C878   O907    1.283   .     A
C878   O910    1.283   .     A
C878   C880    1.368   .     S
C879   O908    1.283   .     A
C879   C881    1.368   .     S
C879   O909    1.283   .     A
C881   C16     1.167   1_556 S
C882   C980    1.395   1_455 S
C883   C914    1.395   .     S
C884   C930    1.395   .     S
N901   Zn911   2.027   .     S
N902   Zn912   2.027   .     S
O903   Zn911   1.983   .     S
O904   Zn912   1.983   .     S
O905   Zn911   1.983   .     S
O906   Zn912   1.983   .     S
O907   Zn911   1.952   .     S
O908   Zn912   1.952   .     S
O909   Zn911   1.952   .     S
O910   Zn912   1.952   .     S
C913   O954    1.284   .     A
C913   C916    1.409   .     S
C913   O951    1.284   .     A
C914   C916    1.407   .     A
C914   C925    1.523   .     S
C915   C931    1.408   .     A
C915   C932    1.407   .     A
C915   C924    1.409   .     S
C916   C930    1.408   .     A
C917   N950    1.371   .     A
C917   Cl933   1.760   .     S
C917   C1208   1.425   1_545 S
C918   N949    1.371   .     A
C918   Cl934   1.760   .     S
C918   C1063   1.425   .     S
C919   Cl935   1.760   .     S
C919   N950    1.371   .     A
C919   C1206   1.425   1_545 S
C920   Cl936   1.760   .     S
C920   N949    1.371   .     A
C920   C1061   1.425   .     S
C921   H941    1.110   .     S
C921   H937    1.105   .     S
C921   H942    1.110   .     S
C921   C930    1.520   .     S
C922   C931    1.520   .     S
C922   H945    1.110   .     S
C922   H944    1.110   .     S
C922   H943    1.105   .     S
C923   H947    1.103   .     S
C923   H948    1.110   .     S
C923   C932    1.523   .     S
C923   H946    1.110   .     S
C924   O952    1.284   .     A
C924   O953    1.284   .     A
C925   H940    1.103   .     S
C925   H938    1.110   .     S
C925   H939    1.110   .     S
C926   O955    1.283   .     A
C926   O958    1.283   .     A
C926   C928    1.368   .     S
C927   O956    1.283   .     A
C927   C929    1.368   .     S
C927   O957    1.283   .     A
C929   C64     1.167   1_556 S
C931   C962    1.395   .     S
C932   C978    1.395   .     S
N949   Zn959   2.027   .     S
N950   Zn960   2.027   .     S
O951   Zn959   1.983   .     S
O952   Zn960   1.983   .     S
O953   Zn959   1.983   .     S
O954   Zn960   1.983   .     S
O955   Zn959   1.952   .     S
O956   Zn960   1.952   .     S
O957   Zn959   1.952   .     S
O958   Zn960   1.952   .     S
C961   O1002   1.284   .     A
C961   C964    1.409   .     S
C961   O999    1.284   .     A
C962   C964    1.407   .     A
C962   C973    1.523   .     S
C963   C979    1.408   .     A
C963   C980    1.407   .     A
C963   C972    1.409   .     S
C964   C978    1.408   .     A
C965   N998    1.371   .     A
C965   Cl981   1.760   .     S
C965   C1256   1.425   1_545 S
C966   N997    1.371   .     A
C966   Cl982   1.760   .     S
C966   C1111   1.425   .     S
C967   Cl983   1.760   .     S
C967   N998    1.371   .     A
C967   C1254   1.425   1_545 S
C968   Cl984   1.760   .     S
C968   N997    1.371   .     A
C968   C1109   1.425   .     S
C969   H989    1.110   .     S
C969   H985    1.105   .     S
C969   H990    1.110   .     S
C969   C978    1.520   .     S
C970   C979    1.520   .     S
C970   H993    1.110   .     S
C970   H992    1.110   .     S
C970   H991    1.105   .     S
C971   H995    1.103   .     S
C971   H996    1.110   .     S
C971   C980    1.523   .     S
C971   H994    1.110   .     S
C972   O1000   1.284   .     A
C972   O1001   1.284   .     A
C973   H988    1.103   .     S
C973   H986    1.110   .     S
C973   H987    1.110   .     S
C974   O1003   1.283   .     A
C974   O1006   1.283   .     A
C974   C976    1.368   .     S
C975   O1004   1.283   .     A
C975   C977    1.368   .     S
C975   O1005   1.283   .     A
C977   C112    1.167   1_556 S
C979   C866    1.395   1_655 S
C980   C882    1.395   1_655 S
N997   Zn1007  2.027   .     S
N998   Zn1008  2.027   .     S
O999   Zn1007  1.983   .     S
O1000  Zn1008  1.983   .     S
O1001  Zn1007  1.983   .     S
O1002  Zn1008  1.983   .     S
O1003  Zn1007  1.952   .     S
O1004  Zn1008  1.952   .     S
O1005  Zn1007  1.952   .     S
O1006  Zn1008  1.952   .     S
C1009  O1050   1.284   .     A
C1009  C1012   1.409   .     S
C1009  O1047   1.284   .     A
C1010  C1012   1.407   .     A
C1010  C1021   1.523   .     S
C1010  C1123   1.395   1_455 S
C1011  C1027   1.408   .     A
C1011  C1028   1.407   .     A
C1011  C1020   1.409   .     S
C1012  C1026   1.408   .     A
C1013  N1046   1.371   .     A
C1013  Cl1029  1.760   .     S
C1014  N1045   1.371   .     A
C1014  Cl1030  1.760   .     S
C1014  C1159   1.425   .     S
C1015  Cl1031  1.760   .     S
C1015  N1046   1.371   .     A
C1016  Cl1032  1.760   .     S
C1016  N1045   1.371   .     A
C1016  C1157   1.425   .     S
C1017  H1037   1.110   .     S
C1017  H1033   1.105   .     S
C1017  H1038   1.110   .     S
C1017  C1026   1.520   .     S
C1018  C1027   1.520   .     S
C1018  H1041   1.110   .     S
C1018  H1040   1.110   .     S
C1018  H1039   1.105   .     S
C1019  H1043   1.103   .     S
C1019  H1044   1.110   .     S
C1019  C1028   1.523   .     S
C1019  H1042   1.110   .     S
C1020  O1048   1.284   .     A
C1020  O1049   1.284   .     A
C1021  H1036   1.103   .     S
C1021  H1034   1.110   .     S
C1021  H1035   1.110   .     S
C1022  O1051   1.283   .     A
C1022  O1054   1.283   .     A
C1022  C1024   1.368   .     S
C1023  O1052   1.283   .     A
C1023  C1025   1.368   .     S
C1023  O1053   1.283   .     A
C1025  C160    1.167   1_556 S
C1026  C1124   1.395   1_455 S
C1027  C1058   1.395   .     S
C1028  C1074   1.395   .     S
N1045  Zn1055  2.027   .     S
N1046  Zn1056  2.027   .     S
O1047  Zn1055  1.983   .     S
O1048  Zn1056  1.983   .     S
O1049  Zn1055  1.983   .     S
O1050  Zn1056  1.983   .     S
O1051  Zn1055  1.952   .     S
O1052  Zn1056  1.952   .     S
O1053  Zn1055  1.952   .     S
O1054  Zn1056  1.952   .     S
C1057  O1098   1.284   .     A
C1057  C1060   1.409   .     S
C1057  O1095   1.284   .     A
C1058  C1060   1.407   .     A
C1058  C1069   1.523   .     S
C1059  C1075   1.408   .     A
C1059  C1076   1.407   .     A
C1059  C1068   1.409   .     S
C1060  C1074   1.408   .     A
C1061  N1094   1.371   .     A
C1061  Cl1077  1.760   .     S
C1062  N1093   1.371   .     A
C1062  Cl1078  1.760   .     S
C1062  C1207   1.425   .     S
C1063  Cl1079  1.760   .     S
C1063  N1094   1.371   .     A
C1064  Cl1080  1.760   .     S
C1064  N1093   1.371   .     A
C1064  C1205   1.425   .     S
C1065  H1085   1.110   .     S
C1065  H1081   1.105   .     S
C1065  H1086   1.110   .     S
C1065  C1074   1.520   .     S
C1066  C1075   1.520   .     S
C1066  H1089   1.110   .     S
C1066  H1088   1.110   .     S
C1066  H1087   1.105   .     S
C1067  H1091   1.103   .     S
C1067  H1092   1.110   .     S
C1067  C1076   1.523   .     S
C1067  H1090   1.110   .     S
C1068  O1096   1.284   .     A
C1068  O1097   1.284   .     A
C1069  H1084   1.103   .     S
C1069  H1082   1.110   .     S
C1069  H1083   1.110   .     S
C1070  O1099   1.283   .     A
C1070  O1102   1.283   .     A
C1070  C1072   1.368   .     S
C1071  O1100   1.283   .     A
C1071  C1073   1.368   .     S
C1071  O1101   1.283   .     A
C1073  C208    1.167   1_556 S
C1075  C1106   1.395   .     S
C1076  C1122   1.395   .     S
N1093  Zn1103  2.027   .     S
N1094  Zn1104  2.027   .     S
O1095  Zn1103  1.983   .     S
O1096  Zn1104  1.983   .     S
O1097  Zn1103  1.983   .     S
O1098  Zn1104  1.983   .     S
O1099  Zn1103  1.952   .     S
O1100  Zn1104  1.952   .     S
O1101  Zn1103  1.952   .     S
O1102  Zn1104  1.952   .     S
C1105  O1146   1.284   .     A
C1105  C1108   1.409   .     S
C1105  O1143   1.284   .     A
C1106  C1108   1.407   .     A
C1106  C1117   1.523   .     S
C1107  C1123   1.408   .     A
C1107  C1124   1.407   .     A
C1107  C1116   1.409   .     S
C1108  C1122   1.408   .     A
C1109  N1142   1.371   .     A
C1109  Cl1125  1.760   .     S
C1110  N1141   1.371   .     A
C1110  Cl1126  1.760   .     S
C1110  C1255   1.425   .     S
C1111  Cl1127  1.760   .     S
C1111  N1142   1.371   .     A
C1112  Cl1128  1.760   .     S
C1112  N1141   1.371   .     A
C1112  C1253   1.425   .     S
C1113  H1133   1.110   .     S
C1113  H1129   1.105   .     S
C1113  H1134   1.110   .     S
C1113  C1122   1.520   .     S
C1114  C1123   1.520   .     S
C1114  H1137   1.110   .     S
C1114  H1136   1.110   .     S
C1114  H1135   1.105   .     S
C1115  H1139   1.103   .     S
C1115  H1140   1.110   .     S
C1115  C1124   1.523   .     S
C1115  H1138   1.110   .     S
C1116  O1144   1.284   .     A
C1116  O1145   1.284   .     A
C1117  H1132   1.103   .     S
C1117  H1130   1.110   .     S
C1117  H1131   1.110   .     S
C1118  O1147   1.283   .     A
C1118  O1150   1.283   .     A
C1118  C1120   1.368   .     S
C1119  O1148   1.283   .     A
C1119  C1121   1.368   .     S
C1119  O1149   1.283   .     A
C1121  C256    1.167   1_556 S
C1123  C1010   1.395   1_655 S
C1124  C1026   1.395   1_655 S
N1141  Zn1151  2.027   .     S
N1142  Zn1152  2.027   .     S
O1143  Zn1151  1.983   .     S
O1144  Zn1152  1.983   .     S
O1145  Zn1151  1.983   .     S
O1146  Zn1152  1.983   .     S
O1147  Zn1151  1.952   .     S
O1148  Zn1152  1.952   .     S
O1149  Zn1151  1.952   .     S
O1150  Zn1152  1.952   .     S
C1153  O1194   1.284   .     A
C1153  C1156   1.409   .     S
C1153  O1191   1.284   .     A
C1154  C1156   1.407   .     A
C1154  C1165   1.523   .     S
C1154  C1267   1.395   1_455 S
C1155  C1171   1.408   .     A
C1155  C1172   1.407   .     A
C1155  C1164   1.409   .     S
C1156  C1170   1.408   .     A
C1157  N1190   1.371   .     A
C1157  Cl1173  1.760   .     S
C1158  N1189   1.371   .     A
C1158  Cl1174  1.760   .     S
C1158  C871    1.425   1_565 S
C1159  Cl1175  1.760   .     S
C1159  N1190   1.371   .     A
C1160  Cl1176  1.760   .     S
C1160  N1189   1.371   .     A
C1160  C869    1.425   1_565 S
C1161  H1181   1.110   .     S
C1161  H1177   1.105   .     S
C1161  H1182   1.110   .     S
C1161  C1170   1.520   .     S
C1162  C1171   1.520   .     S
C1162  H1185   1.110   .     S
C1162  H1184   1.110   .     S
C1162  H1183   1.105   .     S
C1163  H1187   1.103   .     S
C1163  H1188   1.110   .     S
C1163  C1172   1.523   .     S
C1163  H1186   1.110   .     S
C1164  O1192   1.284   .     A
C1164  O1193   1.284   .     A
C1165  H1180   1.103   .     S
C1165  H1178   1.110   .     S
C1165  H1179   1.110   .     S
C1166  O1195   1.283   .     A
C1166  O1198   1.283   .     A
C1166  C1168   1.368   .     S
C1167  O1196   1.283   .     A
C1167  C1169   1.368   .     S
C1167  O1197   1.283   .     A
C1169  C304    1.167   1_556 S
C1170  C1268   1.395   1_455 S
C1171  C1202   1.395   .     S
C1172  C1218   1.395   .     S
N1189  Zn1199  2.027   .     S
N1190  Zn1200  2.027   .     S
O1191  Zn1199  1.983   .     S
O1192  Zn1200  1.983   .     S
O1193  Zn1199  1.983   .     S
O1194  Zn1200  1.983   .     S
O1195  Zn1199  1.952   .     S
O1196  Zn1200  1.952   .     S
O1197  Zn1199  1.952   .     S
O1198  Zn1200  1.952   .     S
C1201  O1242   1.284   .     A
C1201  C1204   1.409   .     S
C1201  O1239   1.284   .     A
C1202  C1204   1.407   .     A
C1202  C1213   1.523   .     S
C1203  C1219   1.408   .     A
C1203  C1220   1.407   .     A
C1203  C1212   1.409   .     S
C1204  C1218   1.408   .     A
C1205  N1238   1.371   .     A
C1205  Cl1221  1.760   .     S
C1206  N1237   1.371   .     A
C1206  Cl1222  1.760   .     S
C1206  C919    1.425   1_565 S
C1207  Cl1223  1.760   .     S
C1207  N1238   1.371   .     A
C1208  Cl1224  1.760   .     S
C1208  N1237   1.371   .     A
C1208  C917    1.425   1_565 S
C1209  H1229   1.110   .     S
C1209  H1225   1.105   .     S
C1209  H1230   1.110   .     S
C1209  C1218   1.520   .     S
C1210  C1219   1.520   .     S
C1210  H1233   1.110   .     S
C1210  H1232   1.110   .     S
C1210  H1231   1.105   .     S
C1211  H1235   1.103   .     S
C1211  H1236   1.110   .     S
C1211  C1220   1.523   .     S
C1211  H1234   1.110   .     S
C1212  O1240   1.284   .     A
C1212  O1241   1.284   .     A
C1213  H1228   1.103   .     S
C1213  H1226   1.110   .     S
C1213  H1227   1.110   .     S
C1214  O1243   1.283   .     A
C1214  O1246   1.283   .     A
C1214  C1216   1.368   .     S
C1215  O1244   1.283   .     A
C1215  C1217   1.368   .     S
C1215  O1245   1.283   .     A
C1217  C352    1.167   1_556 S
C1219  C1250   1.395   .     S
C1220  C1266   1.395   .     S
N1237  Zn1247  2.027   .     S
N1238  Zn1248  2.027   .     S
O1239  Zn1247  1.983   .     S
O1240  Zn1248  1.983   .     S
O1241  Zn1247  1.983   .     S
O1242  Zn1248  1.983   .     S
O1243  Zn1247  1.952   .     S
O1244  Zn1248  1.952   .     S
O1245  Zn1247  1.952   .     S
O1246  Zn1248  1.952   .     S
C1249  O1290   1.284   .     A
C1249  C1252   1.409   .     S
C1249  O1287   1.284   .     A
C1250  C1252   1.407   .     A
C1250  C1261   1.523   .     S
C1251  C1267   1.408   .     A
C1251  C1268   1.407   .     A
C1251  C1260   1.409   .     S
C1252  C1266   1.408   .     A
C1253  N1286   1.371   .     A
C1253  Cl1269  1.760   .     S
C1254  N1285   1.371   .     A
C1254  Cl1270  1.760   .     S
C1254  C967    1.425   1_565 S
C1255  Cl1271  1.760   .     S
C1255  N1286   1.371   .     A
C1256  Cl1272  1.760   .     S
C1256  N1285   1.371   .     A
C1256  C965    1.425   1_565 S
C1257  H1277   1.110   .     S
C1257  H1273   1.105   .     S
C1257  H1278   1.110   .     S
C1257  C1266   1.520   .     S
C1258  C1267   1.520   .     S
C1258  H1281   1.110   .     S
C1258  H1280   1.110   .     S
C1258  H1279   1.105   .     S
C1259  H1283   1.103   .     S
C1259  H1284   1.110   .     S
C1259  C1268   1.523   .     S
C1259  H1282   1.110   .     S
C1260  O1288   1.284   .     A
C1260  O1289   1.284   .     A
C1261  H1276   1.103   .     S
C1261  H1274   1.110   .     S
C1261  H1275   1.110   .     S
C1262  O1291   1.283   .     A
C1262  O1294   1.283   .     A
C1262  C1264   1.368   .     S
C1263  O1292   1.283   .     A
C1263  C1265   1.368   .     S
C1263  O1293   1.283   .     A
C1265  C400    1.167   1_556 S
C1267  C1154   1.395   1_655 S
C1268  C1170   1.395   1_655 S
N1285  Zn1295  2.027   .     S
N1286  Zn1296  2.027   .     S
O1287  Zn1295  1.983   .     S
O1288  Zn1296  1.983   .     S
O1289  Zn1295  1.983   .     S
O1290  Zn1296  1.983   .     S
O1291  Zn1295  1.952   .     S
O1292  Zn1296  1.952   .     S
O1293  Zn1295  1.952   .     S
O1294  Zn1296  1.952   .     S
