data_str_m3_o2_o5_pcu_sym.116
_audit_creation_date              2020-01-03
_audit_creation_method            'Materials Studio'
_symmetry_space_group_name_H-M    'P1'
_symmetry_Int_Tables_number       1
_symmetry_cell_setting            triclinic
loop_
_symmetry_equiv_pos_as_xyz
  x,y,z
_cell_length_a                    29.9866
_cell_length_b                    28.6015
_cell_length_c                    26.6938
_cell_angle_alpha                 89.7526
_cell_angle_beta                  91.2601
_cell_angle_gamma                 89.9821
loop_
_atom_site_label
_atom_site_type_symbol
_atom_site_fract_x
_atom_site_fract_y
_atom_site_fract_z
_atom_site_U_iso_or_equiv
_atom_site_adp_type
_atom_site_occupancy
C1     C     0.16377   0.24990   0.16550   0.00000  Uiso   1.00
C2     C     0.33591   0.24992   0.16657   0.00000  Uiso   1.00
C3     C     0.23626   0.10203   0.12477   0.00000  Uiso   1.00
C4     C     0.24862   0.39822   0.21094   0.00000  Uiso   1.00
C5     C     0.26450   0.10201   0.20841   0.00000  Uiso   1.00
C6     C     0.25199   0.39861   0.12249   0.00000  Uiso   1.00
C7     C     0.23614   0.05266   0.12459   0.00000  Uiso   1.00
C8     C     0.24641   0.44757   0.21136   0.00000  Uiso   1.00
C9     C     0.26385   0.05256   0.20937   0.00000  Uiso   1.00
C10    C     0.25396   0.44819   0.12266   0.00000  Uiso   1.00
C11    C     0.25001   0.25006   0.07295   0.00000  Uiso   1.00
C12    C     0.25003   0.24994   0.26038   0.00000  Uiso   1.00
C13    C     0.24973   0.02681   0.16715   0.00000  Uiso   1.00
C14    C     0.24985   0.47371   0.16708   0.00000  Uiso   1.00
C15    C     0.25004   0.25010   0.02182   0.00000  Uiso   1.00
C16    C     0.25004   0.24991   0.31152   0.00000  Uiso   1.00
C17    C     0.04712   0.28961   0.13584   0.00000  Uiso   1.00
C18    C     0.45008   0.22053   0.12588   0.00000  Uiso   1.00
C19    C     0.45475   0.28325   0.18840   0.00000  Uiso   1.00
C20    C     0.04468   0.21034   0.17138   0.00000  Uiso   1.00
C21    C     0.09334   0.28793   0.13754   0.00000  Uiso   1.00
C22    C     0.40411   0.21841   0.13128   0.00000  Uiso   1.00
C23    C     0.40890   0.28077   0.19420   0.00000  Uiso   1.00
C24    C     0.09126   0.20956   0.17525   0.00000  Uiso   1.00
C25    C     0.11540   0.24938   0.16011   0.00000  Uiso   1.00
C26    C     0.38373   0.24949   0.16442   0.00000  Uiso   1.00
C27    C     0.02306   0.25069   0.15276   0.00000  Uiso   1.00
C28    C     0.47507   0.25240   0.15487   0.00000  Uiso   1.00
H29    H     0.22526   0.03508   0.09070   0.00000  Uiso   1.00
H30    H     0.24251   0.46488   0.24694   0.00000  Uiso   1.00
H31    H     0.27527   0.03483   0.24313   0.00000  Uiso   1.00
H32    H     0.25923   0.46632   0.08770   0.00000  Uiso   1.00
N33    N     0.25000   0.12624   0.16667   0.00000  Uiso   1.00
N34    N     0.25000   0.37376   0.16667   0.00000  Uiso   1.00
O35    O     0.18453   0.28974   0.16667   0.00000  Uiso   1.00
O36    O     0.31547   0.21026   0.16666   0.00000  Uiso   1.00
O37    O     0.31547   0.28974   0.16666   0.00000  Uiso   1.00
O38    O     0.18453   0.21026   0.16667   0.00000  Uiso   1.00
O39    O     0.25000   0.28973   0.09511   0.00000  Uiso   1.00
O40    O     0.25000   0.21027   0.23822   0.00000  Uiso   1.00
O41    O     0.25000   0.28973   0.23822   0.00000  Uiso   1.00
O42    O     0.25000   0.21027   0.09511   0.00000  Uiso   1.00
Zn43   Zn    0.25000   0.30307   0.16667   0.00000  Uiso   1.00
Zn44   Zn    0.25000   0.19693   0.16667   0.00000  Uiso   1.00
O45    O     0.22813   0.12540   0.08019   0.00000  Uiso   1.00
C46    C     0.18186   0.12704   0.07009   0.00000  Uiso   1.00
H47    H     0.17637   0.13927   0.03094   0.00000  Uiso   1.00
H48    H     0.16591   0.15288   0.09476   0.00000  Uiso   1.00
H49    H     0.16550   0.09225   0.07345   0.00000  Uiso   1.00
O50    O     0.24863   0.37491   0.25611   0.00000  Uiso   1.00
C51    C     0.29197   0.37758   0.27769   0.00000  Uiso   1.00
H52    H     0.31783   0.36580   0.25120   0.00000  Uiso   1.00
H53    H     0.29383   0.35394   0.31072   0.00000  Uiso   1.00
H54    H     0.29948   0.41359   0.29094   0.00000  Uiso   1.00
O55    O     0.27741   0.12600   0.25104   0.00000  Uiso   1.00
C56    C     0.32419   0.12358   0.25689   0.00000  Uiso   1.00
H57    H     0.33452   0.14630   0.28867   0.00000  Uiso   1.00
H58    H     0.34120   0.13677   0.22308   0.00000  Uiso   1.00
H59    H     0.33541   0.08743   0.26604   0.00000  Uiso   1.00
O60    O     0.25517   0.37493   0.07772   0.00000  Uiso   1.00
C61    C     0.22117   0.38961   0.04366   0.00000  Uiso   1.00
H62    H     0.18944   0.39872   0.06230   0.00000  Uiso   1.00
H63    H     0.21372   0.36053   0.01743   0.00000  Uiso   1.00
H64    H     0.23272   0.41986   0.02121   0.00000  Uiso   1.00
O65    O     0.02683   0.33185   0.12339   0.00000  Uiso   1.00
C66    C     0.00348   0.32881   0.07703   0.00000  Uiso   1.00
H67    H     0.46903   0.31619   0.08307   0.00000  Uiso   1.00
H68    H     0.02025   0.30570   0.04978   0.00000  Uiso   1.00
C69    C     0.49996   0.37741   0.05403   0.00000  Uiso   1.00
H70    H     0.03373   0.39072   0.04537   0.00000  Uiso   1.00
H71    H     0.47944   0.37607   0.01894   0.00000  Uiso   1.00
H72    H     0.48386   0.40167   0.08052   0.00000  Uiso   1.00
O73    O     0.47113   0.18951   0.09447   0.00000  Uiso   1.00
C74    C     0.47278   0.20802   0.04534   0.00000  Uiso   1.00
H75    H     0.46092   0.24481   0.04135   0.00000  Uiso   1.00
H76    H     0.45117   0.18643   0.02026   0.00000  Uiso   1.00
C77    C     0.02054   0.20515   0.02746   0.00000  Uiso   1.00
H78    H     0.04385   0.22137   0.05509   0.00000  Uiso   1.00
H79    H     0.02348   0.22415   0.32482   0.00000  Uiso   1.00
H80    H     0.03031   0.16804   0.02241   0.00000  Uiso   1.00
O81    O     0.47820   0.32012   0.20990   0.00000  Uiso   1.00
C82    C     0.00090   0.30546   0.25412   0.00000  Uiso   1.00
H83    H     0.01752   0.27112   0.25007   0.00000  Uiso   1.00
H84    H     0.47740   0.30375   0.28565   0.00000  Uiso   1.00
C85    C     0.03727   0.34077   0.26688   0.00000  Uiso   1.00
H86    H     0.06162   0.34241   0.23617   0.00000  Uiso   1.00
H87    H     0.05515   0.33016   0.30196   0.00000  Uiso   1.00
H88    H     0.02248   0.37598   0.27196   0.00000  Uiso   1.00
O89    O     0.02027   0.17061   0.18263   0.00000  Uiso   1.00
C90    C     0.01050   0.16999   0.23403   0.00000  Uiso   1.00
H91    H     0.48731   0.19885   0.24318   0.00000  Uiso   1.00
H92    H     0.04149   0.17239   0.25761   0.00000  Uiso   1.00
C93    C     0.48718   0.12434   0.24648   0.00000  Uiso   1.00
H94    H     0.45579   0.12119   0.22386   0.00000  Uiso   1.00
H95    H     0.47898   0.12354   0.28683   0.00000  Uiso   1.00
H96    H     0.00921   0.09424   0.23828   0.00000  Uiso   1.00
O97    O     0.11657   0.32477   0.11688   0.00000  Uiso   1.00
C98    C     0.12608   0.31354   0.06669   0.00000  Uiso   1.00
H99    H     0.15726   0.29272   0.06521   0.00000  Uiso   1.00
H100   H     0.13095   0.34643   0.04548   0.00000  Uiso   1.00
H101   H     0.09865   0.29435   0.04685   0.00000  Uiso   1.00
O102   O     0.37823   0.18961   0.10072   0.00000  Uiso   1.00
C103   C     0.38462   0.14237   0.11486   0.00000  Uiso   1.00
H104   H     0.39168   0.13744   0.15570   0.00000  Uiso   1.00
H105   H     0.41181   0.12662   0.09301   0.00000  Uiso   1.00
H106   H     0.35358   0.12279   0.10564   0.00000  Uiso   1.00
O107   O     0.38896   0.31027   0.22802   0.00000  Uiso   1.00
C108   C     0.38012   0.28474   0.27216   0.00000  Uiso   1.00
H109   H     0.40896   0.26291   0.28513   0.00000  Uiso   1.00
H110   H     0.35022   0.26228   0.26683   0.00000  Uiso   1.00
H111   H     0.37299   0.30980   0.30254   0.00000  Uiso   1.00
O112   O     0.11329   0.17257   0.19896   0.00000  Uiso   1.00
C113   C     0.10671   0.13034   0.17243   0.00000  Uiso   1.00
H114   H     0.09615   0.13516   0.13241   0.00000  Uiso   1.00
H115   H     0.08185   0.10841   0.19175   0.00000  Uiso   1.00
H116   H     0.13859   0.11062   0.17310   0.00000  Uiso   1.00
C117   C     0.66377   0.24990   0.16550   0.00000  Uiso   1.00
C118   C     0.83591   0.24992   0.16657   0.00000  Uiso   1.00
C119   C     0.73626   0.10203   0.12477   0.00000  Uiso   1.00
C120   C     0.74862   0.39822   0.21094   0.00000  Uiso   1.00
C121   C     0.76450   0.10201   0.20841   0.00000  Uiso   1.00
C122   C     0.75199   0.39861   0.12249   0.00000  Uiso   1.00
C123   C     0.73614   0.05266   0.12459   0.00000  Uiso   1.00
C124   C     0.74641   0.44757   0.21136   0.00000  Uiso   1.00
C125   C     0.76385   0.05256   0.20937   0.00000  Uiso   1.00
C126   C     0.75396   0.44819   0.12266   0.00000  Uiso   1.00
C127   C     0.75001   0.25006   0.07295   0.00000  Uiso   1.00
C128   C     0.75003   0.24994   0.26038   0.00000  Uiso   1.00
C129   C     0.74973   0.02681   0.16715   0.00000  Uiso   1.00
C130   C     0.74985   0.47371   0.16708   0.00000  Uiso   1.00
C131   C     0.75004   0.25010   0.02182   0.00000  Uiso   1.00
C132   C     0.75004   0.24991   0.31152   0.00000  Uiso   1.00
C133   C     0.54712   0.28961   0.13584   0.00000  Uiso   1.00
C134   C     0.95008   0.22053   0.12588   0.00000  Uiso   1.00
C135   C     0.95475   0.28325   0.18840   0.00000  Uiso   1.00
C136   C     0.54468   0.21034   0.17138   0.00000  Uiso   1.00
C137   C     0.59334   0.28793   0.13754   0.00000  Uiso   1.00
C138   C     0.90411   0.21841   0.13128   0.00000  Uiso   1.00
C139   C     0.90890   0.28077   0.19420   0.00000  Uiso   1.00
C140   C     0.59126   0.20956   0.17525   0.00000  Uiso   1.00
C141   C     0.61540   0.24938   0.16011   0.00000  Uiso   1.00
C142   C     0.88373   0.24949   0.16442   0.00000  Uiso   1.00
C143   C     0.52306   0.25069   0.15276   0.00000  Uiso   1.00
C144   C     0.97507   0.25240   0.15487   0.00000  Uiso   1.00
H145   H     0.72526   0.03508   0.09070   0.00000  Uiso   1.00
H146   H     0.74251   0.46488   0.24694   0.00000  Uiso   1.00
H147   H     0.77527   0.03483   0.24313   0.00000  Uiso   1.00
H148   H     0.75923   0.46632   0.08770   0.00000  Uiso   1.00
N149   N     0.75000   0.12624   0.16667   0.00000  Uiso   1.00
N150   N     0.75000   0.37376   0.16667   0.00000  Uiso   1.00
O151   O     0.68453   0.28974   0.16667   0.00000  Uiso   1.00
O152   O     0.81547   0.21026   0.16666   0.00000  Uiso   1.00
O153   O     0.81547   0.28974   0.16666   0.00000  Uiso   1.00
O154   O     0.68453   0.21026   0.16667   0.00000  Uiso   1.00
O155   O     0.75000   0.28973   0.09511   0.00000  Uiso   1.00
O156   O     0.75000   0.21027   0.23822   0.00000  Uiso   1.00
O157   O     0.75000   0.28973   0.23822   0.00000  Uiso   1.00
O158   O     0.75000   0.21027   0.09511   0.00000  Uiso   1.00
Zn159  Zn    0.75000   0.30307   0.16667   0.00000  Uiso   1.00
Zn160  Zn    0.75000   0.19693   0.16667   0.00000  Uiso   1.00
O161   O     0.72813   0.12540   0.08019   0.00000  Uiso   1.00
C162   C     0.68186   0.12704   0.07009   0.00000  Uiso   1.00
H163   H     0.67637   0.13927   0.03094   0.00000  Uiso   1.00
H164   H     0.66591   0.15288   0.09476   0.00000  Uiso   1.00
H165   H     0.66550   0.09225   0.07345   0.00000  Uiso   1.00
O166   O     0.74863   0.37491   0.25611   0.00000  Uiso   1.00
C167   C     0.79197   0.37758   0.27769   0.00000  Uiso   1.00
H168   H     0.81783   0.36580   0.25120   0.00000  Uiso   1.00
H169   H     0.79383   0.35394   0.31072   0.00000  Uiso   1.00
H170   H     0.79948   0.41359   0.29094   0.00000  Uiso   1.00
O171   O     0.77741   0.12600   0.25104   0.00000  Uiso   1.00
C172   C     0.82419   0.12358   0.25689   0.00000  Uiso   1.00
H173   H     0.83452   0.14630   0.28867   0.00000  Uiso   1.00
H174   H     0.84120   0.13677   0.22308   0.00000  Uiso   1.00
H175   H     0.83541   0.08743   0.26604   0.00000  Uiso   1.00
O176   O     0.75517   0.37493   0.07772   0.00000  Uiso   1.00
C177   C     0.72117   0.38961   0.04366   0.00000  Uiso   1.00
H178   H     0.68944   0.39872   0.06230   0.00000  Uiso   1.00
H179   H     0.71372   0.36053   0.01743   0.00000  Uiso   1.00
H180   H     0.73272   0.41986   0.02121   0.00000  Uiso   1.00
O181   O     0.52683   0.33185   0.12339   0.00000  Uiso   1.00
C182   C     0.50348   0.32881   0.07703   0.00000  Uiso   1.00
H183   H     0.96903   0.31619   0.08307   0.00000  Uiso   1.00
H184   H     0.52025   0.30570   0.04978   0.00000  Uiso   1.00
C185   C     0.99996   0.37741   0.05403   0.00000  Uiso   1.00
H186   H     0.53373   0.39072   0.04537   0.00000  Uiso   1.00
H187   H     0.97944   0.37607   0.01894   0.00000  Uiso   1.00
H188   H     0.98386   0.40167   0.08052   0.00000  Uiso   1.00
O189   O     0.97113   0.18951   0.09447   0.00000  Uiso   1.00
C190   C     0.97278   0.20802   0.04534   0.00000  Uiso   1.00
H191   H     0.96092   0.24481   0.04135   0.00000  Uiso   1.00
H192   H     0.95117   0.18643   0.02026   0.00000  Uiso   1.00
C193   C     0.52054   0.20515   0.02746   0.00000  Uiso   1.00
H194   H     0.54385   0.22137   0.05509   0.00000  Uiso   1.00
H195   H     0.52348   0.22415   0.32482   0.00000  Uiso   1.00
H196   H     0.53031   0.16804   0.02241   0.00000  Uiso   1.00
O197   O     0.97820   0.32012   0.20990   0.00000  Uiso   1.00
C198   C     0.50090   0.30546   0.25412   0.00000  Uiso   1.00
H199   H     0.51752   0.27112   0.25007   0.00000  Uiso   1.00
H200   H     0.97740   0.30375   0.28565   0.00000  Uiso   1.00
C201   C     0.53727   0.34077   0.26688   0.00000  Uiso   1.00
H202   H     0.56162   0.34241   0.23617   0.00000  Uiso   1.00
H203   H     0.55515   0.33016   0.30196   0.00000  Uiso   1.00
H204   H     0.52248   0.37598   0.27196   0.00000  Uiso   1.00
O205   O     0.52027   0.17061   0.18263   0.00000  Uiso   1.00
C206   C     0.51050   0.16999   0.23403   0.00000  Uiso   1.00
H207   H     0.98731   0.19885   0.24318   0.00000  Uiso   1.00
H208   H     0.54149   0.17239   0.25761   0.00000  Uiso   1.00
C209   C     0.98718   0.12434   0.24648   0.00000  Uiso   1.00
H210   H     0.95579   0.12119   0.22386   0.00000  Uiso   1.00
H211   H     0.97898   0.12354   0.28683   0.00000  Uiso   1.00
H212   H     0.50921   0.09424   0.23828   0.00000  Uiso   1.00
O213   O     0.61657   0.32477   0.11688   0.00000  Uiso   1.00
C214   C     0.62608   0.31354   0.06669   0.00000  Uiso   1.00
H215   H     0.65726   0.29272   0.06521   0.00000  Uiso   1.00
H216   H     0.63095   0.34643   0.04548   0.00000  Uiso   1.00
H217   H     0.59865   0.29435   0.04685   0.00000  Uiso   1.00
O218   O     0.87823   0.18961   0.10072   0.00000  Uiso   1.00
C219   C     0.88462   0.14237   0.11486   0.00000  Uiso   1.00
H220   H     0.89168   0.13744   0.15570   0.00000  Uiso   1.00
H221   H     0.91181   0.12662   0.09301   0.00000  Uiso   1.00
H222   H     0.85358   0.12279   0.10564   0.00000  Uiso   1.00
O223   O     0.88896   0.31027   0.22802   0.00000  Uiso   1.00
C224   C     0.88012   0.28474   0.27216   0.00000  Uiso   1.00
H225   H     0.90896   0.26291   0.28513   0.00000  Uiso   1.00
H226   H     0.85022   0.26228   0.26683   0.00000  Uiso   1.00
H227   H     0.87299   0.30980   0.30254   0.00000  Uiso   1.00
O228   O     0.61329   0.17257   0.19896   0.00000  Uiso   1.00
C229   C     0.60671   0.13034   0.17243   0.00000  Uiso   1.00
H230   H     0.59615   0.13516   0.13241   0.00000  Uiso   1.00
H231   H     0.58185   0.10841   0.19175   0.00000  Uiso   1.00
H232   H     0.63859   0.11062   0.17310   0.00000  Uiso   1.00
C233   C     0.16377   0.74990   0.16550   0.00000  Uiso   1.00
C234   C     0.33591   0.74992   0.16657   0.00000  Uiso   1.00
C235   C     0.23626   0.60203   0.12477   0.00000  Uiso   1.00
C236   C     0.24862   0.89822   0.21094   0.00000  Uiso   1.00
C237   C     0.26450   0.60201   0.20841   0.00000  Uiso   1.00
C238   C     0.25199   0.89861   0.12249   0.00000  Uiso   1.00
C239   C     0.23614   0.55266   0.12459   0.00000  Uiso   1.00
C240   C     0.24641   0.94757   0.21136   0.00000  Uiso   1.00
C241   C     0.26385   0.55256   0.20937   0.00000  Uiso   1.00
C242   C     0.25396   0.94819   0.12266   0.00000  Uiso   1.00
C243   C     0.25001   0.75006   0.07295   0.00000  Uiso   1.00
C244   C     0.25003   0.74994   0.26038   0.00000  Uiso   1.00
C245   C     0.24973   0.52681   0.16715   0.00000  Uiso   1.00
C246   C     0.24985   0.97371   0.16708   0.00000  Uiso   1.00
C247   C     0.25004   0.75010   0.02182   0.00000  Uiso   1.00
C248   C     0.25004   0.74991   0.31152   0.00000  Uiso   1.00
C249   C     0.04712   0.78961   0.13584   0.00000  Uiso   1.00
C250   C     0.45008   0.72053   0.12588   0.00000  Uiso   1.00
C251   C     0.45475   0.78325   0.18840   0.00000  Uiso   1.00
C252   C     0.04468   0.71034   0.17138   0.00000  Uiso   1.00
C253   C     0.09334   0.78793   0.13754   0.00000  Uiso   1.00
C254   C     0.40411   0.71841   0.13128   0.00000  Uiso   1.00
C255   C     0.40890   0.78077   0.19420   0.00000  Uiso   1.00
C256   C     0.09126   0.70956   0.17525   0.00000  Uiso   1.00
C257   C     0.11540   0.74938   0.16011   0.00000  Uiso   1.00
C258   C     0.38373   0.74949   0.16442   0.00000  Uiso   1.00
C259   C     0.02306   0.75069   0.15276   0.00000  Uiso   1.00
C260   C     0.47507   0.75240   0.15487   0.00000  Uiso   1.00
H261   H     0.22526   0.53508   0.09070   0.00000  Uiso   1.00
H262   H     0.24251   0.96488   0.24694   0.00000  Uiso   1.00
H263   H     0.27527   0.53483   0.24313   0.00000  Uiso   1.00
H264   H     0.25923   0.96632   0.08770   0.00000  Uiso   1.00
N265   N     0.25000   0.62624   0.16667   0.00000  Uiso   1.00
N266   N     0.25000   0.87376   0.16667   0.00000  Uiso   1.00
O267   O     0.18453   0.78974   0.16667   0.00000  Uiso   1.00
O268   O     0.31547   0.71026   0.16666   0.00000  Uiso   1.00
O269   O     0.31547   0.78974   0.16666   0.00000  Uiso   1.00
O270   O     0.18453   0.71026   0.16667   0.00000  Uiso   1.00
O271   O     0.25000   0.78973   0.09511   0.00000  Uiso   1.00
O272   O     0.25000   0.71027   0.23822   0.00000  Uiso   1.00
O273   O     0.25000   0.78973   0.23822   0.00000  Uiso   1.00
O274   O     0.25000   0.71027   0.09511   0.00000  Uiso   1.00
Zn275  Zn    0.25000   0.80307   0.16667   0.00000  Uiso   1.00
Zn276  Zn    0.25000   0.69693   0.16667   0.00000  Uiso   1.00
O277   O     0.22813   0.62540   0.08019   0.00000  Uiso   1.00
C278   C     0.18186   0.62704   0.07009   0.00000  Uiso   1.00
H279   H     0.17637   0.63927   0.03094   0.00000  Uiso   1.00
H280   H     0.16591   0.65288   0.09476   0.00000  Uiso   1.00
H281   H     0.16550   0.59225   0.07345   0.00000  Uiso   1.00
O282   O     0.24863   0.87491   0.25611   0.00000  Uiso   1.00
C283   C     0.29197   0.87758   0.27769   0.00000  Uiso   1.00
H284   H     0.31783   0.86580   0.25120   0.00000  Uiso   1.00
H285   H     0.29383   0.85394   0.31072   0.00000  Uiso   1.00
H286   H     0.29948   0.91359   0.29094   0.00000  Uiso   1.00
O287   O     0.27741   0.62600   0.25104   0.00000  Uiso   1.00
C288   C     0.32419   0.62358   0.25689   0.00000  Uiso   1.00
H289   H     0.33452   0.64630   0.28867   0.00000  Uiso   1.00
H290   H     0.34120   0.63677   0.22308   0.00000  Uiso   1.00
H291   H     0.33541   0.58743   0.26604   0.00000  Uiso   1.00
O292   O     0.25517   0.87493   0.07772   0.00000  Uiso   1.00
C293   C     0.22117   0.88961   0.04366   0.00000  Uiso   1.00
H294   H     0.18944   0.89872   0.06230   0.00000  Uiso   1.00
H295   H     0.21372   0.86053   0.01743   0.00000  Uiso   1.00
H296   H     0.23272   0.91986   0.02121   0.00000  Uiso   1.00
O297   O     0.02683   0.83185   0.12339   0.00000  Uiso   1.00
C298   C     0.00348   0.82881   0.07703   0.00000  Uiso   1.00
H299   H     0.46903   0.81619   0.08307   0.00000  Uiso   1.00
H300   H     0.02025   0.80570   0.04978   0.00000  Uiso   1.00
C301   C     0.49996   0.87741   0.05403   0.00000  Uiso   1.00
H302   H     0.03373   0.89072   0.04537   0.00000  Uiso   1.00
H303   H     0.47944   0.87607   0.01894   0.00000  Uiso   1.00
H304   H     0.48386   0.90167   0.08052   0.00000  Uiso   1.00
O305   O     0.47113   0.68951   0.09447   0.00000  Uiso   1.00
C306   C     0.47278   0.70802   0.04534   0.00000  Uiso   1.00
H307   H     0.46092   0.74481   0.04135   0.00000  Uiso   1.00
H308   H     0.45117   0.68643   0.02026   0.00000  Uiso   1.00
C309   C     0.02054   0.70515   0.02746   0.00000  Uiso   1.00
H310   H     0.04385   0.72137   0.05509   0.00000  Uiso   1.00
H311   H     0.02348   0.72415   0.32482   0.00000  Uiso   1.00
H312   H     0.03031   0.66804   0.02241   0.00000  Uiso   1.00
O313   O     0.47820   0.82012   0.20990   0.00000  Uiso   1.00
C314   C     0.00090   0.80546   0.25412   0.00000  Uiso   1.00
H315   H     0.01752   0.77112   0.25007   0.00000  Uiso   1.00
H316   H     0.47740   0.80375   0.28565   0.00000  Uiso   1.00
C317   C     0.03727   0.84077   0.26688   0.00000  Uiso   1.00
H318   H     0.06162   0.84241   0.23617   0.00000  Uiso   1.00
H319   H     0.05515   0.83016   0.30196   0.00000  Uiso   1.00
H320   H     0.02248   0.87598   0.27196   0.00000  Uiso   1.00
O321   O     0.02027   0.67061   0.18263   0.00000  Uiso   1.00
C322   C     0.01050   0.66999   0.23403   0.00000  Uiso   1.00
H323   H     0.48731   0.69885   0.24318   0.00000  Uiso   1.00
H324   H     0.04149   0.67239   0.25761   0.00000  Uiso   1.00
C325   C     0.48718   0.62434   0.24648   0.00000  Uiso   1.00
H326   H     0.45579   0.62119   0.22386   0.00000  Uiso   1.00
H327   H     0.47898   0.62354   0.28683   0.00000  Uiso   1.00
H328   H     0.00921   0.59424   0.23828   0.00000  Uiso   1.00
O329   O     0.11657   0.82477   0.11688   0.00000  Uiso   1.00
C330   C     0.12608   0.81354   0.06669   0.00000  Uiso   1.00
H331   H     0.15726   0.79272   0.06521   0.00000  Uiso   1.00
H332   H     0.13095   0.84643   0.04548   0.00000  Uiso   1.00
H333   H     0.09865   0.79435   0.04685   0.00000  Uiso   1.00
O334   O     0.37823   0.68961   0.10072   0.00000  Uiso   1.00
C335   C     0.38462   0.64237   0.11486   0.00000  Uiso   1.00
H336   H     0.39168   0.63744   0.15570   0.00000  Uiso   1.00
H337   H     0.41181   0.62662   0.09301   0.00000  Uiso   1.00
H338   H     0.35358   0.62279   0.10564   0.00000  Uiso   1.00
O339   O     0.38896   0.81027   0.22802   0.00000  Uiso   1.00
C340   C     0.38012   0.78474   0.27216   0.00000  Uiso   1.00
H341   H     0.40896   0.76291   0.28513   0.00000  Uiso   1.00
H342   H     0.35022   0.76228   0.26683   0.00000  Uiso   1.00
H343   H     0.37299   0.80980   0.30254   0.00000  Uiso   1.00
O344   O     0.11329   0.67257   0.19896   0.00000  Uiso   1.00
C345   C     0.10671   0.63034   0.17243   0.00000  Uiso   1.00
H346   H     0.09615   0.63516   0.13241   0.00000  Uiso   1.00
H347   H     0.08185   0.60841   0.19175   0.00000  Uiso   1.00
H348   H     0.13859   0.61062   0.17310   0.00000  Uiso   1.00
C349   C     0.66377   0.74990   0.16550   0.00000  Uiso   1.00
C350   C     0.83591   0.74992   0.16657   0.00000  Uiso   1.00
C351   C     0.73626   0.60203   0.12477   0.00000  Uiso   1.00
C352   C     0.74862   0.89822   0.21094   0.00000  Uiso   1.00
C353   C     0.76450   0.60201   0.20841   0.00000  Uiso   1.00
C354   C     0.75199   0.89861   0.12249   0.00000  Uiso   1.00
C355   C     0.73614   0.55266   0.12459   0.00000  Uiso   1.00
C356   C     0.74641   0.94757   0.21136   0.00000  Uiso   1.00
C357   C     0.76385   0.55256   0.20937   0.00000  Uiso   1.00
C358   C     0.75396   0.94819   0.12266   0.00000  Uiso   1.00
C359   C     0.75001   0.75006   0.07295   0.00000  Uiso   1.00
C360   C     0.75003   0.74994   0.26038   0.00000  Uiso   1.00
C361   C     0.74973   0.52681   0.16715   0.00000  Uiso   1.00
C362   C     0.74985   0.97371   0.16708   0.00000  Uiso   1.00
C363   C     0.75004   0.75010   0.02182   0.00000  Uiso   1.00
C364   C     0.75004   0.74991   0.31152   0.00000  Uiso   1.00
C365   C     0.54712   0.78961   0.13584   0.00000  Uiso   1.00
C366   C     0.95008   0.72053   0.12588   0.00000  Uiso   1.00
C367   C     0.95475   0.78325   0.18840   0.00000  Uiso   1.00
C368   C     0.54468   0.71034   0.17138   0.00000  Uiso   1.00
C369   C     0.59334   0.78793   0.13754   0.00000  Uiso   1.00
C370   C     0.90411   0.71841   0.13128   0.00000  Uiso   1.00
C371   C     0.90890   0.78077   0.19420   0.00000  Uiso   1.00
C372   C     0.59126   0.70956   0.17525   0.00000  Uiso   1.00
C373   C     0.61540   0.74938   0.16011   0.00000  Uiso   1.00
C374   C     0.88373   0.74949   0.16442   0.00000  Uiso   1.00
C375   C     0.52306   0.75069   0.15276   0.00000  Uiso   1.00
C376   C     0.97507   0.75240   0.15487   0.00000  Uiso   1.00
H377   H     0.72526   0.53508   0.09070   0.00000  Uiso   1.00
H378   H     0.74251   0.96488   0.24694   0.00000  Uiso   1.00
H379   H     0.77527   0.53483   0.24313   0.00000  Uiso   1.00
H380   H     0.75923   0.96632   0.08770   0.00000  Uiso   1.00
N381   N     0.75000   0.62624   0.16667   0.00000  Uiso   1.00
N382   N     0.75000   0.87376   0.16667   0.00000  Uiso   1.00
O383   O     0.68453   0.78974   0.16667   0.00000  Uiso   1.00
O384   O     0.81547   0.71026   0.16666   0.00000  Uiso   1.00
O385   O     0.81547   0.78974   0.16666   0.00000  Uiso   1.00
O386   O     0.68453   0.71026   0.16667   0.00000  Uiso   1.00
O387   O     0.75000   0.78973   0.09511   0.00000  Uiso   1.00
O388   O     0.75000   0.71027   0.23822   0.00000  Uiso   1.00
O389   O     0.75000   0.78973   0.23822   0.00000  Uiso   1.00
O390   O     0.75000   0.71027   0.09511   0.00000  Uiso   1.00
Zn391  Zn    0.75000   0.80307   0.16667   0.00000  Uiso   1.00
Zn392  Zn    0.75000   0.69693   0.16667   0.00000  Uiso   1.00
O393   O     0.72813   0.62540   0.08019   0.00000  Uiso   1.00
C394   C     0.68186   0.62704   0.07009   0.00000  Uiso   1.00
H395   H     0.67637   0.63927   0.03094   0.00000  Uiso   1.00
H396   H     0.66591   0.65288   0.09476   0.00000  Uiso   1.00
H397   H     0.66550   0.59225   0.07345   0.00000  Uiso   1.00
O398   O     0.74863   0.87491   0.25611   0.00000  Uiso   1.00
C399   C     0.79197   0.87758   0.27769   0.00000  Uiso   1.00
H400   H     0.81783   0.86580   0.25120   0.00000  Uiso   1.00
H401   H     0.79383   0.85394   0.31072   0.00000  Uiso   1.00
H402   H     0.79948   0.91359   0.29094   0.00000  Uiso   1.00
O403   O     0.77741   0.62600   0.25104   0.00000  Uiso   1.00
C404   C     0.82419   0.62358   0.25689   0.00000  Uiso   1.00
H405   H     0.83452   0.64630   0.28867   0.00000  Uiso   1.00
H406   H     0.84120   0.63677   0.22308   0.00000  Uiso   1.00
H407   H     0.83541   0.58743   0.26604   0.00000  Uiso   1.00
O408   O     0.75517   0.87493   0.07772   0.00000  Uiso   1.00
C409   C     0.72117   0.88961   0.04366   0.00000  Uiso   1.00
H410   H     0.68944   0.89872   0.06230   0.00000  Uiso   1.00
H411   H     0.71372   0.86053   0.01743   0.00000  Uiso   1.00
H412   H     0.73272   0.91986   0.02121   0.00000  Uiso   1.00
O413   O     0.52683   0.83185   0.12339   0.00000  Uiso   1.00
C414   C     0.50348   0.82881   0.07703   0.00000  Uiso   1.00
H415   H     0.96903   0.81619   0.08307   0.00000  Uiso   1.00
H416   H     0.52025   0.80570   0.04978   0.00000  Uiso   1.00
C417   C     0.99996   0.87741   0.05403   0.00000  Uiso   1.00
H418   H     0.53373   0.89072   0.04537   0.00000  Uiso   1.00
H419   H     0.97944   0.87607   0.01894   0.00000  Uiso   1.00
H420   H     0.98386   0.90167   0.08052   0.00000  Uiso   1.00
O421   O     0.97113   0.68951   0.09447   0.00000  Uiso   1.00
C422   C     0.97278   0.70802   0.04534   0.00000  Uiso   1.00
H423   H     0.96092   0.74481   0.04135   0.00000  Uiso   1.00
H424   H     0.95117   0.68643   0.02026   0.00000  Uiso   1.00
C425   C     0.52054   0.70515   0.02746   0.00000  Uiso   1.00
H426   H     0.54385   0.72137   0.05509   0.00000  Uiso   1.00
H427   H     0.52348   0.72415   0.32482   0.00000  Uiso   1.00
H428   H     0.53031   0.66804   0.02241   0.00000  Uiso   1.00
O429   O     0.97820   0.82012   0.20990   0.00000  Uiso   1.00
C430   C     0.50090   0.80546   0.25412   0.00000  Uiso   1.00
H431   H     0.51752   0.77112   0.25007   0.00000  Uiso   1.00
H432   H     0.97740   0.80375   0.28565   0.00000  Uiso   1.00
C433   C     0.53727   0.84077   0.26688   0.00000  Uiso   1.00
H434   H     0.56162   0.84241   0.23617   0.00000  Uiso   1.00
H435   H     0.55515   0.83016   0.30196   0.00000  Uiso   1.00
H436   H     0.52248   0.87598   0.27196   0.00000  Uiso   1.00
O437   O     0.52027   0.67061   0.18263   0.00000  Uiso   1.00
C438   C     0.51050   0.66999   0.23403   0.00000  Uiso   1.00
H439   H     0.98731   0.69885   0.24318   0.00000  Uiso   1.00
H440   H     0.54149   0.67239   0.25761   0.00000  Uiso   1.00
C441   C     0.98718   0.62434   0.24648   0.00000  Uiso   1.00
H442   H     0.95579   0.62119   0.22386   0.00000  Uiso   1.00
H443   H     0.97898   0.62354   0.28683   0.00000  Uiso   1.00
H444   H     0.50921   0.59424   0.23828   0.00000  Uiso   1.00
O445   O     0.61657   0.82477   0.11688   0.00000  Uiso   1.00
C446   C     0.62608   0.81354   0.06669   0.00000  Uiso   1.00
H447   H     0.65726   0.79272   0.06521   0.00000  Uiso   1.00
H448   H     0.63095   0.84643   0.04548   0.00000  Uiso   1.00
H449   H     0.59865   0.79435   0.04685   0.00000  Uiso   1.00
O450   O     0.87823   0.68961   0.10072   0.00000  Uiso   1.00
C451   C     0.88462   0.64237   0.11486   0.00000  Uiso   1.00
H452   H     0.89168   0.63744   0.15570   0.00000  Uiso   1.00
H453   H     0.91181   0.62662   0.09301   0.00000  Uiso   1.00
H454   H     0.85358   0.62279   0.10564   0.00000  Uiso   1.00
O455   O     0.88896   0.81027   0.22802   0.00000  Uiso   1.00
C456   C     0.88012   0.78474   0.27216   0.00000  Uiso   1.00
H457   H     0.90896   0.76291   0.28513   0.00000  Uiso   1.00
H458   H     0.85022   0.76228   0.26683   0.00000  Uiso   1.00
H459   H     0.87299   0.80980   0.30254   0.00000  Uiso   1.00
O460   O     0.61329   0.67257   0.19896   0.00000  Uiso   1.00
C461   C     0.60671   0.63034   0.17243   0.00000  Uiso   1.00
H462   H     0.59615   0.63516   0.13241   0.00000  Uiso   1.00
H463   H     0.58185   0.60841   0.19175   0.00000  Uiso   1.00
H464   H     0.63859   0.61062   0.17310   0.00000  Uiso   1.00
C465   C     0.16377   0.24990   0.49883   0.00000  Uiso   1.00
C466   C     0.33591   0.24992   0.49990   0.00000  Uiso   1.00
C467   C     0.23626   0.10203   0.45810   0.00000  Uiso   1.00
C468   C     0.24862   0.39822   0.54427   0.00000  Uiso   1.00
C469   C     0.26450   0.10201   0.54175   0.00000  Uiso   1.00
C470   C     0.25199   0.39861   0.45582   0.00000  Uiso   1.00
C471   C     0.23614   0.05266   0.45793   0.00000  Uiso   1.00
C472   C     0.24641   0.44757   0.54470   0.00000  Uiso   1.00
C473   C     0.26385   0.05256   0.54270   0.00000  Uiso   1.00
C474   C     0.25396   0.44819   0.45599   0.00000  Uiso   1.00
C475   C     0.25001   0.25006   0.40629   0.00000  Uiso   1.00
C476   C     0.25003   0.24994   0.59371   0.00000  Uiso   1.00
C477   C     0.24973   0.02681   0.50048   0.00000  Uiso   1.00
C478   C     0.24985   0.47371   0.50042   0.00000  Uiso   1.00
C479   C     0.25004   0.25010   0.35515   0.00000  Uiso   1.00
C480   C     0.25004   0.24991   0.64485   0.00000  Uiso   1.00
C481   C     0.04712   0.28961   0.46917   0.00000  Uiso   1.00
C482   C     0.45008   0.22053   0.45922   0.00000  Uiso   1.00
C483   C     0.45475   0.28325   0.52174   0.00000  Uiso   1.00
C484   C     0.04468   0.21034   0.50471   0.00000  Uiso   1.00
C485   C     0.09334   0.28793   0.47088   0.00000  Uiso   1.00
C486   C     0.40411   0.21841   0.46462   0.00000  Uiso   1.00
C487   C     0.40890   0.28077   0.52753   0.00000  Uiso   1.00
C488   C     0.09126   0.20956   0.50858   0.00000  Uiso   1.00
C489   C     0.11540   0.24938   0.49344   0.00000  Uiso   1.00
C490   C     0.38373   0.24949   0.49775   0.00000  Uiso   1.00
C491   C     0.02306   0.25069   0.48609   0.00000  Uiso   1.00
C492   C     0.47507   0.25240   0.48820   0.00000  Uiso   1.00
H493   H     0.22526   0.03508   0.42403   0.00000  Uiso   1.00
H494   H     0.24251   0.46488   0.58028   0.00000  Uiso   1.00
H495   H     0.27527   0.03483   0.57646   0.00000  Uiso   1.00
H496   H     0.25923   0.46632   0.42103   0.00000  Uiso   1.00
N497   N     0.25000   0.12624   0.50000   0.00000  Uiso   1.00
N498   N     0.25000   0.37376   0.50000   0.00000  Uiso   1.00
O499   O     0.18453   0.28974   0.50000   0.00000  Uiso   1.00
O500   O     0.31547   0.21026   0.50000   0.00000  Uiso   1.00
O501   O     0.31547   0.28974   0.50000   0.00000  Uiso   1.00
O502   O     0.18453   0.21026   0.50000   0.00000  Uiso   1.00
O503   O     0.25000   0.28973   0.42845   0.00000  Uiso   1.00
O504   O     0.25000   0.21027   0.57155   0.00000  Uiso   1.00
O505   O     0.25000   0.28973   0.57155   0.00000  Uiso   1.00
O506   O     0.25000   0.21027   0.42845   0.00000  Uiso   1.00
Zn507  Zn    0.25000   0.30307   0.50000   0.00000  Uiso   1.00
Zn508  Zn    0.25000   0.19693   0.50000   0.00000  Uiso   1.00
O509   O     0.22813   0.12540   0.41352   0.00000  Uiso   1.00
C510   C     0.18186   0.12704   0.40342   0.00000  Uiso   1.00
H511   H     0.17637   0.13927   0.36427   0.00000  Uiso   1.00
H512   H     0.16591   0.15288   0.42809   0.00000  Uiso   1.00
H513   H     0.16550   0.09225   0.40678   0.00000  Uiso   1.00
O514   O     0.24863   0.37491   0.58944   0.00000  Uiso   1.00
C515   C     0.29197   0.37758   0.61102   0.00000  Uiso   1.00
H516   H     0.31783   0.36580   0.58454   0.00000  Uiso   1.00
H517   H     0.29383   0.35394   0.64406   0.00000  Uiso   1.00
H518   H     0.29948   0.41359   0.62427   0.00000  Uiso   1.00
O519   O     0.27741   0.12600   0.58437   0.00000  Uiso   1.00
C520   C     0.32419   0.12358   0.59023   0.00000  Uiso   1.00
H521   H     0.33452   0.14630   0.62201   0.00000  Uiso   1.00
H522   H     0.34120   0.13677   0.55641   0.00000  Uiso   1.00
H523   H     0.33541   0.08743   0.59937   0.00000  Uiso   1.00
O524   O     0.25517   0.37493   0.41106   0.00000  Uiso   1.00
C525   C     0.22117   0.38961   0.37699   0.00000  Uiso   1.00
H526   H     0.18944   0.39872   0.39563   0.00000  Uiso   1.00
H527   H     0.21372   0.36053   0.35077   0.00000  Uiso   1.00
H528   H     0.23272   0.41986   0.35455   0.00000  Uiso   1.00
O529   O     0.02683   0.33185   0.45672   0.00000  Uiso   1.00
C530   C     0.00348   0.32881   0.41036   0.00000  Uiso   1.00
H531   H     0.46903   0.31619   0.41640   0.00000  Uiso   1.00
H532   H     0.02025   0.30570   0.38311   0.00000  Uiso   1.00
C533   C     0.49996   0.37741   0.38736   0.00000  Uiso   1.00
H534   H     0.03373   0.39072   0.37870   0.00000  Uiso   1.00
H535   H     0.47944   0.37607   0.35227   0.00000  Uiso   1.00
H536   H     0.48386   0.40167   0.41385   0.00000  Uiso   1.00
O537   O     0.47113   0.18951   0.42780   0.00000  Uiso   1.00
C538   C     0.47278   0.20802   0.37867   0.00000  Uiso   1.00
H539   H     0.46092   0.24481   0.37468   0.00000  Uiso   1.00
H540   H     0.45117   0.18643   0.35359   0.00000  Uiso   1.00
C541   C     0.02054   0.20515   0.36079   0.00000  Uiso   1.00
H542   H     0.04385   0.22137   0.38843   0.00000  Uiso   1.00
H543   H     0.02348   0.22415   0.65815   0.00000  Uiso   1.00
H544   H     0.03031   0.16804   0.35574   0.00000  Uiso   1.00
O545   O     0.47820   0.32012   0.54323   0.00000  Uiso   1.00
C546   C     0.00090   0.30546   0.58745   0.00000  Uiso   1.00
H547   H     0.01752   0.27112   0.58341   0.00000  Uiso   1.00
H548   H     0.47740   0.30375   0.61898   0.00000  Uiso   1.00
C549   C     0.03727   0.34077   0.60021   0.00000  Uiso   1.00
H550   H     0.06162   0.34241   0.56950   0.00000  Uiso   1.00
H551   H     0.05515   0.33016   0.63529   0.00000  Uiso   1.00
H552   H     0.02248   0.37598   0.60529   0.00000  Uiso   1.00
O553   O     0.02027   0.17061   0.51597   0.00000  Uiso   1.00
C554   C     0.01050   0.16999   0.56736   0.00000  Uiso   1.00
H555   H     0.48731   0.19885   0.57651   0.00000  Uiso   1.00
H556   H     0.04149   0.17239   0.59094   0.00000  Uiso   1.00
C557   C     0.48718   0.12434   0.57981   0.00000  Uiso   1.00
H558   H     0.45579   0.12119   0.55719   0.00000  Uiso   1.00
H559   H     0.47898   0.12354   0.62017   0.00000  Uiso   1.00
H560   H     0.00921   0.09424   0.57161   0.00000  Uiso   1.00
O561   O     0.11657   0.32477   0.45021   0.00000  Uiso   1.00
C562   C     0.12608   0.31354   0.40002   0.00000  Uiso   1.00
H563   H     0.15726   0.29272   0.39854   0.00000  Uiso   1.00
H564   H     0.13095   0.34643   0.37881   0.00000  Uiso   1.00
H565   H     0.09865   0.29435   0.38018   0.00000  Uiso   1.00
O566   O     0.37823   0.18961   0.43405   0.00000  Uiso   1.00
C567   C     0.38462   0.14237   0.44819   0.00000  Uiso   1.00
H568   H     0.39168   0.13744   0.48904   0.00000  Uiso   1.00
H569   H     0.41181   0.12662   0.42634   0.00000  Uiso   1.00
H570   H     0.35358   0.12279   0.43898   0.00000  Uiso   1.00
O571   O     0.38896   0.31027   0.56136   0.00000  Uiso   1.00
C572   C     0.38012   0.28474   0.60549   0.00000  Uiso   1.00
H573   H     0.40896   0.26291   0.61846   0.00000  Uiso   1.00
H574   H     0.35022   0.26228   0.60016   0.00000  Uiso   1.00
H575   H     0.37299   0.30980   0.63588   0.00000  Uiso   1.00
O576   O     0.11329   0.17257   0.53229   0.00000  Uiso   1.00
C577   C     0.10671   0.13034   0.50576   0.00000  Uiso   1.00
H578   H     0.09615   0.13516   0.46574   0.00000  Uiso   1.00
H579   H     0.08185   0.10841   0.52509   0.00000  Uiso   1.00
H580   H     0.13859   0.11062   0.50644   0.00000  Uiso   1.00
C581   C     0.66377   0.24990   0.49883   0.00000  Uiso   1.00
C582   C     0.83591   0.24992   0.49990   0.00000  Uiso   1.00
C583   C     0.73626   0.10203   0.45810   0.00000  Uiso   1.00
C584   C     0.74862   0.39822   0.54427   0.00000  Uiso   1.00
C585   C     0.76450   0.10201   0.54175   0.00000  Uiso   1.00
C586   C     0.75199   0.39861   0.45582   0.00000  Uiso   1.00
C587   C     0.73614   0.05266   0.45793   0.00000  Uiso   1.00
C588   C     0.74641   0.44757   0.54470   0.00000  Uiso   1.00
C589   C     0.76385   0.05256   0.54270   0.00000  Uiso   1.00
C590   C     0.75396   0.44819   0.45599   0.00000  Uiso   1.00
C591   C     0.75001   0.25006   0.40629   0.00000  Uiso   1.00
C592   C     0.75003   0.24994   0.59371   0.00000  Uiso   1.00
C593   C     0.74973   0.02681   0.50048   0.00000  Uiso   1.00
C594   C     0.74985   0.47371   0.50042   0.00000  Uiso   1.00
C595   C     0.75004   0.25010   0.35515   0.00000  Uiso   1.00
C596   C     0.75004   0.24991   0.64485   0.00000  Uiso   1.00
C597   C     0.54712   0.28961   0.46917   0.00000  Uiso   1.00
C598   C     0.95008   0.22053   0.45922   0.00000  Uiso   1.00
C599   C     0.95475   0.28325   0.52174   0.00000  Uiso   1.00
C600   C     0.54468   0.21034   0.50471   0.00000  Uiso   1.00
C601   C     0.59334   0.28793   0.47088   0.00000  Uiso   1.00
C602   C     0.90411   0.21841   0.46462   0.00000  Uiso   1.00
C603   C     0.90890   0.28077   0.52753   0.00000  Uiso   1.00
C604   C     0.59126   0.20956   0.50858   0.00000  Uiso   1.00
C605   C     0.61540   0.24938   0.49344   0.00000  Uiso   1.00
C606   C     0.88373   0.24949   0.49775   0.00000  Uiso   1.00
C607   C     0.52306   0.25069   0.48609   0.00000  Uiso   1.00
C608   C     0.97507   0.25240   0.48820   0.00000  Uiso   1.00
H609   H     0.72526   0.03508   0.42403   0.00000  Uiso   1.00
H610   H     0.74251   0.46488   0.58028   0.00000  Uiso   1.00
H611   H     0.77527   0.03483   0.57646   0.00000  Uiso   1.00
H612   H     0.75923   0.46632   0.42103   0.00000  Uiso   1.00
N613   N     0.75000   0.12624   0.50000   0.00000  Uiso   1.00
N614   N     0.75000   0.37376   0.50000   0.00000  Uiso   1.00
O615   O     0.68453   0.28974   0.50000   0.00000  Uiso   1.00
O616   O     0.81547   0.21026   0.50000   0.00000  Uiso   1.00
O617   O     0.81547   0.28974   0.50000   0.00000  Uiso   1.00
O618   O     0.68453   0.21026   0.50000   0.00000  Uiso   1.00
O619   O     0.75000   0.28973   0.42845   0.00000  Uiso   1.00
O620   O     0.75000   0.21027   0.57155   0.00000  Uiso   1.00
O621   O     0.75000   0.28973   0.57155   0.00000  Uiso   1.00
O622   O     0.75000   0.21027   0.42845   0.00000  Uiso   1.00
Zn623  Zn    0.75000   0.30307   0.50000   0.00000  Uiso   1.00
Zn624  Zn    0.75000   0.19693   0.50000   0.00000  Uiso   1.00
O625   O     0.72813   0.12540   0.41352   0.00000  Uiso   1.00
C626   C     0.68186   0.12704   0.40342   0.00000  Uiso   1.00
H627   H     0.67637   0.13927   0.36427   0.00000  Uiso   1.00
H628   H     0.66591   0.15288   0.42809   0.00000  Uiso   1.00
H629   H     0.66550   0.09225   0.40678   0.00000  Uiso   1.00
O630   O     0.74863   0.37491   0.58944   0.00000  Uiso   1.00
C631   C     0.79197   0.37758   0.61102   0.00000  Uiso   1.00
H632   H     0.81783   0.36580   0.58454   0.00000  Uiso   1.00
H633   H     0.79383   0.35394   0.64406   0.00000  Uiso   1.00
H634   H     0.79948   0.41359   0.62427   0.00000  Uiso   1.00
O635   O     0.77741   0.12600   0.58437   0.00000  Uiso   1.00
C636   C     0.82419   0.12358   0.59023   0.00000  Uiso   1.00
H637   H     0.83452   0.14630   0.62201   0.00000  Uiso   1.00
H638   H     0.84120   0.13677   0.55641   0.00000  Uiso   1.00
H639   H     0.83541   0.08743   0.59937   0.00000  Uiso   1.00
O640   O     0.75517   0.37493   0.41106   0.00000  Uiso   1.00
C641   C     0.72117   0.38961   0.37699   0.00000  Uiso   1.00
H642   H     0.68944   0.39872   0.39563   0.00000  Uiso   1.00
H643   H     0.71372   0.36053   0.35077   0.00000  Uiso   1.00
H644   H     0.73272   0.41986   0.35455   0.00000  Uiso   1.00
O645   O     0.52683   0.33185   0.45672   0.00000  Uiso   1.00
C646   C     0.50348   0.32881   0.41036   0.00000  Uiso   1.00
H647   H     0.96903   0.31619   0.41640   0.00000  Uiso   1.00
H648   H     0.52025   0.30570   0.38311   0.00000  Uiso   1.00
C649   C     0.99996   0.37741   0.38736   0.00000  Uiso   1.00
H650   H     0.53373   0.39072   0.37870   0.00000  Uiso   1.00
H651   H     0.97944   0.37607   0.35227   0.00000  Uiso   1.00
H652   H     0.98386   0.40167   0.41385   0.00000  Uiso   1.00
O653   O     0.97113   0.18951   0.42780   0.00000  Uiso   1.00
C654   C     0.97278   0.20802   0.37867   0.00000  Uiso   1.00
H655   H     0.96092   0.24481   0.37468   0.00000  Uiso   1.00
H656   H     0.95117   0.18643   0.35359   0.00000  Uiso   1.00
C657   C     0.52054   0.20515   0.36079   0.00000  Uiso   1.00
H658   H     0.54385   0.22137   0.38843   0.00000  Uiso   1.00
H659   H     0.52348   0.22415   0.65815   0.00000  Uiso   1.00
H660   H     0.53031   0.16804   0.35574   0.00000  Uiso   1.00
O661   O     0.97820   0.32012   0.54323   0.00000  Uiso   1.00
C662   C     0.50090   0.30546   0.58745   0.00000  Uiso   1.00
H663   H     0.51752   0.27112   0.58341   0.00000  Uiso   1.00
H664   H     0.97740   0.30375   0.61898   0.00000  Uiso   1.00
C665   C     0.53727   0.34077   0.60021   0.00000  Uiso   1.00
H666   H     0.56162   0.34241   0.56950   0.00000  Uiso   1.00
H667   H     0.55515   0.33016   0.63529   0.00000  Uiso   1.00
H668   H     0.52248   0.37598   0.60529   0.00000  Uiso   1.00
O669   O     0.52027   0.17061   0.51597   0.00000  Uiso   1.00
C670   C     0.51050   0.16999   0.56736   0.00000  Uiso   1.00
H671   H     0.98731   0.19885   0.57651   0.00000  Uiso   1.00
H672   H     0.54149   0.17239   0.59094   0.00000  Uiso   1.00
C673   C     0.98718   0.12434   0.57981   0.00000  Uiso   1.00
H674   H     0.95579   0.12119   0.55719   0.00000  Uiso   1.00
H675   H     0.97898   0.12354   0.62017   0.00000  Uiso   1.00
H676   H     0.50921   0.09424   0.57161   0.00000  Uiso   1.00
O677   O     0.61657   0.32477   0.45021   0.00000  Uiso   1.00
C678   C     0.62608   0.31354   0.40002   0.00000  Uiso   1.00
H679   H     0.65726   0.29272   0.39854   0.00000  Uiso   1.00
H680   H     0.63095   0.34643   0.37881   0.00000  Uiso   1.00
H681   H     0.59865   0.29435   0.38018   0.00000  Uiso   1.00
O682   O     0.87823   0.18961   0.43405   0.00000  Uiso   1.00
C683   C     0.88462   0.14237   0.44819   0.00000  Uiso   1.00
H684   H     0.89168   0.13744   0.48904   0.00000  Uiso   1.00
H685   H     0.91181   0.12662   0.42634   0.00000  Uiso   1.00
H686   H     0.85358   0.12279   0.43898   0.00000  Uiso   1.00
O687   O     0.88896   0.31027   0.56136   0.00000  Uiso   1.00
C688   C     0.88012   0.28474   0.60549   0.00000  Uiso   1.00
H689   H     0.90896   0.26291   0.61846   0.00000  Uiso   1.00
H690   H     0.85022   0.26228   0.60016   0.00000  Uiso   1.00
H691   H     0.87299   0.30980   0.63588   0.00000  Uiso   1.00
O692   O     0.61329   0.17257   0.53229   0.00000  Uiso   1.00
C693   C     0.60671   0.13034   0.50576   0.00000  Uiso   1.00
H694   H     0.59615   0.13516   0.46574   0.00000  Uiso   1.00
H695   H     0.58185   0.10841   0.52509   0.00000  Uiso   1.00
H696   H     0.63859   0.11062   0.50644   0.00000  Uiso   1.00
C697   C     0.16377   0.74990   0.49883   0.00000  Uiso   1.00
C698   C     0.33591   0.74992   0.49990   0.00000  Uiso   1.00
C699   C     0.23626   0.60203   0.45810   0.00000  Uiso   1.00
C700   C     0.24862   0.89822   0.54427   0.00000  Uiso   1.00
C701   C     0.26450   0.60201   0.54175   0.00000  Uiso   1.00
C702   C     0.25199   0.89861   0.45582   0.00000  Uiso   1.00
C703   C     0.23614   0.55266   0.45793   0.00000  Uiso   1.00
C704   C     0.24641   0.94757   0.54470   0.00000  Uiso   1.00
C705   C     0.26385   0.55256   0.54270   0.00000  Uiso   1.00
C706   C     0.25396   0.94819   0.45599   0.00000  Uiso   1.00
C707   C     0.25001   0.75006   0.40629   0.00000  Uiso   1.00
C708   C     0.25003   0.74994   0.59371   0.00000  Uiso   1.00
C709   C     0.24973   0.52681   0.50048   0.00000  Uiso   1.00
C710   C     0.24985   0.97371   0.50042   0.00000  Uiso   1.00
C711   C     0.25004   0.75010   0.35515   0.00000  Uiso   1.00
C712   C     0.25004   0.74991   0.64485   0.00000  Uiso   1.00
C713   C     0.04712   0.78961   0.46917   0.00000  Uiso   1.00
C714   C     0.45008   0.72053   0.45922   0.00000  Uiso   1.00
C715   C     0.45475   0.78325   0.52174   0.00000  Uiso   1.00
C716   C     0.04468   0.71034   0.50471   0.00000  Uiso   1.00
C717   C     0.09334   0.78793   0.47088   0.00000  Uiso   1.00
C718   C     0.40411   0.71841   0.46462   0.00000  Uiso   1.00
C719   C     0.40890   0.78077   0.52753   0.00000  Uiso   1.00
C720   C     0.09126   0.70956   0.50858   0.00000  Uiso   1.00
C721   C     0.11540   0.74938   0.49344   0.00000  Uiso   1.00
C722   C     0.38373   0.74949   0.49775   0.00000  Uiso   1.00
C723   C     0.02306   0.75069   0.48609   0.00000  Uiso   1.00
C724   C     0.47507   0.75240   0.48820   0.00000  Uiso   1.00
H725   H     0.22526   0.53508   0.42403   0.00000  Uiso   1.00
H726   H     0.24251   0.96488   0.58028   0.00000  Uiso   1.00
H727   H     0.27527   0.53483   0.57646   0.00000  Uiso   1.00
H728   H     0.25923   0.96632   0.42103   0.00000  Uiso   1.00
N729   N     0.25000   0.62624   0.50000   0.00000  Uiso   1.00
N730   N     0.25000   0.87376   0.50000   0.00000  Uiso   1.00
O731   O     0.18453   0.78974   0.50000   0.00000  Uiso   1.00
O732   O     0.31547   0.71026   0.50000   0.00000  Uiso   1.00
O733   O     0.31547   0.78974   0.50000   0.00000  Uiso   1.00
O734   O     0.18453   0.71026   0.50000   0.00000  Uiso   1.00
O735   O     0.25000   0.78973   0.42845   0.00000  Uiso   1.00
O736   O     0.25000   0.71027   0.57155   0.00000  Uiso   1.00
O737   O     0.25000   0.78973   0.57155   0.00000  Uiso   1.00
O738   O     0.25000   0.71027   0.42845   0.00000  Uiso   1.00
Zn739  Zn    0.25000   0.80307   0.50000   0.00000  Uiso   1.00
Zn740  Zn    0.25000   0.69693   0.50000   0.00000  Uiso   1.00
O741   O     0.22813   0.62540   0.41352   0.00000  Uiso   1.00
C742   C     0.18186   0.62704   0.40342   0.00000  Uiso   1.00
H743   H     0.17637   0.63927   0.36427   0.00000  Uiso   1.00
H744   H     0.16591   0.65288   0.42809   0.00000  Uiso   1.00
H745   H     0.16550   0.59225   0.40678   0.00000  Uiso   1.00
O746   O     0.24863   0.87491   0.58944   0.00000  Uiso   1.00
C747   C     0.29197   0.87758   0.61102   0.00000  Uiso   1.00
H748   H     0.31783   0.86580   0.58454   0.00000  Uiso   1.00
H749   H     0.29383   0.85394   0.64406   0.00000  Uiso   1.00
H750   H     0.29948   0.91359   0.62427   0.00000  Uiso   1.00
O751   O     0.27741   0.62600   0.58437   0.00000  Uiso   1.00
C752   C     0.32419   0.62358   0.59023   0.00000  Uiso   1.00
H753   H     0.33452   0.64630   0.62201   0.00000  Uiso   1.00
H754   H     0.34120   0.63677   0.55641   0.00000  Uiso   1.00
H755   H     0.33541   0.58743   0.59937   0.00000  Uiso   1.00
O756   O     0.25517   0.87493   0.41106   0.00000  Uiso   1.00
C757   C     0.22117   0.88961   0.37699   0.00000  Uiso   1.00
H758   H     0.18944   0.89872   0.39563   0.00000  Uiso   1.00
H759   H     0.21372   0.86053   0.35077   0.00000  Uiso   1.00
H760   H     0.23272   0.91986   0.35455   0.00000  Uiso   1.00
O761   O     0.02683   0.83185   0.45672   0.00000  Uiso   1.00
C762   C     0.00348   0.82881   0.41036   0.00000  Uiso   1.00
H763   H     0.46903   0.81619   0.41640   0.00000  Uiso   1.00
H764   H     0.02025   0.80570   0.38311   0.00000  Uiso   1.00
C765   C     0.49996   0.87741   0.38736   0.00000  Uiso   1.00
H766   H     0.03373   0.89072   0.37870   0.00000  Uiso   1.00
H767   H     0.47944   0.87607   0.35227   0.00000  Uiso   1.00
H768   H     0.48386   0.90167   0.41385   0.00000  Uiso   1.00
O769   O     0.47113   0.68951   0.42780   0.00000  Uiso   1.00
C770   C     0.47278   0.70802   0.37867   0.00000  Uiso   1.00
H771   H     0.46092   0.74481   0.37468   0.00000  Uiso   1.00
H772   H     0.45117   0.68643   0.35359   0.00000  Uiso   1.00
C773   C     0.02054   0.70515   0.36079   0.00000  Uiso   1.00
H774   H     0.04385   0.72137   0.38843   0.00000  Uiso   1.00
H775   H     0.02348   0.72415   0.65815   0.00000  Uiso   1.00
H776   H     0.03031   0.66804   0.35574   0.00000  Uiso   1.00
O777   O     0.47820   0.82012   0.54323   0.00000  Uiso   1.00
C778   C     0.00090   0.80546   0.58745   0.00000  Uiso   1.00
H779   H     0.01752   0.77112   0.58341   0.00000  Uiso   1.00
H780   H     0.47740   0.80375   0.61898   0.00000  Uiso   1.00
C781   C     0.03727   0.84077   0.60021   0.00000  Uiso   1.00
H782   H     0.06162   0.84241   0.56950   0.00000  Uiso   1.00
H783   H     0.05515   0.83016   0.63529   0.00000  Uiso   1.00
H784   H     0.02248   0.87598   0.60529   0.00000  Uiso   1.00
O785   O     0.02027   0.67061   0.51597   0.00000  Uiso   1.00
C786   C     0.01050   0.66999   0.56736   0.00000  Uiso   1.00
H787   H     0.48731   0.69885   0.57651   0.00000  Uiso   1.00
H788   H     0.04149   0.67239   0.59094   0.00000  Uiso   1.00
C789   C     0.48718   0.62434   0.57981   0.00000  Uiso   1.00
H790   H     0.45579   0.62119   0.55719   0.00000  Uiso   1.00
H791   H     0.47898   0.62354   0.62017   0.00000  Uiso   1.00
H792   H     0.00921   0.59424   0.57161   0.00000  Uiso   1.00
O793   O     0.11657   0.82477   0.45021   0.00000  Uiso   1.00
C794   C     0.12608   0.81354   0.40002   0.00000  Uiso   1.00
H795   H     0.15726   0.79272   0.39854   0.00000  Uiso   1.00
H796   H     0.13095   0.84643   0.37881   0.00000  Uiso   1.00
H797   H     0.09865   0.79435   0.38018   0.00000  Uiso   1.00
O798   O     0.37823   0.68961   0.43405   0.00000  Uiso   1.00
C799   C     0.38462   0.64237   0.44819   0.00000  Uiso   1.00
H800   H     0.39168   0.63744   0.48904   0.00000  Uiso   1.00
H801   H     0.41181   0.62662   0.42634   0.00000  Uiso   1.00
H802   H     0.35358   0.62279   0.43898   0.00000  Uiso   1.00
O803   O     0.38896   0.81027   0.56136   0.00000  Uiso   1.00
C804   C     0.38012   0.78474   0.60549   0.00000  Uiso   1.00
H805   H     0.40896   0.76291   0.61846   0.00000  Uiso   1.00
H806   H     0.35022   0.76228   0.60016   0.00000  Uiso   1.00
H807   H     0.37299   0.80980   0.63588   0.00000  Uiso   1.00
O808   O     0.11329   0.67257   0.53229   0.00000  Uiso   1.00
C809   C     0.10671   0.63034   0.50576   0.00000  Uiso   1.00
H810   H     0.09615   0.63516   0.46574   0.00000  Uiso   1.00
H811   H     0.08185   0.60841   0.52509   0.00000  Uiso   1.00
H812   H     0.13859   0.61062   0.50644   0.00000  Uiso   1.00
C813   C     0.66377   0.74990   0.49883   0.00000  Uiso   1.00
C814   C     0.83591   0.74992   0.49990   0.00000  Uiso   1.00
C815   C     0.73626   0.60203   0.45810   0.00000  Uiso   1.00
C816   C     0.74862   0.89822   0.54427   0.00000  Uiso   1.00
C817   C     0.76450   0.60201   0.54175   0.00000  Uiso   1.00
C818   C     0.75199   0.89861   0.45582   0.00000  Uiso   1.00
C819   C     0.73614   0.55266   0.45793   0.00000  Uiso   1.00
C820   C     0.74641   0.94757   0.54470   0.00000  Uiso   1.00
C821   C     0.76385   0.55256   0.54270   0.00000  Uiso   1.00
C822   C     0.75396   0.94819   0.45599   0.00000  Uiso   1.00
C823   C     0.75001   0.75006   0.40629   0.00000  Uiso   1.00
C824   C     0.75003   0.74994   0.59371   0.00000  Uiso   1.00
C825   C     0.74973   0.52681   0.50048   0.00000  Uiso   1.00
C826   C     0.74985   0.97371   0.50042   0.00000  Uiso   1.00
C827   C     0.75004   0.75010   0.35515   0.00000  Uiso   1.00
C828   C     0.75004   0.74991   0.64485   0.00000  Uiso   1.00
C829   C     0.54712   0.78961   0.46917   0.00000  Uiso   1.00
C830   C     0.95008   0.72053   0.45922   0.00000  Uiso   1.00
C831   C     0.95475   0.78325   0.52174   0.00000  Uiso   1.00
C832   C     0.54468   0.71034   0.50471   0.00000  Uiso   1.00
C833   C     0.59334   0.78793   0.47088   0.00000  Uiso   1.00
C834   C     0.90411   0.71841   0.46462   0.00000  Uiso   1.00
C835   C     0.90890   0.78077   0.52753   0.00000  Uiso   1.00
C836   C     0.59126   0.70956   0.50858   0.00000  Uiso   1.00
C837   C     0.61540   0.74938   0.49344   0.00000  Uiso   1.00
C838   C     0.88373   0.74949   0.49775   0.00000  Uiso   1.00
C839   C     0.52306   0.75069   0.48609   0.00000  Uiso   1.00
C840   C     0.97507   0.75240   0.48820   0.00000  Uiso   1.00
H841   H     0.72526   0.53508   0.42403   0.00000  Uiso   1.00
H842   H     0.74251   0.96488   0.58028   0.00000  Uiso   1.00
H843   H     0.77527   0.53483   0.57646   0.00000  Uiso   1.00
H844   H     0.75923   0.96632   0.42103   0.00000  Uiso   1.00
N845   N     0.75000   0.62624   0.50000   0.00000  Uiso   1.00
N846   N     0.75000   0.87376   0.50000   0.00000  Uiso   1.00
O847   O     0.68453   0.78974   0.50000   0.00000  Uiso   1.00
O848   O     0.81547   0.71026   0.50000   0.00000  Uiso   1.00
O849   O     0.81547   0.78974   0.50000   0.00000  Uiso   1.00
O850   O     0.68453   0.71026   0.50000   0.00000  Uiso   1.00
O851   O     0.75000   0.78973   0.42845   0.00000  Uiso   1.00
O852   O     0.75000   0.71027   0.57155   0.00000  Uiso   1.00
O853   O     0.75000   0.78973   0.57155   0.00000  Uiso   1.00
O854   O     0.75000   0.71027   0.42845   0.00000  Uiso   1.00
Zn855  Zn    0.75000   0.80307   0.50000   0.00000  Uiso   1.00
Zn856  Zn    0.75000   0.69693   0.50000   0.00000  Uiso   1.00
O857   O     0.72813   0.62540   0.41352   0.00000  Uiso   1.00
C858   C     0.68186   0.62704   0.40342   0.00000  Uiso   1.00
H859   H     0.67637   0.63927   0.36427   0.00000  Uiso   1.00
H860   H     0.66591   0.65288   0.42809   0.00000  Uiso   1.00
H861   H     0.66550   0.59225   0.40678   0.00000  Uiso   1.00
O862   O     0.74863   0.87491   0.58944   0.00000  Uiso   1.00
C863   C     0.79197   0.87758   0.61102   0.00000  Uiso   1.00
H864   H     0.81783   0.86580   0.58454   0.00000  Uiso   1.00
H865   H     0.79383   0.85394   0.64406   0.00000  Uiso   1.00
H866   H     0.79948   0.91359   0.62427   0.00000  Uiso   1.00
O867   O     0.77741   0.62600   0.58437   0.00000  Uiso   1.00
C868   C     0.82419   0.62358   0.59023   0.00000  Uiso   1.00
H869   H     0.83452   0.64630   0.62201   0.00000  Uiso   1.00
H870   H     0.84120   0.63677   0.55641   0.00000  Uiso   1.00
H871   H     0.83541   0.58743   0.59937   0.00000  Uiso   1.00
O872   O     0.75517   0.87493   0.41106   0.00000  Uiso   1.00
C873   C     0.72117   0.88961   0.37699   0.00000  Uiso   1.00
H874   H     0.68944   0.89872   0.39563   0.00000  Uiso   1.00
H875   H     0.71372   0.86053   0.35077   0.00000  Uiso   1.00
H876   H     0.73272   0.91986   0.35455   0.00000  Uiso   1.00
O877   O     0.52683   0.83185   0.45672   0.00000  Uiso   1.00
C878   C     0.50348   0.82881   0.41036   0.00000  Uiso   1.00
H879   H     0.96903   0.81619   0.41640   0.00000  Uiso   1.00
H880   H     0.52025   0.80570   0.38311   0.00000  Uiso   1.00
C881   C     0.99996   0.87741   0.38736   0.00000  Uiso   1.00
H882   H     0.53373   0.89072   0.37870   0.00000  Uiso   1.00
H883   H     0.97944   0.87607   0.35227   0.00000  Uiso   1.00
H884   H     0.98386   0.90167   0.41385   0.00000  Uiso   1.00
O885   O     0.97113   0.68951   0.42780   0.00000  Uiso   1.00
C886   C     0.97278   0.70802   0.37867   0.00000  Uiso   1.00
H887   H     0.96092   0.74481   0.37468   0.00000  Uiso   1.00
H888   H     0.95117   0.68643   0.35359   0.00000  Uiso   1.00
C889   C     0.52054   0.70515   0.36079   0.00000  Uiso   1.00
H890   H     0.54385   0.72137   0.38843   0.00000  Uiso   1.00
H891   H     0.52348   0.72415   0.65815   0.00000  Uiso   1.00
H892   H     0.53031   0.66804   0.35574   0.00000  Uiso   1.00
O893   O     0.97820   0.82012   0.54323   0.00000  Uiso   1.00
C894   C     0.50090   0.80546   0.58745   0.00000  Uiso   1.00
H895   H     0.51752   0.77112   0.58341   0.00000  Uiso   1.00
H896   H     0.97740   0.80375   0.61898   0.00000  Uiso   1.00
C897   C     0.53727   0.84077   0.60021   0.00000  Uiso   1.00
H898   H     0.56162   0.84241   0.56950   0.00000  Uiso   1.00
H899   H     0.55515   0.83016   0.63529   0.00000  Uiso   1.00
H900   H     0.52248   0.87598   0.60529   0.00000  Uiso   1.00
O901   O     0.52027   0.67061   0.51597   0.00000  Uiso   1.00
C902   C     0.51050   0.66999   0.56736   0.00000  Uiso   1.00
H903   H     0.98731   0.69885   0.57651   0.00000  Uiso   1.00
H904   H     0.54149   0.67239   0.59094   0.00000  Uiso   1.00
C905   C     0.98718   0.62434   0.57981   0.00000  Uiso   1.00
H906   H     0.95579   0.62119   0.55719   0.00000  Uiso   1.00
H907   H     0.97898   0.62354   0.62017   0.00000  Uiso   1.00
H908   H     0.50921   0.59424   0.57161   0.00000  Uiso   1.00
O909   O     0.61657   0.82477   0.45021   0.00000  Uiso   1.00
C910   C     0.62608   0.81354   0.40002   0.00000  Uiso   1.00
H911   H     0.65726   0.79272   0.39854   0.00000  Uiso   1.00
H912   H     0.63095   0.84643   0.37881   0.00000  Uiso   1.00
H913   H     0.59865   0.79435   0.38018   0.00000  Uiso   1.00
O914   O     0.87823   0.68961   0.43405   0.00000  Uiso   1.00
C915   C     0.88462   0.64237   0.44819   0.00000  Uiso   1.00
H916   H     0.89168   0.63744   0.48904   0.00000  Uiso   1.00
H917   H     0.91181   0.62662   0.42634   0.00000  Uiso   1.00
H918   H     0.85358   0.62279   0.43898   0.00000  Uiso   1.00
O919   O     0.88896   0.81027   0.56136   0.00000  Uiso   1.00
C920   C     0.88012   0.78474   0.60549   0.00000  Uiso   1.00
H921   H     0.90896   0.76291   0.61846   0.00000  Uiso   1.00
H922   H     0.85022   0.76228   0.60016   0.00000  Uiso   1.00
H923   H     0.87299   0.80980   0.63588   0.00000  Uiso   1.00
O924   O     0.61329   0.67257   0.53229   0.00000  Uiso   1.00
C925   C     0.60671   0.63034   0.50576   0.00000  Uiso   1.00
H926   H     0.59615   0.63516   0.46574   0.00000  Uiso   1.00
H927   H     0.58185   0.60841   0.52509   0.00000  Uiso   1.00
H928   H     0.63859   0.61062   0.50644   0.00000  Uiso   1.00
C929   C     0.16377   0.24990   0.83217   0.00000  Uiso   1.00
C930   C     0.33591   0.24992   0.83324   0.00000  Uiso   1.00
C931   C     0.23626   0.10203   0.79143   0.00000  Uiso   1.00
C932   C     0.24862   0.39822   0.87761   0.00000  Uiso   1.00
C933   C     0.26450   0.10201   0.87508   0.00000  Uiso   1.00
C934   C     0.25199   0.39861   0.78916   0.00000  Uiso   1.00
C935   C     0.23614   0.05266   0.79126   0.00000  Uiso   1.00
C936   C     0.24641   0.44757   0.87803   0.00000  Uiso   1.00
C937   C     0.26385   0.05256   0.87604   0.00000  Uiso   1.00
C938   C     0.25396   0.44819   0.78933   0.00000  Uiso   1.00
C939   C     0.25001   0.25006   0.73962   0.00000  Uiso   1.00
C940   C     0.25003   0.24994   0.92705   0.00000  Uiso   1.00
C941   C     0.24973   0.02681   0.83382   0.00000  Uiso   1.00
C942   C     0.24985   0.47371   0.83375   0.00000  Uiso   1.00
C943   C     0.25004   0.25010   0.68848   0.00000  Uiso   1.00
C944   C     0.25004   0.24991   0.97819   0.00000  Uiso   1.00
C945   C     0.04712   0.28961   0.80251   0.00000  Uiso   1.00
C946   C     0.45008   0.22053   0.79255   0.00000  Uiso   1.00
C947   C     0.45475   0.28325   0.85507   0.00000  Uiso   1.00
C948   C     0.04468   0.21034   0.83805   0.00000  Uiso   1.00
C949   C     0.09334   0.28793   0.80421   0.00000  Uiso   1.00
C950   C     0.40411   0.21841   0.79795   0.00000  Uiso   1.00
C951   C     0.40890   0.28077   0.86086   0.00000  Uiso   1.00
C952   C     0.09126   0.20956   0.84192   0.00000  Uiso   1.00
C953   C     0.11540   0.24938   0.82678   0.00000  Uiso   1.00
C954   C     0.38373   0.24949   0.83108   0.00000  Uiso   1.00
C955   C     0.02306   0.25069   0.81942   0.00000  Uiso   1.00
C956   C     0.47507   0.25240   0.82153   0.00000  Uiso   1.00
H957   H     0.22526   0.03508   0.75736   0.00000  Uiso   1.00
H958   H     0.24251   0.46488   0.91361   0.00000  Uiso   1.00
H959   H     0.27527   0.03483   0.90980   0.00000  Uiso   1.00
H960   H     0.25923   0.46632   0.75437   0.00000  Uiso   1.00
N961   N     0.25000   0.12624   0.83333   0.00000  Uiso   1.00
N962   N     0.25000   0.37376   0.83333   0.00000  Uiso   1.00
O963   O     0.18453   0.28974   0.83334   0.00000  Uiso   1.00
O964   O     0.31547   0.21026   0.83333   0.00000  Uiso   1.00
O965   O     0.31547   0.28974   0.83333   0.00000  Uiso   1.00
O966   O     0.18453   0.21026   0.83334   0.00000  Uiso   1.00
O967   O     0.25000   0.28973   0.76178   0.00000  Uiso   1.00
O968   O     0.25000   0.21027   0.90489   0.00000  Uiso   1.00
O969   O     0.25000   0.28973   0.90489   0.00000  Uiso   1.00
O970   O     0.25000   0.21027   0.76178   0.00000  Uiso   1.00
Zn971  Zn    0.25000   0.30307   0.83333   0.00000  Uiso   1.00
Zn972  Zn    0.25000   0.19693   0.83333   0.00000  Uiso   1.00
O973   O     0.22813   0.12540   0.74685   0.00000  Uiso   1.00
C974   C     0.18186   0.12704   0.73675   0.00000  Uiso   1.00
H975   H     0.17637   0.13927   0.69761   0.00000  Uiso   1.00
H976   H     0.16591   0.15288   0.76142   0.00000  Uiso   1.00
H977   H     0.16550   0.09225   0.74011   0.00000  Uiso   1.00
O978   O     0.24863   0.37491   0.92277   0.00000  Uiso   1.00
C979   C     0.29197   0.37758   0.94435   0.00000  Uiso   1.00
H980   H     0.31783   0.36580   0.91787   0.00000  Uiso   1.00
H981   H     0.29383   0.35394   0.97739   0.00000  Uiso   1.00
H982   H     0.29948   0.41359   0.95760   0.00000  Uiso   1.00
O983   O     0.27741   0.12600   0.91771   0.00000  Uiso   1.00
C984   C     0.32419   0.12358   0.92356   0.00000  Uiso   1.00
H985   H     0.33452   0.14630   0.95534   0.00000  Uiso   1.00
H986   H     0.34120   0.13677   0.88975   0.00000  Uiso   1.00
H987   H     0.33541   0.08743   0.93271   0.00000  Uiso   1.00
O988   O     0.25517   0.37493   0.74439   0.00000  Uiso   1.00
C989   C     0.22117   0.38961   0.71032   0.00000  Uiso   1.00
H990   H     0.18944   0.39872   0.72896   0.00000  Uiso   1.00
H991   H     0.21372   0.36053   0.68410   0.00000  Uiso   1.00
H992   H     0.23272   0.41986   0.68788   0.00000  Uiso   1.00
O993   O     0.02683   0.33185   0.79006   0.00000  Uiso   1.00
C994   C     0.00348   0.32881   0.74369   0.00000  Uiso   1.00
H995   H     0.46903   0.31619   0.74974   0.00000  Uiso   1.00
H996   H     0.02025   0.30570   0.71645   0.00000  Uiso   1.00
C997   C     0.49996   0.37741   0.72070   0.00000  Uiso   1.00
H998   H     0.03373   0.39072   0.71203   0.00000  Uiso   1.00
H999   H     0.47944   0.37607   0.68561   0.00000  Uiso   1.00
H1000  H     0.48386   0.40167   0.74719   0.00000  Uiso   1.00
O1001  O     0.47113   0.18951   0.76113   0.00000  Uiso   1.00
C1002  C     0.47278   0.20802   0.71201   0.00000  Uiso   1.00
H1003  H     0.46092   0.24481   0.70801   0.00000  Uiso   1.00
H1004  H     0.45117   0.18643   0.68692   0.00000  Uiso   1.00
C1005  C     0.02054   0.20515   0.69412   0.00000  Uiso   1.00
H1006  H     0.04385   0.22137   0.72176   0.00000  Uiso   1.00
H1007  H     0.02348   0.22415   0.99148   0.00000  Uiso   1.00
H1008  H     0.03031   0.16804   0.68908   0.00000  Uiso   1.00
O1009  O     0.47820   0.32012   0.87657   0.00000  Uiso   1.00
C1010  C     0.00090   0.30546   0.92079   0.00000  Uiso   1.00
H1011  H     0.01752   0.27112   0.91674   0.00000  Uiso   1.00
H1012  H     0.47740   0.30375   0.95232   0.00000  Uiso   1.00
C1013  C     0.03727   0.34077   0.93355   0.00000  Uiso   1.00
H1014  H     0.06162   0.34241   0.90284   0.00000  Uiso   1.00
H1015  H     0.05515   0.33016   0.96863   0.00000  Uiso   1.00
H1016  H     0.02248   0.37598   0.93863   0.00000  Uiso   1.00
O1017  O     0.02027   0.17061   0.84930   0.00000  Uiso   1.00
C1018  C     0.01050   0.16999   0.90070   0.00000  Uiso   1.00
H1019  H     0.48731   0.19885   0.90985   0.00000  Uiso   1.00
H1020  H     0.04149   0.17239   0.92427   0.00000  Uiso   1.00
C1021  C     0.48718   0.12434   0.91315   0.00000  Uiso   1.00
H1022  H     0.45579   0.12119   0.89052   0.00000  Uiso   1.00
H1023  H     0.47898   0.12354   0.95350   0.00000  Uiso   1.00
H1024  H     0.00921   0.09424   0.90495   0.00000  Uiso   1.00
O1025  O     0.11657   0.32477   0.78354   0.00000  Uiso   1.00
C1026  C     0.12608   0.31354   0.73335   0.00000  Uiso   1.00
H1027  H     0.15726   0.29272   0.73187   0.00000  Uiso   1.00
H1028  H     0.13095   0.34643   0.71215   0.00000  Uiso   1.00
H1029  H     0.09865   0.29435   0.71351   0.00000  Uiso   1.00
O1030  O     0.37823   0.18961   0.76739   0.00000  Uiso   1.00
C1031  C     0.38462   0.14237   0.78152   0.00000  Uiso   1.00
H1032  H     0.39168   0.13744   0.82237   0.00000  Uiso   1.00
H1033  H     0.41181   0.12662   0.75967   0.00000  Uiso   1.00
H1034  H     0.35358   0.12279   0.77231   0.00000  Uiso   1.00
O1035  O     0.38896   0.31027   0.89469   0.00000  Uiso   1.00
C1036  C     0.38012   0.28474   0.93883   0.00000  Uiso   1.00
H1037  H     0.40896   0.26291   0.95180   0.00000  Uiso   1.00
H1038  H     0.35022   0.26228   0.93349   0.00000  Uiso   1.00
H1039  H     0.37299   0.30980   0.96921   0.00000  Uiso   1.00
O1040  O     0.11329   0.17257   0.86562   0.00000  Uiso   1.00
C1041  C     0.10671   0.13034   0.83910   0.00000  Uiso   1.00
H1042  H     0.09615   0.13516   0.79907   0.00000  Uiso   1.00
H1043  H     0.08185   0.10841   0.85842   0.00000  Uiso   1.00
H1044  H     0.13859   0.11062   0.83977   0.00000  Uiso   1.00
C1045  C     0.66377   0.24990   0.83217   0.00000  Uiso   1.00
C1046  C     0.83591   0.24992   0.83324   0.00000  Uiso   1.00
C1047  C     0.73626   0.10203   0.79143   0.00000  Uiso   1.00
C1048  C     0.74862   0.39822   0.87761   0.00000  Uiso   1.00
C1049  C     0.76450   0.10201   0.87508   0.00000  Uiso   1.00
C1050  C     0.75199   0.39861   0.78916   0.00000  Uiso   1.00
C1051  C     0.73614   0.05266   0.79126   0.00000  Uiso   1.00
C1052  C     0.74641   0.44757   0.87803   0.00000  Uiso   1.00
C1053  C     0.76385   0.05256   0.87604   0.00000  Uiso   1.00
C1054  C     0.75396   0.44819   0.78933   0.00000  Uiso   1.00
C1055  C     0.75001   0.25006   0.73962   0.00000  Uiso   1.00
C1056  C     0.75003   0.24994   0.92705   0.00000  Uiso   1.00
C1057  C     0.74973   0.02681   0.83382   0.00000  Uiso   1.00
C1058  C     0.74985   0.47371   0.83375   0.00000  Uiso   1.00
C1059  C     0.75004   0.25010   0.68848   0.00000  Uiso   1.00
C1060  C     0.75004   0.24991   0.97819   0.00000  Uiso   1.00
C1061  C     0.54712   0.28961   0.80251   0.00000  Uiso   1.00
C1062  C     0.95008   0.22053   0.79255   0.00000  Uiso   1.00
C1063  C     0.95475   0.28325   0.85507   0.00000  Uiso   1.00
C1064  C     0.54468   0.21034   0.83805   0.00000  Uiso   1.00
C1065  C     0.59334   0.28793   0.80421   0.00000  Uiso   1.00
C1066  C     0.90411   0.21841   0.79795   0.00000  Uiso   1.00
C1067  C     0.90890   0.28077   0.86086   0.00000  Uiso   1.00
C1068  C     0.59126   0.20956   0.84192   0.00000  Uiso   1.00
C1069  C     0.61540   0.24938   0.82678   0.00000  Uiso   1.00
C1070  C     0.88373   0.24949   0.83108   0.00000  Uiso   1.00
C1071  C     0.52306   0.25069   0.81942   0.00000  Uiso   1.00
C1072  C     0.97507   0.25240   0.82153   0.00000  Uiso   1.00
H1073  H     0.72526   0.03508   0.75736   0.00000  Uiso   1.00
H1074  H     0.74251   0.46488   0.91361   0.00000  Uiso   1.00
H1075  H     0.77527   0.03483   0.90980   0.00000  Uiso   1.00
H1076  H     0.75923   0.46632   0.75437   0.00000  Uiso   1.00
N1077  N     0.75000   0.12624   0.83333   0.00000  Uiso   1.00
N1078  N     0.75000   0.37376   0.83333   0.00000  Uiso   1.00
O1079  O     0.68453   0.28974   0.83334   0.00000  Uiso   1.00
O1080  O     0.81547   0.21026   0.83333   0.00000  Uiso   1.00
O1081  O     0.81547   0.28974   0.83333   0.00000  Uiso   1.00
O1082  O     0.68453   0.21026   0.83334   0.00000  Uiso   1.00
O1083  O     0.75000   0.28973   0.76178   0.00000  Uiso   1.00
O1084  O     0.75000   0.21027   0.90489   0.00000  Uiso   1.00
O1085  O     0.75000   0.28973   0.90489   0.00000  Uiso   1.00
O1086  O     0.75000   0.21027   0.76178   0.00000  Uiso   1.00
Zn1087 Zn    0.75000   0.30307   0.83333   0.00000  Uiso   1.00
Zn1088 Zn    0.75000   0.19693   0.83333   0.00000  Uiso   1.00
O1089  O     0.72813   0.12540   0.74685   0.00000  Uiso   1.00
C1090  C     0.68186   0.12704   0.73675   0.00000  Uiso   1.00
H1091  H     0.67637   0.13927   0.69761   0.00000  Uiso   1.00
H1092  H     0.66591   0.15288   0.76142   0.00000  Uiso   1.00
H1093  H     0.66550   0.09225   0.74011   0.00000  Uiso   1.00
O1094  O     0.74863   0.37491   0.92277   0.00000  Uiso   1.00
C1095  C     0.79197   0.37758   0.94435   0.00000  Uiso   1.00
H1096  H     0.81783   0.36580   0.91787   0.00000  Uiso   1.00
H1097  H     0.79383   0.35394   0.97739   0.00000  Uiso   1.00
H1098  H     0.79948   0.41359   0.95760   0.00000  Uiso   1.00
O1099  O     0.77741   0.12600   0.91771   0.00000  Uiso   1.00
C1100  C     0.82419   0.12358   0.92356   0.00000  Uiso   1.00
H1101  H     0.83452   0.14630   0.95534   0.00000  Uiso   1.00
H1102  H     0.84120   0.13677   0.88975   0.00000  Uiso   1.00
H1103  H     0.83541   0.08743   0.93271   0.00000  Uiso   1.00
O1104  O     0.75517   0.37493   0.74439   0.00000  Uiso   1.00
C1105  C     0.72117   0.38961   0.71032   0.00000  Uiso   1.00
H1106  H     0.68944   0.39872   0.72896   0.00000  Uiso   1.00
H1107  H     0.71372   0.36053   0.68410   0.00000  Uiso   1.00
H1108  H     0.73272   0.41986   0.68788   0.00000  Uiso   1.00
O1109  O     0.52683   0.33185   0.79006   0.00000  Uiso   1.00
C1110  C     0.50348   0.32881   0.74369   0.00000  Uiso   1.00
H1111  H     0.96903   0.31619   0.74974   0.00000  Uiso   1.00
H1112  H     0.52025   0.30570   0.71645   0.00000  Uiso   1.00
C1113  C     0.99996   0.37741   0.72070   0.00000  Uiso   1.00
H1114  H     0.53373   0.39072   0.71203   0.00000  Uiso   1.00
H1115  H     0.97944   0.37607   0.68561   0.00000  Uiso   1.00
H1116  H     0.98386   0.40167   0.74719   0.00000  Uiso   1.00
O1117  O     0.97113   0.18951   0.76113   0.00000  Uiso   1.00
C1118  C     0.97278   0.20802   0.71201   0.00000  Uiso   1.00
H1119  H     0.96092   0.24481   0.70801   0.00000  Uiso   1.00
H1120  H     0.95117   0.18643   0.68692   0.00000  Uiso   1.00
C1121  C     0.52054   0.20515   0.69412   0.00000  Uiso   1.00
H1122  H     0.54385   0.22137   0.72176   0.00000  Uiso   1.00
H1123  H     0.52348   0.22415   0.99148   0.00000  Uiso   1.00
H1124  H     0.53031   0.16804   0.68908   0.00000  Uiso   1.00
O1125  O     0.97820   0.32012   0.87657   0.00000  Uiso   1.00
C1126  C     0.50090   0.30546   0.92079   0.00000  Uiso   1.00
H1127  H     0.51752   0.27112   0.91674   0.00000  Uiso   1.00
H1128  H     0.97740   0.30375   0.95232   0.00000  Uiso   1.00
C1129  C     0.53727   0.34077   0.93355   0.00000  Uiso   1.00
H1130  H     0.56162   0.34241   0.90284   0.00000  Uiso   1.00
H1131  H     0.55515   0.33016   0.96863   0.00000  Uiso   1.00
H1132  H     0.52248   0.37598   0.93863   0.00000  Uiso   1.00
O1133  O     0.52027   0.17061   0.84930   0.00000  Uiso   1.00
C1134  C     0.51050   0.16999   0.90070   0.00000  Uiso   1.00
H1135  H     0.98731   0.19885   0.90985   0.00000  Uiso   1.00
H1136  H     0.54149   0.17239   0.92427   0.00000  Uiso   1.00
C1137  C     0.98718   0.12434   0.91315   0.00000  Uiso   1.00
H1138  H     0.95579   0.12119   0.89052   0.00000  Uiso   1.00
H1139  H     0.97898   0.12354   0.95350   0.00000  Uiso   1.00
H1140  H     0.50921   0.09424   0.90495   0.00000  Uiso   1.00
O1141  O     0.61657   0.32477   0.78354   0.00000  Uiso   1.00
C1142  C     0.62608   0.31354   0.73335   0.00000  Uiso   1.00
H1143  H     0.65726   0.29272   0.73187   0.00000  Uiso   1.00
H1144  H     0.63095   0.34643   0.71215   0.00000  Uiso   1.00
H1145  H     0.59865   0.29435   0.71351   0.00000  Uiso   1.00
O1146  O     0.87823   0.18961   0.76739   0.00000  Uiso   1.00
C1147  C     0.88462   0.14237   0.78152   0.00000  Uiso   1.00
H1148  H     0.89168   0.13744   0.82237   0.00000  Uiso   1.00
H1149  H     0.91181   0.12662   0.75967   0.00000  Uiso   1.00
H1150  H     0.85358   0.12279   0.77231   0.00000  Uiso   1.00
O1151  O     0.88896   0.31027   0.89469   0.00000  Uiso   1.00
C1152  C     0.88012   0.28474   0.93883   0.00000  Uiso   1.00
H1153  H     0.90896   0.26291   0.95180   0.00000  Uiso   1.00
H1154  H     0.85022   0.26228   0.93349   0.00000  Uiso   1.00
H1155  H     0.87299   0.30980   0.96921   0.00000  Uiso   1.00
O1156  O     0.61329   0.17257   0.86562   0.00000  Uiso   1.00
C1157  C     0.60671   0.13034   0.83910   0.00000  Uiso   1.00
H1158  H     0.59615   0.13516   0.79907   0.00000  Uiso   1.00
H1159  H     0.58185   0.10841   0.85842   0.00000  Uiso   1.00
H1160  H     0.63859   0.11062   0.83977   0.00000  Uiso   1.00
C1161  C     0.16377   0.74990   0.83217   0.00000  Uiso   1.00
C1162  C     0.33591   0.74992   0.83324   0.00000  Uiso   1.00
C1163  C     0.23626   0.60203   0.79143   0.00000  Uiso   1.00
C1164  C     0.24862   0.89822   0.87761   0.00000  Uiso   1.00
C1165  C     0.26450   0.60201   0.87508   0.00000  Uiso   1.00
C1166  C     0.25199   0.89861   0.78916   0.00000  Uiso   1.00
C1167  C     0.23614   0.55266   0.79126   0.00000  Uiso   1.00
C1168  C     0.24641   0.94757   0.87803   0.00000  Uiso   1.00
C1169  C     0.26385   0.55256   0.87604   0.00000  Uiso   1.00
C1170  C     0.25396   0.94819   0.78933   0.00000  Uiso   1.00
C1171  C     0.25001   0.75006   0.73962   0.00000  Uiso   1.00
C1172  C     0.25003   0.74994   0.92705   0.00000  Uiso   1.00
C1173  C     0.24973   0.52681   0.83382   0.00000  Uiso   1.00
C1174  C     0.24985   0.97371   0.83375   0.00000  Uiso   1.00
C1175  C     0.25004   0.75010   0.68848   0.00000  Uiso   1.00
C1176  C     0.25004   0.74991   0.97819   0.00000  Uiso   1.00
C1177  C     0.04712   0.78961   0.80251   0.00000  Uiso   1.00
C1178  C     0.45008   0.72053   0.79255   0.00000  Uiso   1.00
C1179  C     0.45475   0.78325   0.85507   0.00000  Uiso   1.00
C1180  C     0.04468   0.71034   0.83805   0.00000  Uiso   1.00
C1181  C     0.09334   0.78793   0.80421   0.00000  Uiso   1.00
C1182  C     0.40411   0.71841   0.79795   0.00000  Uiso   1.00
C1183  C     0.40890   0.78077   0.86086   0.00000  Uiso   1.00
C1184  C     0.09126   0.70956   0.84192   0.00000  Uiso   1.00
C1185  C     0.11540   0.74938   0.82678   0.00000  Uiso   1.00
C1186  C     0.38373   0.74949   0.83108   0.00000  Uiso   1.00
C1187  C     0.02306   0.75069   0.81942   0.00000  Uiso   1.00
C1188  C     0.47507   0.75240   0.82153   0.00000  Uiso   1.00
H1189  H     0.22526   0.53508   0.75736   0.00000  Uiso   1.00
H1190  H     0.24251   0.96488   0.91361   0.00000  Uiso   1.00
H1191  H     0.27527   0.53483   0.90980   0.00000  Uiso   1.00
H1192  H     0.25923   0.96632   0.75437   0.00000  Uiso   1.00
N1193  N     0.25000   0.62624   0.83333   0.00000  Uiso   1.00
N1194  N     0.25000   0.87376   0.83333   0.00000  Uiso   1.00
O1195  O     0.18453   0.78974   0.83334   0.00000  Uiso   1.00
O1196  O     0.31547   0.71026   0.83333   0.00000  Uiso   1.00
O1197  O     0.31547   0.78974   0.83333   0.00000  Uiso   1.00
O1198  O     0.18453   0.71026   0.83334   0.00000  Uiso   1.00
O1199  O     0.25000   0.78973   0.76178   0.00000  Uiso   1.00
O1200  O     0.25000   0.71027   0.90489   0.00000  Uiso   1.00
O1201  O     0.25000   0.78973   0.90489   0.00000  Uiso   1.00
O1202  O     0.25000   0.71027   0.76178   0.00000  Uiso   1.00
Zn1203 Zn    0.25000   0.80307   0.83333   0.00000  Uiso   1.00
Zn1204 Zn    0.25000   0.69693   0.83333   0.00000  Uiso   1.00
O1205  O     0.22813   0.62540   0.74685   0.00000  Uiso   1.00
C1206  C     0.18186   0.62704   0.73675   0.00000  Uiso   1.00
H1207  H     0.17637   0.63927   0.69761   0.00000  Uiso   1.00
H1208  H     0.16591   0.65288   0.76142   0.00000  Uiso   1.00
H1209  H     0.16550   0.59225   0.74011   0.00000  Uiso   1.00
O1210  O     0.24863   0.87491   0.92277   0.00000  Uiso   1.00
C1211  C     0.29197   0.87758   0.94435   0.00000  Uiso   1.00
H1212  H     0.31783   0.86580   0.91787   0.00000  Uiso   1.00
H1213  H     0.29383   0.85394   0.97739   0.00000  Uiso   1.00
H1214  H     0.29948   0.91359   0.95760   0.00000  Uiso   1.00
O1215  O     0.27741   0.62600   0.91771   0.00000  Uiso   1.00
C1216  C     0.32419   0.62358   0.92356   0.00000  Uiso   1.00
H1217  H     0.33452   0.64630   0.95534   0.00000  Uiso   1.00
H1218  H     0.34120   0.63677   0.88975   0.00000  Uiso   1.00
H1219  H     0.33541   0.58743   0.93271   0.00000  Uiso   1.00
O1220  O     0.25517   0.87493   0.74439   0.00000  Uiso   1.00
C1221  C     0.22117   0.88961   0.71032   0.00000  Uiso   1.00
H1222  H     0.18944   0.89872   0.72896   0.00000  Uiso   1.00
H1223  H     0.21372   0.86053   0.68410   0.00000  Uiso   1.00
H1224  H     0.23272   0.91986   0.68788   0.00000  Uiso   1.00
O1225  O     0.02683   0.83185   0.79006   0.00000  Uiso   1.00
C1226  C     0.00348   0.82881   0.74369   0.00000  Uiso   1.00
H1227  H     0.46903   0.81619   0.74974   0.00000  Uiso   1.00
H1228  H     0.02025   0.80570   0.71645   0.00000  Uiso   1.00
C1229  C     0.49996   0.87741   0.72070   0.00000  Uiso   1.00
H1230  H     0.03373   0.89072   0.71203   0.00000  Uiso   1.00
H1231  H     0.47944   0.87607   0.68561   0.00000  Uiso   1.00
H1232  H     0.48386   0.90167   0.74719   0.00000  Uiso   1.00
O1233  O     0.47113   0.68951   0.76113   0.00000  Uiso   1.00
C1234  C     0.47278   0.70802   0.71201   0.00000  Uiso   1.00
H1235  H     0.46092   0.74481   0.70801   0.00000  Uiso   1.00
H1236  H     0.45117   0.68643   0.68692   0.00000  Uiso   1.00
C1237  C     0.02054   0.70515   0.69412   0.00000  Uiso   1.00
H1238  H     0.04385   0.72137   0.72176   0.00000  Uiso   1.00
H1239  H     0.02348   0.72415   0.99148   0.00000  Uiso   1.00
H1240  H     0.03031   0.66804   0.68908   0.00000  Uiso   1.00
O1241  O     0.47820   0.82012   0.87657   0.00000  Uiso   1.00
C1242  C     0.00090   0.80546   0.92079   0.00000  Uiso   1.00
H1243  H     0.01752   0.77112   0.91674   0.00000  Uiso   1.00
H1244  H     0.47740   0.80375   0.95232   0.00000  Uiso   1.00
C1245  C     0.03727   0.84077   0.93355   0.00000  Uiso   1.00
H1246  H     0.06162   0.84241   0.90284   0.00000  Uiso   1.00
H1247  H     0.05515   0.83016   0.96863   0.00000  Uiso   1.00
H1248  H     0.02248   0.87598   0.93863   0.00000  Uiso   1.00
O1249  O     0.02027   0.67061   0.84930   0.00000  Uiso   1.00
C1250  C     0.01050   0.66999   0.90070   0.00000  Uiso   1.00
H1251  H     0.48731   0.69885   0.90985   0.00000  Uiso   1.00
H1252  H     0.04149   0.67239   0.92427   0.00000  Uiso   1.00
C1253  C     0.48718   0.62434   0.91315   0.00000  Uiso   1.00
H1254  H     0.45579   0.62119   0.89052   0.00000  Uiso   1.00
H1255  H     0.47898   0.62354   0.95350   0.00000  Uiso   1.00
H1256  H     0.00921   0.59424   0.90495   0.00000  Uiso   1.00
O1257  O     0.11657   0.82477   0.78354   0.00000  Uiso   1.00
C1258  C     0.12608   0.81354   0.73335   0.00000  Uiso   1.00
H1259  H     0.15726   0.79272   0.73187   0.00000  Uiso   1.00
H1260  H     0.13095   0.84643   0.71215   0.00000  Uiso   1.00
H1261  H     0.09865   0.79435   0.71351   0.00000  Uiso   1.00
O1262  O     0.37823   0.68961   0.76739   0.00000  Uiso   1.00
C1263  C     0.38462   0.64237   0.78152   0.00000  Uiso   1.00
H1264  H     0.39168   0.63744   0.82237   0.00000  Uiso   1.00
H1265  H     0.41181   0.62662   0.75967   0.00000  Uiso   1.00
H1266  H     0.35358   0.62279   0.77231   0.00000  Uiso   1.00
O1267  O     0.38896   0.81027   0.89469   0.00000  Uiso   1.00
C1268  C     0.38012   0.78474   0.93883   0.00000  Uiso   1.00
H1269  H     0.40896   0.76291   0.95180   0.00000  Uiso   1.00
H1270  H     0.35022   0.76228   0.93349   0.00000  Uiso   1.00
H1271  H     0.37299   0.80980   0.96921   0.00000  Uiso   1.00
O1272  O     0.11329   0.67257   0.86562   0.00000  Uiso   1.00
C1273  C     0.10671   0.63034   0.83910   0.00000  Uiso   1.00
H1274  H     0.09615   0.63516   0.79907   0.00000  Uiso   1.00
H1275  H     0.08185   0.60841   0.85842   0.00000  Uiso   1.00
H1276  H     0.13859   0.61062   0.83977   0.00000  Uiso   1.00
C1277  C     0.66377   0.74990   0.83217   0.00000  Uiso   1.00
C1278  C     0.83591   0.74992   0.83324   0.00000  Uiso   1.00
C1279  C     0.73626   0.60203   0.79143   0.00000  Uiso   1.00
C1280  C     0.74862   0.89822   0.87761   0.00000  Uiso   1.00
C1281  C     0.76450   0.60201   0.87508   0.00000  Uiso   1.00
C1282  C     0.75199   0.89861   0.78916   0.00000  Uiso   1.00
C1283  C     0.73614   0.55266   0.79126   0.00000  Uiso   1.00
C1284  C     0.74641   0.94757   0.87803   0.00000  Uiso   1.00
C1285  C     0.76385   0.55256   0.87604   0.00000  Uiso   1.00
C1286  C     0.75396   0.94819   0.78933   0.00000  Uiso   1.00
C1287  C     0.75001   0.75006   0.73962   0.00000  Uiso   1.00
C1288  C     0.75003   0.74994   0.92705   0.00000  Uiso   1.00
C1289  C     0.74973   0.52681   0.83382   0.00000  Uiso   1.00
C1290  C     0.74985   0.97371   0.83375   0.00000  Uiso   1.00
C1291  C     0.75004   0.75010   0.68848   0.00000  Uiso   1.00
C1292  C     0.75004   0.74991   0.97819   0.00000  Uiso   1.00
C1293  C     0.54712   0.78961   0.80251   0.00000  Uiso   1.00
C1294  C     0.95008   0.72053   0.79255   0.00000  Uiso   1.00
C1295  C     0.95475   0.78325   0.85507   0.00000  Uiso   1.00
C1296  C     0.54468   0.71034   0.83805   0.00000  Uiso   1.00
C1297  C     0.59334   0.78793   0.80421   0.00000  Uiso   1.00
C1298  C     0.90411   0.71841   0.79795   0.00000  Uiso   1.00
C1299  C     0.90890   0.78077   0.86086   0.00000  Uiso   1.00
C1300  C     0.59126   0.70956   0.84192   0.00000  Uiso   1.00
C1301  C     0.61540   0.74938   0.82678   0.00000  Uiso   1.00
C1302  C     0.88373   0.74949   0.83108   0.00000  Uiso   1.00
C1303  C     0.52306   0.75069   0.81942   0.00000  Uiso   1.00
C1304  C     0.97507   0.75240   0.82153   0.00000  Uiso   1.00
H1305  H     0.72526   0.53508   0.75736   0.00000  Uiso   1.00
H1306  H     0.74251   0.96488   0.91361   0.00000  Uiso   1.00
H1307  H     0.77527   0.53483   0.90980   0.00000  Uiso   1.00
H1308  H     0.75923   0.96632   0.75437   0.00000  Uiso   1.00
N1309  N     0.75000   0.62624   0.83333   0.00000  Uiso   1.00
N1310  N     0.75000   0.87376   0.83333   0.00000  Uiso   1.00
O1311  O     0.68453   0.78974   0.83334   0.00000  Uiso   1.00
O1312  O     0.81547   0.71026   0.83333   0.00000  Uiso   1.00
O1313  O     0.81547   0.78974   0.83333   0.00000  Uiso   1.00
O1314  O     0.68453   0.71026   0.83334   0.00000  Uiso   1.00
O1315  O     0.75000   0.78973   0.76178   0.00000  Uiso   1.00
O1316  O     0.75000   0.71027   0.90489   0.00000  Uiso   1.00
O1317  O     0.75000   0.78973   0.90489   0.00000  Uiso   1.00
O1318  O     0.75000   0.71027   0.76178   0.00000  Uiso   1.00
Zn1319 Zn    0.75000   0.80307   0.83333   0.00000  Uiso   1.00
Zn1320 Zn    0.75000   0.69693   0.83333   0.00000  Uiso   1.00
O1321  O     0.72813   0.62540   0.74685   0.00000  Uiso   1.00
C1322  C     0.68186   0.62704   0.73675   0.00000  Uiso   1.00
H1323  H     0.67637   0.63927   0.69761   0.00000  Uiso   1.00
H1324  H     0.66591   0.65288   0.76142   0.00000  Uiso   1.00
H1325  H     0.66550   0.59225   0.74011   0.00000  Uiso   1.00
O1326  O     0.74863   0.87491   0.92277   0.00000  Uiso   1.00
C1327  C     0.79197   0.87758   0.94435   0.00000  Uiso   1.00
H1328  H     0.81783   0.86580   0.91787   0.00000  Uiso   1.00
H1329  H     0.79383   0.85394   0.97739   0.00000  Uiso   1.00
H1330  H     0.79948   0.91359   0.95760   0.00000  Uiso   1.00
O1331  O     0.77741   0.62600   0.91771   0.00000  Uiso   1.00
C1332  C     0.82419   0.62358   0.92356   0.00000  Uiso   1.00
H1333  H     0.83452   0.64630   0.95534   0.00000  Uiso   1.00
H1334  H     0.84120   0.63677   0.88975   0.00000  Uiso   1.00
H1335  H     0.83541   0.58743   0.93271   0.00000  Uiso   1.00
O1336  O     0.75517   0.87493   0.74439   0.00000  Uiso   1.00
C1337  C     0.72117   0.88961   0.71032   0.00000  Uiso   1.00
H1338  H     0.68944   0.89872   0.72896   0.00000  Uiso   1.00
H1339  H     0.71372   0.86053   0.68410   0.00000  Uiso   1.00
H1340  H     0.73272   0.91986   0.68788   0.00000  Uiso   1.00
O1341  O     0.52683   0.83185   0.79006   0.00000  Uiso   1.00
C1342  C     0.50348   0.82881   0.74369   0.00000  Uiso   1.00
H1343  H     0.96903   0.81619   0.74974   0.00000  Uiso   1.00
H1344  H     0.52025   0.80570   0.71645   0.00000  Uiso   1.00
C1345  C     0.99996   0.87741   0.72070   0.00000  Uiso   1.00
H1346  H     0.53373   0.89072   0.71203   0.00000  Uiso   1.00
H1347  H     0.97944   0.87607   0.68561   0.00000  Uiso   1.00
H1348  H     0.98386   0.90167   0.74719   0.00000  Uiso   1.00
O1349  O     0.97113   0.68951   0.76113   0.00000  Uiso   1.00
C1350  C     0.97278   0.70802   0.71201   0.00000  Uiso   1.00
H1351  H     0.96092   0.74481   0.70801   0.00000  Uiso   1.00
H1352  H     0.95117   0.68643   0.68692   0.00000  Uiso   1.00
C1353  C     0.52054   0.70515   0.69412   0.00000  Uiso   1.00
H1354  H     0.54385   0.72137   0.72176   0.00000  Uiso   1.00
H1355  H     0.52348   0.72415   0.99148   0.00000  Uiso   1.00
H1356  H     0.53031   0.66804   0.68908   0.00000  Uiso   1.00
O1357  O     0.97820   0.82012   0.87657   0.00000  Uiso   1.00
C1358  C     0.50090   0.80546   0.92079   0.00000  Uiso   1.00
H1359  H     0.51752   0.77112   0.91674   0.00000  Uiso   1.00
H1360  H     0.97740   0.80375   0.95232   0.00000  Uiso   1.00
C1361  C     0.53727   0.84077   0.93355   0.00000  Uiso   1.00
H1362  H     0.56162   0.84241   0.90284   0.00000  Uiso   1.00
H1363  H     0.55515   0.83016   0.96863   0.00000  Uiso   1.00
H1364  H     0.52248   0.87598   0.93863   0.00000  Uiso   1.00
O1365  O     0.52027   0.67061   0.84930   0.00000  Uiso   1.00
C1366  C     0.51050   0.66999   0.90070   0.00000  Uiso   1.00
H1367  H     0.98731   0.69885   0.90985   0.00000  Uiso   1.00
H1368  H     0.54149   0.67239   0.92427   0.00000  Uiso   1.00
C1369  C     0.98718   0.62434   0.91315   0.00000  Uiso   1.00
H1370  H     0.95579   0.62119   0.89052   0.00000  Uiso   1.00
H1371  H     0.97898   0.62354   0.95350   0.00000  Uiso   1.00
H1372  H     0.50921   0.59424   0.90495   0.00000  Uiso   1.00
O1373  O     0.61657   0.82477   0.78354   0.00000  Uiso   1.00
C1374  C     0.62608   0.81354   0.73335   0.00000  Uiso   1.00
H1375  H     0.65726   0.79272   0.73187   0.00000  Uiso   1.00
H1376  H     0.63095   0.84643   0.71215   0.00000  Uiso   1.00
H1377  H     0.59865   0.79435   0.71351   0.00000  Uiso   1.00
O1378  O     0.87823   0.68961   0.76739   0.00000  Uiso   1.00
C1379  C     0.88462   0.64237   0.78152   0.00000  Uiso   1.00
H1380  H     0.89168   0.63744   0.82237   0.00000  Uiso   1.00
H1381  H     0.91181   0.62662   0.75967   0.00000  Uiso   1.00
H1382  H     0.85358   0.62279   0.77231   0.00000  Uiso   1.00
O1383  O     0.88896   0.81027   0.89469   0.00000  Uiso   1.00
C1384  C     0.88012   0.78474   0.93883   0.00000  Uiso   1.00
H1385  H     0.90896   0.76291   0.95180   0.00000  Uiso   1.00
H1386  H     0.85022   0.76228   0.93349   0.00000  Uiso   1.00
H1387  H     0.87299   0.80980   0.96921   0.00000  Uiso   1.00
O1388  O     0.61329   0.67257   0.86562   0.00000  Uiso   1.00
C1389  C     0.60671   0.63034   0.83910   0.00000  Uiso   1.00
H1390  H     0.59615   0.63516   0.79907   0.00000  Uiso   1.00
H1391  H     0.58185   0.60841   0.85842   0.00000  Uiso   1.00
H1392  H     0.63859   0.61062   0.83977   0.00000  Uiso   1.00
loop_
_geom_bond_atom_site_label_1
_geom_bond_atom_site_label_2
_geom_bond_distance
_geom_bond_site_symmetry_2
_ccdc_geom_bond_type
C1     C25     1.454   .     S
C1     O38     1.293   .     A
C1     O35     1.299   .     A
C2     C26     1.436   .     S
C2     O36     1.290   .     A
C2     O37     1.293   .     A
C3     C7      1.412   .     A
C3     N33     1.374   .     A
C3     O45     1.379   .     S
C4     C8      1.413   .     A
C4     N34     1.377   .     A
C4     O50     1.375   .     S
C5     N33     1.372   .     A
C5     C9      1.414   .     A
C5     O55     1.379   .     S
C6     O60     1.381   .     S
C6     N34     1.377   .     A
C6     C10     1.419   .     A
C7     H29     1.081   .     S
C7     C13     1.406   .     A
C8     C14     1.402   .     A
C8     H30     1.081   .     S
C9     C13     1.407   .     A
C9     H31     1.081   .     S
C10    C14     1.403   .     A
C10    H32     1.080   .     S
C11    O42     1.280   .     A
C11    C15     1.365   .     S
C11    O39     1.282   .     A
C12    O40     1.282   .     A
C12    C16     1.365   .     S
C12    O41     1.280   .     A
C13    C246    1.519   1_545 S
C14    C245    1.519   .     S
C15    C944    1.165   1_554 S
C16    C479    1.165   .     S
C17    C27     1.405   .     A
C17    C21     1.386   .     A
C17    O65     1.388   .     S
C18    C28     1.404   .     A
C18    C22     1.391   .     A
C18    O73     1.385   .     S
C19    C23     1.389   .     A
C19    C28     1.408   .     A
C19    O81     1.387   .     S
C20    C24     1.398   .     A
C20    C27     1.407   .     A
C20    O89     1.387   .     S
C21    O97     1.383   .     S
C21    C25     1.412   .     A
C22    O102    1.388   .     S
C22    C26     1.406   .     A
C23    C26     1.408   .     A
C23    O107    1.384   .     S
C24    O112    1.390   .     S
C24    C25     1.412   .     A
C27    C144    1.442   1_455 S
C28    C143    1.442   .     S
N33    Zn44    2.022   .     S
N34    Zn43    2.022   .     S
O35    Zn43    2.000   .     S
O36    Zn44    2.000   .     S
O37    Zn43    2.000   .     S
O38    Zn44    2.000   .     S
O39    Zn43    1.949   .     S
O40    Zn44    1.949   .     S
O41    Zn43    1.946   .     S
O42    Zn44    1.946   .     S
O45    C46     1.408   .     S
C46    H49     1.114   .     S
C46    H48     1.108   .     S
C46    H47     1.109   .     S
O50    C51     1.412   .     S
C51    H52     1.114   .     S
C51    H53     1.109   .     S
C51    H54     1.112   .     S
O55    C56     1.410   .     S
C56    H57     1.110   .     S
C56    H58     1.111   .     S
C56    H59     1.112   .     S
O60    C61     1.414   .     S
C61    H64     1.110   .     S
C61    H63     1.109   .     S
C61    H62     1.115   .     S
O65    C66     1.412   .     S
C66    H68     1.113   .     S
C66    H183    1.109   1_455 S
C66    C185    1.520   1_455 S
H67    C182    1.109   .     S
C69    H71     1.110   .     S
C69    H72     1.111   .     S
C69    C182    1.520   .     S
C69    H186    1.111   .     S
H70    C185    1.111   1_455 S
O73    C74     1.414   .     S
C74    H76     1.111   .     S
C74    H75     1.115   .     S
C74    C193    1.522   .     S
C77    H78     1.108   .     S
C77    H80     1.110   .     S
C77    C190    1.522   1_455 S
C77    H1007   1.107   1_554 S
H79    C541    1.107   .     S
O81    C198    1.412   .     S
C82    C85     1.521   .     S
C82    H83     1.108   .     S
C82    O197    1.412   1_455 S
C82    H200    1.110   1_455 S
H84    C198    1.110   .     S
C85    H87     1.110   .     S
C85    H86     1.111   .     S
C85    H88     1.110   .     S
O89    C90     1.409   .     S
C90    H92     1.113   .     S
C90    H207    1.110   1_455 S
C90    C209    1.520   1_455 S
H91    C206    1.110   .     S
C93    H94     1.111   .     S
C93    H95     1.110   .     S
C93    C206    1.520   .     S
C93    H212    1.110   .     S
H96    C209    1.110   1_455 S
O97    C98     1.414   .     S
C98    H100    1.107   .     S
C98    H101    1.114   .     S
C98    H99     1.110   .     S
O102   C103    1.413   .     S
C103   H105    1.110   .     S
C103   H104    1.115   .     S
C103   H106    1.110   .     S
O107   C108    1.414   .     S
C108   H109    1.114   .     S
C108   H111    1.109   .     S
C108   H110    1.110   .     S
O112   C113    1.414   .     S
C113   H116    1.109   .     S
C113   H114    1.116   .     S
C113   H115    1.109   .     S
C117   C141    1.454   .     S
C117   O154    1.293   .     A
C117   O151    1.299   .     A
C118   C142    1.436   .     S
C118   O152    1.290   .     A
C118   O153    1.293   .     A
C119   C123    1.412   .     A
C119   N149    1.374   .     A
C119   O161    1.379   .     S
C120   C124    1.413   .     A
C120   N150    1.377   .     A
C120   O166    1.375   .     S
C121   N149    1.372   .     A
C121   C125    1.414   .     A
C121   O171    1.379   .     S
C122   O176    1.381   .     S
C122   N150    1.377   .     A
C122   C126    1.419   .     A
C123   H145    1.081   .     S
C123   C129    1.406   .     A
C124   C130    1.402   .     A
C124   H146    1.081   .     S
C125   C129    1.407   .     A
C125   H147    1.081   .     S
C126   C130    1.403   .     A
C126   H148    1.080   .     S
C127   O158    1.280   .     A
C127   C131    1.365   .     S
C127   O155    1.282   .     A
C128   O156    1.282   .     A
C128   C132    1.365   .     S
C128   O157    1.280   .     A
C129   C362    1.519   1_545 S
C130   C361    1.519   .     S
C131   C1060   1.165   1_554 S
C132   C595    1.165   .     S
C133   C143    1.405   .     A
C133   C137    1.386   .     A
C133   O181    1.388   .     S
C134   C144    1.404   .     A
C134   C138    1.391   .     A
C134   O189    1.385   .     S
C135   C139    1.389   .     A
C135   C144    1.408   .     A
C135   O197    1.387   .     S
C136   C140    1.398   .     A
C136   C143    1.407   .     A
C136   O205    1.387   .     S
C137   O213    1.383   .     S
C137   C141    1.412   .     A
C138   O218    1.388   .     S
C138   C142    1.406   .     A
C139   C142    1.408   .     A
C139   O223    1.384   .     S
C140   O228    1.390   .     S
C140   C141    1.412   .     A
C144   C27     1.442   1_655 S
N149   Zn160   2.022   .     S
N150   Zn159   2.022   .     S
O151   Zn159   2.000   .     S
O152   Zn160   2.000   .     S
O153   Zn159   2.000   .     S
O154   Zn160   2.000   .     S
O155   Zn159   1.949   .     S
O156   Zn160   1.949   .     S
O157   Zn159   1.946   .     S
O158   Zn160   1.946   .     S
O161   C162    1.408   .     S
C162   H165    1.114   .     S
C162   H164    1.108   .     S
C162   H163    1.109   .     S
O166   C167    1.412   .     S
C167   H168    1.114   .     S
C167   H169    1.109   .     S
C167   H170    1.112   .     S
O171   C172    1.410   .     S
C172   H173    1.110   .     S
C172   H174    1.111   .     S
C172   H175    1.112   .     S
O176   C177    1.414   .     S
C177   H180    1.110   .     S
C177   H179    1.109   .     S
C177   H178    1.115   .     S
O181   C182    1.412   .     S
C182   H184    1.113   .     S
H183   C66     1.109   1_655 S
C185   H187    1.110   .     S
C185   H188    1.111   .     S
C185   C66     1.520   1_655 S
C185   H70     1.111   1_655 S
O189   C190    1.414   .     S
C190   H192    1.111   .     S
C190   H191    1.115   .     S
C190   C77     1.522   1_655 S
C193   H194    1.108   .     S
C193   H196    1.110   .     S
C193   H1123   1.107   1_554 S
H195   C657    1.107   .     S
O197   C82     1.412   1_655 S
C198   C201    1.521   .     S
C198   H199    1.108   .     S
H200   C82     1.110   1_655 S
C201   H203    1.110   .     S
C201   H202    1.111   .     S
C201   H204    1.110   .     S
O205   C206    1.409   .     S
C206   H208    1.113   .     S
H207   C90     1.110   1_655 S
C209   H210    1.111   .     S
C209   H211    1.110   .     S
C209   C90     1.520   1_655 S
C209   H96     1.110   1_655 S
O213   C214    1.414   .     S
C214   H216    1.107   .     S
C214   H217    1.114   .     S
C214   H215    1.110   .     S
O218   C219    1.413   .     S
C219   H221    1.110   .     S
C219   H220    1.115   .     S
C219   H222    1.110   .     S
O223   C224    1.414   .     S
C224   H225    1.114   .     S
C224   H227    1.109   .     S
C224   H226    1.110   .     S
O228   C229    1.414   .     S
C229   H232    1.109   .     S
C229   H230    1.116   .     S
C229   H231    1.109   .     S
C233   C257    1.454   .     S
C233   O270    1.293   .     A
C233   O267    1.299   .     A
C234   C258    1.436   .     S
C234   O268    1.290   .     A
C234   O269    1.293   .     A
C235   C239    1.412   .     A
C235   N265    1.374   .     A
C235   O277    1.379   .     S
C236   C240    1.413   .     A
C236   N266    1.377   .     A
C236   O282    1.375   .     S
C237   N265    1.372   .     A
C237   C241    1.414   .     A
C237   O287    1.379   .     S
C238   O292    1.381   .     S
C238   N266    1.377   .     A
C238   C242    1.419   .     A
C239   H261    1.081   .     S
C239   C245    1.406   .     A
C240   C246    1.402   .     A
C240   H262    1.081   .     S
C241   C245    1.407   .     A
C241   H263    1.081   .     S
C242   C246    1.403   .     A
C242   H264    1.080   .     S
C243   O274    1.280   .     A
C243   C247    1.365   .     S
C243   O271    1.282   .     A
C244   O272    1.282   .     A
C244   C248    1.365   .     S
C244   O273    1.280   .     A
C246   C13     1.519   1_565 S
C247   C1176   1.165   1_554 S
C248   C711    1.165   .     S
C249   C259    1.405   .     A
C249   C253    1.386   .     A
C249   O297    1.388   .     S
C250   C260    1.404   .     A
C250   C254    1.391   .     A
C250   O305    1.385   .     S
C251   C255    1.389   .     A
C251   C260    1.408   .     A
C251   O313    1.387   .     S
C252   C256    1.398   .     A
C252   C259    1.407   .     A
C252   O321    1.387   .     S
C253   O329    1.383   .     S
C253   C257    1.412   .     A
C254   O334    1.388   .     S
C254   C258    1.406   .     A
C255   C258    1.408   .     A
C255   O339    1.384   .     S
C256   O344    1.390   .     S
C256   C257    1.412   .     A
C259   C376    1.442   1_455 S
C260   C375    1.442   .     S
N265   Zn276   2.022   .     S
N266   Zn275   2.022   .     S
O267   Zn275   2.000   .     S
O268   Zn276   2.000   .     S
O269   Zn275   2.000   .     S
O270   Zn276   2.000   .     S
O271   Zn275   1.949   .     S
O272   Zn276   1.949   .     S
O273   Zn275   1.946   .     S
O274   Zn276   1.946   .     S
O277   C278    1.408   .     S
C278   H281    1.114   .     S
C278   H280    1.108   .     S
C278   H279    1.109   .     S
O282   C283    1.412   .     S
C283   H284    1.114   .     S
C283   H285    1.109   .     S
C283   H286    1.112   .     S
O287   C288    1.410   .     S
C288   H289    1.110   .     S
C288   H290    1.111   .     S
C288   H291    1.112   .     S
O292   C293    1.414   .     S
C293   H296    1.110   .     S
C293   H295    1.109   .     S
C293   H294    1.115   .     S
O297   C298    1.412   .     S
C298   H300    1.113   .     S
C298   H415    1.109   1_455 S
C298   C417    1.520   1_455 S
H299   C414    1.109   .     S
C301   H303    1.110   .     S
C301   H304    1.111   .     S
C301   C414    1.520   .     S
C301   H418    1.111   .     S
H302   C417    1.111   1_455 S
O305   C306    1.414   .     S
C306   H308    1.111   .     S
C306   H307    1.115   .     S
C306   C425    1.522   .     S
C309   H310    1.108   .     S
C309   H312    1.110   .     S
C309   C422    1.522   1_455 S
C309   H1239   1.107   1_554 S
H311   C773    1.107   .     S
O313   C430    1.412   .     S
C314   C317    1.521   .     S
C314   H315    1.108   .     S
C314   O429    1.412   1_455 S
C314   H432    1.110   1_455 S
H316   C430    1.110   .     S
C317   H319    1.110   .     S
C317   H318    1.111   .     S
C317   H320    1.110   .     S
O321   C322    1.409   .     S
C322   H324    1.113   .     S
C322   H439    1.110   1_455 S
C322   C441    1.520   1_455 S
H323   C438    1.110   .     S
C325   H326    1.111   .     S
C325   H327    1.110   .     S
C325   C438    1.520   .     S
C325   H444    1.110   .     S
H328   C441    1.110   1_455 S
O329   C330    1.414   .     S
C330   H332    1.107   .     S
C330   H333    1.114   .     S
C330   H331    1.110   .     S
O334   C335    1.413   .     S
C335   H337    1.110   .     S
C335   H336    1.115   .     S
C335   H338    1.110   .     S
O339   C340    1.414   .     S
C340   H341    1.114   .     S
C340   H343    1.109   .     S
C340   H342    1.110   .     S
O344   C345    1.414   .     S
C345   H348    1.109   .     S
C345   H346    1.116   .     S
C345   H347    1.109   .     S
C349   C373    1.454   .     S
C349   O386    1.293   .     A
C349   O383    1.299   .     A
C350   C374    1.436   .     S
C350   O384    1.290   .     A
C350   O385    1.293   .     A
C351   C355    1.412   .     A
C351   N381    1.374   .     A
C351   O393    1.379   .     S
C352   C356    1.413   .     A
C352   N382    1.377   .     A
C352   O398    1.375   .     S
C353   N381    1.372   .     A
C353   C357    1.414   .     A
C353   O403    1.379   .     S
C354   O408    1.381   .     S
C354   N382    1.377   .     A
C354   C358    1.419   .     A
C355   H377    1.081   .     S
C355   C361    1.406   .     A
C356   C362    1.402   .     A
C356   H378    1.081   .     S
C357   C361    1.407   .     A
C357   H379    1.081   .     S
C358   C362    1.403   .     A
C358   H380    1.080   .     S
C359   O390    1.280   .     A
C359   C363    1.365   .     S
C359   O387    1.282   .     A
C360   O388    1.282   .     A
C360   C364    1.365   .     S
C360   O389    1.280   .     A
C362   C129    1.519   1_565 S
C363   C1292   1.165   1_554 S
C364   C827    1.165   .     S
C365   C375    1.405   .     A
C365   C369    1.386   .     A
C365   O413    1.388   .     S
C366   C376    1.404   .     A
C366   C370    1.391   .     A
C366   O421    1.385   .     S
C367   C371    1.389   .     A
C367   C376    1.408   .     A
C367   O429    1.387   .     S
C368   C372    1.398   .     A
C368   C375    1.407   .     A
C368   O437    1.387   .     S
C369   O445    1.383   .     S
C369   C373    1.412   .     A
C370   O450    1.388   .     S
C370   C374    1.406   .     A
C371   C374    1.408   .     A
C371   O455    1.384   .     S
C372   O460    1.390   .     S
C372   C373    1.412   .     A
C376   C259    1.442   1_655 S
N381   Zn392   2.022   .     S
N382   Zn391   2.022   .     S
O383   Zn391   2.000   .     S
O384   Zn392   2.000   .     S
O385   Zn391   2.000   .     S
O386   Zn392   2.000   .     S
O387   Zn391   1.949   .     S
O388   Zn392   1.949   .     S
O389   Zn391   1.946   .     S
O390   Zn392   1.946   .     S
O393   C394    1.408   .     S
C394   H397    1.114   .     S
C394   H396    1.108   .     S
C394   H395    1.109   .     S
O398   C399    1.412   .     S
C399   H400    1.114   .     S
C399   H401    1.109   .     S
C399   H402    1.112   .     S
O403   C404    1.410   .     S
C404   H405    1.110   .     S
C404   H406    1.111   .     S
C404   H407    1.112   .     S
O408   C409    1.414   .     S
C409   H412    1.110   .     S
C409   H411    1.109   .     S
C409   H410    1.115   .     S
O413   C414    1.412   .     S
C414   H416    1.113   .     S
H415   C298    1.109   1_655 S
C417   H419    1.110   .     S
C417   H420    1.111   .     S
C417   C298    1.520   1_655 S
C417   H302    1.111   1_655 S
O421   C422    1.414   .     S
C422   H424    1.111   .     S
C422   H423    1.115   .     S
C422   C309    1.522   1_655 S
C425   H426    1.108   .     S
C425   H428    1.110   .     S
C425   H1355   1.107   1_554 S
H427   C889    1.107   .     S
O429   C314    1.412   1_655 S
C430   C433    1.521   .     S
C430   H431    1.108   .     S
H432   C314    1.110   1_655 S
C433   H435    1.110   .     S
C433   H434    1.111   .     S
C433   H436    1.110   .     S
O437   C438    1.409   .     S
C438   H440    1.113   .     S
H439   C322    1.110   1_655 S
C441   H442    1.111   .     S
C441   H443    1.110   .     S
C441   C322    1.520   1_655 S
C441   H328    1.110   1_655 S
O445   C446    1.414   .     S
C446   H448    1.107   .     S
C446   H449    1.114   .     S
C446   H447    1.110   .     S
O450   C451    1.413   .     S
C451   H453    1.110   .     S
C451   H452    1.115   .     S
C451   H454    1.110   .     S
O455   C456    1.414   .     S
C456   H457    1.114   .     S
C456   H459    1.109   .     S
C456   H458    1.110   .     S
O460   C461    1.414   .     S
C461   H464    1.109   .     S
C461   H462    1.116   .     S
C461   H463    1.109   .     S
C465   C489    1.454   .     S
C465   O502    1.293   .     A
C465   O499    1.299   .     A
C466   C490    1.436   .     S
C466   O500    1.290   .     A
C466   O501    1.293   .     A
C467   C471    1.412   .     A
C467   N497    1.374   .     A
C467   O509    1.379   .     S
C468   C472    1.413   .     A
C468   N498    1.377   .     A
C468   O514    1.375   .     S
C469   N497    1.372   .     A
C469   C473    1.414   .     A
C469   O519    1.379   .     S
C470   O524    1.381   .     S
C470   N498    1.377   .     A
C470   C474    1.419   .     A
C471   H493    1.081   .     S
C471   C477    1.406   .     A
C472   C478    1.402   .     A
C472   H494    1.081   .     S
C473   C477    1.407   .     A
C473   H495    1.081   .     S
C474   C478    1.403   .     A
C474   H496    1.080   .     S
C475   O506    1.280   .     A
C475   C479    1.365   .     S
C475   O503    1.282   .     A
C476   O504    1.282   .     A
C476   C480    1.365   .     S
C476   O505    1.280   .     A
C477   C710    1.519   1_545 S
C478   C709    1.519   .     S
C480   C943    1.165   .     S
C481   C491    1.405   .     A
C481   C485    1.386   .     A
C481   O529    1.388   .     S
C482   C492    1.404   .     A
C482   C486    1.391   .     A
C482   O537    1.385   .     S
C483   C487    1.389   .     A
C483   C492    1.408   .     A
C483   O545    1.387   .     S
C484   C488    1.398   .     A
C484   C491    1.407   .     A
C484   O553    1.387   .     S
C485   O561    1.383   .     S
C485   C489    1.412   .     A
C486   O566    1.388   .     S
C486   C490    1.406   .     A
C487   C490    1.408   .     A
C487   O571    1.384   .     S
C488   O576    1.390   .     S
C488   C489    1.412   .     A
C491   C608    1.442   1_455 S
C492   C607    1.442   .     S
N497   Zn508   2.022   .     S
N498   Zn507   2.022   .     S
O499   Zn507   2.000   .     S
O500   Zn508   2.000   .     S
O501   Zn507   2.000   .     S
O502   Zn508   2.000   .     S
O503   Zn507   1.949   .     S
O504   Zn508   1.949   .     S
O505   Zn507   1.946   .     S
O506   Zn508   1.946   .     S
O509   C510    1.408   .     S
C510   H513    1.114   .     S
C510   H512    1.108   .     S
C510   H511    1.109   .     S
O514   C515    1.412   .     S
C515   H516    1.114   .     S
C515   H517    1.109   .     S
C515   H518    1.112   .     S
O519   C520    1.410   .     S
C520   H521    1.110   .     S
C520   H522    1.111   .     S
C520   H523    1.112   .     S
O524   C525    1.414   .     S
C525   H528    1.110   .     S
C525   H527    1.109   .     S
C525   H526    1.115   .     S
O529   C530    1.412   .     S
C530   H532    1.113   .     S
C530   H647    1.109   1_455 S
C530   C649    1.520   1_455 S
H531   C646    1.109   .     S
C533   H535    1.110   .     S
C533   H536    1.111   .     S
C533   C646    1.520   .     S
C533   H650    1.111   .     S
H534   C649    1.111   1_455 S
O537   C538    1.414   .     S
C538   H540    1.111   .     S
C538   H539    1.115   .     S
C538   C657    1.522   .     S
C541   H542    1.108   .     S
C541   H544    1.110   .     S
C541   C654    1.522   1_455 S
H543   C1005   1.107   .     S
O545   C662    1.412   .     S
C546   C549    1.521   .     S
C546   H547    1.108   .     S
C546   O661    1.412   1_455 S
C546   H664    1.110   1_455 S
H548   C662    1.110   .     S
C549   H551    1.110   .     S
C549   H550    1.111   .     S
C549   H552    1.110   .     S
O553   C554    1.409   .     S
C554   H556    1.113   .     S
C554   H671    1.110   1_455 S
C554   C673    1.520   1_455 S
H555   C670    1.110   .     S
C557   H558    1.111   .     S
C557   H559    1.110   .     S
C557   C670    1.520   .     S
C557   H676    1.110   .     S
H560   C673    1.110   1_455 S
O561   C562    1.414   .     S
C562   H564    1.107   .     S
C562   H565    1.114   .     S
C562   H563    1.110   .     S
O566   C567    1.413   .     S
C567   H569    1.110   .     S
C567   H568    1.115   .     S
C567   H570    1.110   .     S
O571   C572    1.414   .     S
C572   H573    1.114   .     S
C572   H575    1.109   .     S
C572   H574    1.110   .     S
O576   C577    1.414   .     S
C577   H580    1.109   .     S
C577   H578    1.116   .     S
C577   H579    1.109   .     S
C581   C605    1.454   .     S
C581   O618    1.293   .     A
C581   O615    1.299   .     A
C582   C606    1.436   .     S
C582   O616    1.290   .     A
C582   O617    1.293   .     A
C583   C587    1.412   .     A
C583   N613    1.374   .     A
C583   O625    1.379   .     S
C584   C588    1.413   .     A
C584   N614    1.377   .     A
C584   O630    1.375   .     S
C585   N613    1.372   .     A
C585   C589    1.414   .     A
C585   O635    1.379   .     S
C586   O640    1.381   .     S
C586   N614    1.377   .     A
C586   C590    1.419   .     A
C587   H609    1.081   .     S
C587   C593    1.406   .     A
C588   C594    1.402   .     A
C588   H610    1.081   .     S
C589   C593    1.407   .     A
C589   H611    1.081   .     S
C590   C594    1.403   .     A
C590   H612    1.080   .     S
C591   O622    1.280   .     A
C591   C595    1.365   .     S
C591   O619    1.282   .     A
C592   O620    1.282   .     A
C592   C596    1.365   .     S
C592   O621    1.280   .     A
C593   C826    1.519   1_545 S
C594   C825    1.519   .     S
C596   C1059   1.165   .     S
C597   C607    1.405   .     A
C597   C601    1.386   .     A
C597   O645    1.388   .     S
C598   C608    1.404   .     A
C598   C602    1.391   .     A
C598   O653    1.385   .     S
C599   C603    1.389   .     A
C599   C608    1.408   .     A
C599   O661    1.387   .     S
C600   C604    1.398   .     A
C600   C607    1.407   .     A
C600   O669    1.387   .     S
C601   O677    1.383   .     S
C601   C605    1.412   .     A
C602   O682    1.388   .     S
C602   C606    1.406   .     A
C603   C606    1.408   .     A
C603   O687    1.384   .     S
C604   O692    1.390   .     S
C604   C605    1.412   .     A
C608   C491    1.442   1_655 S
N613   Zn624   2.022   .     S
N614   Zn623   2.022   .     S
O615   Zn623   2.000   .     S
O616   Zn624   2.000   .     S
O617   Zn623   2.000   .     S
O618   Zn624   2.000   .     S
O619   Zn623   1.949   .     S
O620   Zn624   1.949   .     S
O621   Zn623   1.946   .     S
O622   Zn624   1.946   .     S
O625   C626    1.408   .     S
C626   H629    1.114   .     S
C626   H628    1.108   .     S
C626   H627    1.109   .     S
O630   C631    1.412   .     S
C631   H632    1.114   .     S
C631   H633    1.109   .     S
C631   H634    1.112   .     S
O635   C636    1.410   .     S
C636   H637    1.110   .     S
C636   H638    1.111   .     S
C636   H639    1.112   .     S
O640   C641    1.414   .     S
C641   H644    1.110   .     S
C641   H643    1.109   .     S
C641   H642    1.115   .     S
O645   C646    1.412   .     S
C646   H648    1.113   .     S
H647   C530    1.109   1_655 S
C649   H651    1.110   .     S
C649   H652    1.111   .     S
C649   C530    1.520   1_655 S
C649   H534    1.111   1_655 S
O653   C654    1.414   .     S
C654   H656    1.111   .     S
C654   H655    1.115   .     S
C654   C541    1.522   1_655 S
C657   H658    1.108   .     S
C657   H660    1.110   .     S
H659   C1121   1.107   .     S
O661   C546    1.412   1_655 S
C662   C665    1.521   .     S
C662   H663    1.108   .     S
H664   C546    1.110   1_655 S
C665   H667    1.110   .     S
C665   H666    1.111   .     S
C665   H668    1.110   .     S
O669   C670    1.409   .     S
C670   H672    1.113   .     S
H671   C554    1.110   1_655 S
C673   H674    1.111   .     S
C673   H675    1.110   .     S
C673   C554    1.520   1_655 S
C673   H560    1.110   1_655 S
O677   C678    1.414   .     S
C678   H680    1.107   .     S
C678   H681    1.114   .     S
C678   H679    1.110   .     S
O682   C683    1.413   .     S
C683   H685    1.110   .     S
C683   H684    1.115   .     S
C683   H686    1.110   .     S
O687   C688    1.414   .     S
C688   H689    1.114   .     S
C688   H691    1.109   .     S
C688   H690    1.110   .     S
O692   C693    1.414   .     S
C693   H696    1.109   .     S
C693   H694    1.116   .     S
C693   H695    1.109   .     S
C697   C721    1.454   .     S
C697   O734    1.293   .     A
C697   O731    1.299   .     A
C698   C722    1.436   .     S
C698   O732    1.290   .     A
C698   O733    1.293   .     A
C699   C703    1.412   .     A
C699   N729    1.374   .     A
C699   O741    1.379   .     S
C700   C704    1.413   .     A
C700   N730    1.377   .     A
C700   O746    1.375   .     S
C701   N729    1.372   .     A
C701   C705    1.414   .     A
C701   O751    1.379   .     S
C702   O756    1.381   .     S
C702   N730    1.377   .     A
C702   C706    1.419   .     A
C703   H725    1.081   .     S
C703   C709    1.406   .     A
C704   C710    1.402   .     A
C704   H726    1.081   .     S
C705   C709    1.407   .     A
C705   H727    1.081   .     S
C706   C710    1.403   .     A
C706   H728    1.080   .     S
C707   O738    1.280   .     A
C707   C711    1.365   .     S
C707   O735    1.282   .     A
C708   O736    1.282   .     A
C708   C712    1.365   .     S
C708   O737    1.280   .     A
C710   C477    1.519   1_565 S
C712   C1175   1.165   .     S
C713   C723    1.405   .     A
C713   C717    1.386   .     A
C713   O761    1.388   .     S
C714   C724    1.404   .     A
C714   C718    1.391   .     A
C714   O769    1.385   .     S
C715   C719    1.389   .     A
C715   C724    1.408   .     A
C715   O777    1.387   .     S
C716   C720    1.398   .     A
C716   C723    1.407   .     A
C716   O785    1.387   .     S
C717   O793    1.383   .     S
C717   C721    1.412   .     A
C718   O798    1.388   .     S
C718   C722    1.406   .     A
C719   C722    1.408   .     A
C719   O803    1.384   .     S
C720   O808    1.390   .     S
C720   C721    1.412   .     A
C723   C840    1.442   1_455 S
C724   C839    1.442   .     S
N729   Zn740   2.022   .     S
N730   Zn739   2.022   .     S
O731   Zn739   2.000   .     S
O732   Zn740   2.000   .     S
O733   Zn739   2.000   .     S
O734   Zn740   2.000   .     S
O735   Zn739   1.949   .     S
O736   Zn740   1.949   .     S
O737   Zn739   1.946   .     S
O738   Zn740   1.946   .     S
O741   C742    1.408   .     S
C742   H745    1.114   .     S
C742   H744    1.108   .     S
C742   H743    1.109   .     S
O746   C747    1.412   .     S
C747   H748    1.114   .     S
C747   H749    1.109   .     S
C747   H750    1.112   .     S
O751   C752    1.410   .     S
C752   H753    1.110   .     S
C752   H754    1.111   .     S
C752   H755    1.112   .     S
O756   C757    1.414   .     S
C757   H760    1.110   .     S
C757   H759    1.109   .     S
C757   H758    1.115   .     S
O761   C762    1.412   .     S
C762   H764    1.113   .     S
C762   H879    1.109   1_455 S
C762   C881    1.520   1_455 S
H763   C878    1.109   .     S
C765   H767    1.110   .     S
C765   H768    1.111   .     S
C765   C878    1.520   .     S
C765   H882    1.111   .     S
H766   C881    1.111   1_455 S
O769   C770    1.414   .     S
C770   H772    1.111   .     S
C770   H771    1.115   .     S
C770   C889    1.522   .     S
C773   H774    1.108   .     S
C773   H776    1.110   .     S
C773   C886    1.522   1_455 S
H775   C1237   1.107   .     S
O777   C894    1.412   .     S
C778   C781    1.521   .     S
C778   H779    1.108   .     S
C778   O893    1.412   1_455 S
C778   H896    1.110   1_455 S
H780   C894    1.110   .     S
C781   H783    1.110   .     S
C781   H782    1.111   .     S
C781   H784    1.110   .     S
O785   C786    1.409   .     S
C786   H788    1.113   .     S
C786   H903    1.110   1_455 S
C786   C905    1.520   1_455 S
H787   C902    1.110   .     S
C789   H790    1.111   .     S
C789   H791    1.110   .     S
C789   C902    1.520   .     S
C789   H908    1.110   .     S
H792   C905    1.110   1_455 S
O793   C794    1.414   .     S
C794   H796    1.107   .     S
C794   H797    1.114   .     S
C794   H795    1.110   .     S
O798   C799    1.413   .     S
C799   H801    1.110   .     S
C799   H800    1.115   .     S
C799   H802    1.110   .     S
O803   C804    1.414   .     S
C804   H805    1.114   .     S
C804   H807    1.109   .     S
C804   H806    1.110   .     S
O808   C809    1.414   .     S
C809   H812    1.109   .     S
C809   H810    1.116   .     S
C809   H811    1.109   .     S
C813   C837    1.454   .     S
C813   O850    1.293   .     A
C813   O847    1.299   .     A
C814   C838    1.436   .     S
C814   O848    1.290   .     A
C814   O849    1.293   .     A
C815   C819    1.412   .     A
C815   N845    1.374   .     A
C815   O857    1.379   .     S
C816   C820    1.413   .     A
C816   N846    1.377   .     A
C816   O862    1.375   .     S
C817   N845    1.372   .     A
C817   C821    1.414   .     A
C817   O867    1.379   .     S
C818   O872    1.381   .     S
C818   N846    1.377   .     A
C818   C822    1.419   .     A
C819   H841    1.081   .     S
C819   C825    1.406   .     A
C820   C826    1.402   .     A
C820   H842    1.081   .     S
C821   C825    1.407   .     A
C821   H843    1.081   .     S
C822   C826    1.403   .     A
C822   H844    1.080   .     S
C823   O854    1.280   .     A
C823   C827    1.365   .     S
C823   O851    1.282   .     A
C824   O852    1.282   .     A
C824   C828    1.365   .     S
C824   O853    1.280   .     A
C826   C593    1.519   1_565 S
C828   C1291   1.165   .     S
C829   C839    1.405   .     A
C829   C833    1.386   .     A
C829   O877    1.388   .     S
C830   C840    1.404   .     A
C830   C834    1.391   .     A
C830   O885    1.385   .     S
C831   C835    1.389   .     A
C831   C840    1.408   .     A
C831   O893    1.387   .     S
C832   C836    1.398   .     A
C832   C839    1.407   .     A
C832   O901    1.387   .     S
C833   O909    1.383   .     S
C833   C837    1.412   .     A
C834   O914    1.388   .     S
C834   C838    1.406   .     A
C835   C838    1.408   .     A
C835   O919    1.384   .     S
C836   O924    1.390   .     S
C836   C837    1.412   .     A
C840   C723    1.442   1_655 S
N845   Zn856   2.022   .     S
N846   Zn855   2.022   .     S
O847   Zn855   2.000   .     S
O848   Zn856   2.000   .     S
O849   Zn855   2.000   .     S
O850   Zn856   2.000   .     S
O851   Zn855   1.949   .     S
O852   Zn856   1.949   .     S
O853   Zn855   1.946   .     S
O854   Zn856   1.946   .     S
O857   C858    1.408   .     S
C858   H861    1.114   .     S
C858   H860    1.108   .     S
C858   H859    1.109   .     S
O862   C863    1.412   .     S
C863   H864    1.114   .     S
C863   H865    1.109   .     S
C863   H866    1.112   .     S
O867   C868    1.410   .     S
C868   H869    1.110   .     S
C868   H870    1.111   .     S
C868   H871    1.112   .     S
O872   C873    1.414   .     S
C873   H876    1.110   .     S
C873   H875    1.109   .     S
C873   H874    1.115   .     S
O877   C878    1.412   .     S
C878   H880    1.113   .     S
H879   C762    1.109   1_655 S
C881   H883    1.110   .     S
C881   H884    1.111   .     S
C881   C762    1.520   1_655 S
C881   H766    1.111   1_655 S
O885   C886    1.414   .     S
C886   H888    1.111   .     S
C886   H887    1.115   .     S
C886   C773    1.522   1_655 S
C889   H890    1.108   .     S
C889   H892    1.110   .     S
H891   C1353   1.107   .     S
O893   C778    1.412   1_655 S
C894   C897    1.521   .     S
C894   H895    1.108   .     S
H896   C778    1.110   1_655 S
C897   H899    1.110   .     S
C897   H898    1.111   .     S
C897   H900    1.110   .     S
O901   C902    1.409   .     S
C902   H904    1.113   .     S
H903   C786    1.110   1_655 S
C905   H906    1.111   .     S
C905   H907    1.110   .     S
C905   C786    1.520   1_655 S
C905   H792    1.110   1_655 S
O909   C910    1.414   .     S
C910   H912    1.107   .     S
C910   H913    1.114   .     S
C910   H911    1.110   .     S
O914   C915    1.413   .     S
C915   H917    1.110   .     S
C915   H916    1.115   .     S
C915   H918    1.110   .     S
O919   C920    1.414   .     S
C920   H921    1.114   .     S
C920   H923    1.109   .     S
C920   H922    1.110   .     S
O924   C925    1.414   .     S
C925   H928    1.109   .     S
C925   H926    1.116   .     S
C925   H927    1.109   .     S
C929   C953    1.454   .     S
C929   O966    1.293   .     A
C929   O963    1.299   .     A
C930   C954    1.436   .     S
C930   O964    1.290   .     A
C930   O965    1.293   .     A
C931   C935    1.412   .     A
C931   N961    1.374   .     A
C931   O973    1.379   .     S
C932   C936    1.413   .     A
C932   N962    1.377   .     A
C932   O978    1.375   .     S
C933   N961    1.372   .     A
C933   C937    1.414   .     A
C933   O983    1.379   .     S
C934   O988    1.381   .     S
C934   N962    1.377   .     A
C934   C938    1.419   .     A
C935   H957    1.081   .     S
C935   C941    1.406   .     A
C936   C942    1.402   .     A
C936   H958    1.081   .     S
C937   C941    1.407   .     A
C937   H959    1.081   .     S
C938   C942    1.403   .     A
C938   H960    1.080   .     S
C939   O970    1.280   .     A
C939   C943    1.365   .     S
C939   O967    1.282   .     A
C940   O968    1.282   .     A
C940   C944    1.365   .     S
C940   O969    1.280   .     A
C941   C1174   1.519   1_545 S
C942   C1173   1.519   .     S
C944   C15     1.165   1_556 S
C945   C955    1.405   .     A
C945   C949    1.386   .     A
C945   O993    1.388   .     S
C946   C956    1.404   .     A
C946   C950    1.391   .     A
C946   O1001   1.385   .     S
C947   C951    1.389   .     A
C947   C956    1.408   .     A
C947   O1009   1.387   .     S
C948   C952    1.398   .     A
C948   C955    1.407   .     A
C948   O1017   1.387   .     S
C949   O1025   1.383   .     S
C949   C953    1.412   .     A
C950   O1030   1.388   .     S
C950   C954    1.406   .     A
C951   C954    1.408   .     A
C951   O1035   1.384   .     S
C952   O1040   1.390   .     S
C952   C953    1.412   .     A
C955   C1072   1.442   1_455 S
C956   C1071   1.442   .     S
N961   Zn972   2.022   .     S
N962   Zn971   2.022   .     S
O963   Zn971   2.000   .     S
O964   Zn972   2.000   .     S
O965   Zn971   2.000   .     S
O966   Zn972   2.000   .     S
O967   Zn971   1.949   .     S
O968   Zn972   1.949   .     S
O969   Zn971   1.946   .     S
O970   Zn972   1.946   .     S
O973   C974    1.408   .     S
C974   H977    1.114   .     S
C974   H976    1.108   .     S
C974   H975    1.109   .     S
O978   C979    1.412   .     S
C979   H980    1.114   .     S
C979   H981    1.109   .     S
C979   H982    1.112   .     S
O983   C984    1.410   .     S
C984   H985    1.110   .     S
C984   H986    1.111   .     S
C984   H987    1.112   .     S
O988   C989    1.414   .     S
C989   H992    1.110   .     S
C989   H991    1.109   .     S
C989   H990    1.115   .     S
O993   C994    1.412   .     S
C994   H996    1.113   .     S
C994   H1111   1.109   1_455 S
C994   C1113   1.520   1_455 S
H995   C1110   1.109   .     S
C997   H999    1.110   .     S
C997   H1000   1.111   .     S
C997   C1110   1.520   .     S
C997   H1114   1.111   .     S
H998   C1113   1.111   1_455 S
O1001  C1002   1.414   .     S
C1002  H1004   1.111   .     S
C1002  H1003   1.115   .     S
C1002  C1121   1.522   .     S
C1005  H1006   1.108   .     S
C1005  H1008   1.110   .     S
C1005  C1118   1.522   1_455 S
H1007  C77     1.107   1_556 S
O1009  C1126   1.412   .     S
C1010  C1013   1.521   .     S
C1010  H1011   1.108   .     S
C1010  O1125   1.412   1_455 S
C1010  H1128   1.110   1_455 S
H1012  C1126   1.110   .     S
C1013  H1015   1.110   .     S
C1013  H1014   1.111   .     S
C1013  H1016   1.110   .     S
O1017  C1018   1.409   .     S
C1018  H1020   1.113   .     S
C1018  H1135   1.110   1_455 S
C1018  C1137   1.520   1_455 S
H1019  C1134   1.110   .     S
C1021  H1022   1.111   .     S
C1021  H1023   1.110   .     S
C1021  C1134   1.520   .     S
C1021  H1140   1.110   .     S
H1024  C1137   1.110   1_455 S
O1025  C1026   1.414   .     S
C1026  H1028   1.107   .     S
C1026  H1029   1.114   .     S
C1026  H1027   1.110   .     S
O1030  C1031   1.413   .     S
C1031  H1033   1.110   .     S
C1031  H1032   1.115   .     S
C1031  H1034   1.110   .     S
O1035  C1036   1.414   .     S
C1036  H1037   1.114   .     S
C1036  H1039   1.109   .     S
C1036  H1038   1.110   .     S
O1040  C1041   1.414   .     S
C1041  H1044   1.109   .     S
C1041  H1042   1.116   .     S
C1041  H1043   1.109   .     S
C1045  C1069   1.454   .     S
C1045  O1082   1.293   .     A
C1045  O1079   1.299   .     A
C1046  C1070   1.436   .     S
C1046  O1080   1.290   .     A
C1046  O1081   1.293   .     A
C1047  C1051   1.412   .     A
C1047  N1077   1.374   .     A
C1047  O1089   1.379   .     S
C1048  C1052   1.413   .     A
C1048  N1078   1.377   .     A
C1048  O1094   1.375   .     S
C1049  N1077   1.372   .     A
C1049  C1053   1.414   .     A
C1049  O1099   1.379   .     S
C1050  O1104   1.381   .     S
C1050  N1078   1.377   .     A
C1050  C1054   1.419   .     A
C1051  H1073   1.081   .     S
C1051  C1057   1.406   .     A
C1052  C1058   1.402   .     A
C1052  H1074   1.081   .     S
C1053  C1057   1.407   .     A
C1053  H1075   1.081   .     S
C1054  C1058   1.403   .     A
C1054  H1076   1.080   .     S
C1055  O1086   1.280   .     A
C1055  C1059   1.365   .     S
C1055  O1083   1.282   .     A
C1056  O1084   1.282   .     A
C1056  C1060   1.365   .     S
C1056  O1085   1.280   .     A
C1057  C1290   1.519   1_545 S
C1058  C1289   1.519   .     S
C1060  C131    1.165   1_556 S
C1061  C1071   1.405   .     A
C1061  C1065   1.386   .     A
C1061  O1109   1.388   .     S
C1062  C1072   1.404   .     A
C1062  C1066   1.391   .     A
C1062  O1117   1.385   .     S
C1063  C1067   1.389   .     A
C1063  C1072   1.408   .     A
C1063  O1125   1.387   .     S
C1064  C1068   1.398   .     A
C1064  C1071   1.407   .     A
C1064  O1133   1.387   .     S
C1065  O1141   1.383   .     S
C1065  C1069   1.412   .     A
C1066  O1146   1.388   .     S
C1066  C1070   1.406   .     A
C1067  C1070   1.408   .     A
C1067  O1151   1.384   .     S
C1068  O1156   1.390   .     S
C1068  C1069   1.412   .     A
C1072  C955    1.442   1_655 S
N1077  Zn1088  2.022   .     S
N1078  Zn1087  2.022   .     S
O1079  Zn1087  2.000   .     S
O1080  Zn1088  2.000   .     S
O1081  Zn1087  2.000   .     S
O1082  Zn1088  2.000   .     S
O1083  Zn1087  1.949   .     S
O1084  Zn1088  1.949   .     S
O1085  Zn1087  1.946   .     S
O1086  Zn1088  1.946   .     S
O1089  C1090   1.408   .     S
C1090  H1093   1.114   .     S
C1090  H1092   1.108   .     S
C1090  H1091   1.109   .     S
O1094  C1095   1.412   .     S
C1095  H1096   1.114   .     S
C1095  H1097   1.109   .     S
C1095  H1098   1.112   .     S
O1099  C1100   1.410   .     S
C1100  H1101   1.110   .     S
C1100  H1102   1.111   .     S
C1100  H1103   1.112   .     S
O1104  C1105   1.414   .     S
C1105  H1108   1.110   .     S
C1105  H1107   1.109   .     S
C1105  H1106   1.115   .     S
O1109  C1110   1.412   .     S
C1110  H1112   1.113   .     S
H1111  C994    1.109   1_655 S
C1113  H1115   1.110   .     S
C1113  H1116   1.111   .     S
C1113  C994    1.520   1_655 S
C1113  H998    1.111   1_655 S
O1117  C1118   1.414   .     S
C1118  H1120   1.111   .     S
C1118  H1119   1.115   .     S
C1118  C1005   1.522   1_655 S
C1121  H1122   1.108   .     S
C1121  H1124   1.110   .     S
H1123  C193    1.107   1_556 S
O1125  C1010   1.412   1_655 S
C1126  C1129   1.521   .     S
C1126  H1127   1.108   .     S
H1128  C1010   1.110   1_655 S
C1129  H1131   1.110   .     S
C1129  H1130   1.111   .     S
C1129  H1132   1.110   .     S
O1133  C1134   1.409   .     S
C1134  H1136   1.113   .     S
H1135  C1018   1.110   1_655 S
C1137  H1138   1.111   .     S
C1137  H1139   1.110   .     S
C1137  C1018   1.520   1_655 S
C1137  H1024   1.110   1_655 S
O1141  C1142   1.414   .     S
C1142  H1144   1.107   .     S
C1142  H1145   1.114   .     S
C1142  H1143   1.110   .     S
O1146  C1147   1.413   .     S
C1147  H1149   1.110   .     S
C1147  H1148   1.115   .     S
C1147  H1150   1.110   .     S
O1151  C1152   1.414   .     S
C1152  H1153   1.114   .     S
C1152  H1155   1.109   .     S
C1152  H1154   1.110   .     S
O1156  C1157   1.414   .     S
C1157  H1160   1.109   .     S
C1157  H1158   1.116   .     S
C1157  H1159   1.109   .     S
C1161  C1185   1.454   .     S
C1161  O1198   1.293   .     A
C1161  O1195   1.299   .     A
C1162  C1186   1.436   .     S
C1162  O1196   1.290   .     A
C1162  O1197   1.293   .     A
C1163  C1167   1.412   .     A
C1163  N1193   1.374   .     A
C1163  O1205   1.379   .     S
C1164  C1168   1.413   .     A
C1164  N1194   1.377   .     A
C1164  O1210   1.375   .     S
C1165  N1193   1.372   .     A
C1165  C1169   1.414   .     A
C1165  O1215   1.379   .     S
C1166  O1220   1.381   .     S
C1166  N1194   1.377   .     A
C1166  C1170   1.419   .     A
C1167  H1189   1.081   .     S
C1167  C1173   1.406   .     A
C1168  C1174   1.402   .     A
C1168  H1190   1.081   .     S
C1169  C1173   1.407   .     A
C1169  H1191   1.081   .     S
C1170  C1174   1.403   .     A
C1170  H1192   1.080   .     S
C1171  O1202   1.280   .     A
C1171  C1175   1.365   .     S
C1171  O1199   1.282   .     A
C1172  O1200   1.282   .     A
C1172  C1176   1.365   .     S
C1172  O1201   1.280   .     A
C1174  C941    1.519   1_565 S
C1176  C247    1.165   1_556 S
C1177  C1187   1.405   .     A
C1177  C1181   1.386   .     A
C1177  O1225   1.388   .     S
C1178  C1188   1.404   .     A
C1178  C1182   1.391   .     A
C1178  O1233   1.385   .     S
C1179  C1183   1.389   .     A
C1179  C1188   1.408   .     A
C1179  O1241   1.387   .     S
C1180  C1184   1.398   .     A
C1180  C1187   1.407   .     A
C1180  O1249   1.387   .     S
C1181  O1257   1.383   .     S
C1181  C1185   1.412   .     A
C1182  O1262   1.388   .     S
C1182  C1186   1.406   .     A
C1183  C1186   1.408   .     A
C1183  O1267   1.384   .     S
C1184  O1272   1.390   .     S
C1184  C1185   1.412   .     A
C1187  C1304   1.442   1_455 S
C1188  C1303   1.442   .     S
N1193  Zn1204  2.022   .     S
N1194  Zn1203  2.022   .     S
O1195  Zn1203  2.000   .     S
O1196  Zn1204  2.000   .     S
O1197  Zn1203  2.000   .     S
O1198  Zn1204  2.000   .     S
O1199  Zn1203  1.949   .     S
O1200  Zn1204  1.949   .     S
O1201  Zn1203  1.946   .     S
O1202  Zn1204  1.946   .     S
O1205  C1206   1.408   .     S
C1206  H1209   1.114   .     S
C1206  H1208   1.108   .     S
C1206  H1207   1.109   .     S
O1210  C1211   1.412   .     S
C1211  H1212   1.114   .     S
C1211  H1213   1.109   .     S
C1211  H1214   1.112   .     S
O1215  C1216   1.410   .     S
C1216  H1217   1.110   .     S
C1216  H1218   1.111   .     S
C1216  H1219   1.112   .     S
O1220  C1221   1.414   .     S
C1221  H1224   1.110   .     S
C1221  H1223   1.109   .     S
C1221  H1222   1.115   .     S
O1225  C1226   1.412   .     S
C1226  H1228   1.113   .     S
C1226  H1343   1.109   1_455 S
C1226  C1345   1.520   1_455 S
H1227  C1342   1.109   .     S
C1229  H1231   1.110   .     S
C1229  H1232   1.111   .     S
C1229  C1342   1.520   .     S
C1229  H1346   1.111   .     S
H1230  C1345   1.111   1_455 S
O1233  C1234   1.414   .     S
C1234  H1236   1.111   .     S
C1234  H1235   1.115   .     S
C1234  C1353   1.522   .     S
C1237  H1238   1.108   .     S
C1237  H1240   1.110   .     S
C1237  C1350   1.522   1_455 S
H1239  C309    1.107   1_556 S
O1241  C1358   1.412   .     S
C1242  C1245   1.521   .     S
C1242  H1243   1.108   .     S
C1242  O1357   1.412   1_455 S
C1242  H1360   1.110   1_455 S
H1244  C1358   1.110   .     S
C1245  H1247   1.110   .     S
C1245  H1246   1.111   .     S
C1245  H1248   1.110   .     S
O1249  C1250   1.409   .     S
C1250  H1252   1.113   .     S
C1250  H1367   1.110   1_455 S
C1250  C1369   1.520   1_455 S
H1251  C1366   1.110   .     S
C1253  H1254   1.111   .     S
C1253  H1255   1.110   .     S
C1253  C1366   1.520   .     S
C1253  H1372   1.110   .     S
H1256  C1369   1.110   1_455 S
O1257  C1258   1.414   .     S
C1258  H1260   1.107   .     S
C1258  H1261   1.114   .     S
C1258  H1259   1.110   .     S
O1262  C1263   1.413   .     S
C1263  H1265   1.110   .     S
C1263  H1264   1.115   .     S
C1263  H1266   1.110   .     S
O1267  C1268   1.414   .     S
C1268  H1269   1.114   .     S
C1268  H1271   1.109   .     S
C1268  H1270   1.110   .     S
O1272  C1273   1.414   .     S
C1273  H1276   1.109   .     S
C1273  H1274   1.116   .     S
C1273  H1275   1.109   .     S
C1277  C1301   1.454   .     S
C1277  O1314   1.293   .     A
C1277  O1311   1.299   .     A
C1278  C1302   1.436   .     S
C1278  O1312   1.290   .     A
C1278  O1313   1.293   .     A
C1279  C1283   1.412   .     A
C1279  N1309   1.374   .     A
C1279  O1321   1.379   .     S
C1280  C1284   1.413   .     A
C1280  N1310   1.377   .     A
C1280  O1326   1.375   .     S
C1281  N1309   1.372   .     A
C1281  C1285   1.414   .     A
C1281  O1331   1.379   .     S
C1282  O1336   1.381   .     S
C1282  N1310   1.377   .     A
C1282  C1286   1.419   .     A
C1283  H1305   1.081   .     S
C1283  C1289   1.406   .     A
C1284  C1290   1.402   .     A
C1284  H1306   1.081   .     S
C1285  C1289   1.407   .     A
C1285  H1307   1.081   .     S
C1286  C1290   1.403   .     A
C1286  H1308   1.080   .     S
C1287  O1318   1.280   .     A
C1287  C1291   1.365   .     S
C1287  O1315   1.282   .     A
C1288  O1316   1.282   .     A
C1288  C1292   1.365   .     S
C1288  O1317   1.280   .     A
C1290  C1057   1.519   1_565 S
C1292  C363    1.165   1_556 S
C1293  C1303   1.405   .     A
C1293  C1297   1.386   .     A
C1293  O1341   1.388   .     S
C1294  C1304   1.404   .     A
C1294  C1298   1.391   .     A
C1294  O1349   1.385   .     S
C1295  C1299   1.389   .     A
C1295  C1304   1.408   .     A
C1295  O1357   1.387   .     S
C1296  C1300   1.398   .     A
C1296  C1303   1.407   .     A
C1296  O1365   1.387   .     S
C1297  O1373   1.383   .     S
C1297  C1301   1.412   .     A
C1298  O1378   1.388   .     S
C1298  C1302   1.406   .     A
C1299  C1302   1.408   .     A
C1299  O1383   1.384   .     S
C1300  O1388   1.390   .     S
C1300  C1301   1.412   .     A
C1304  C1187   1.442   1_655 S
N1309  Zn1320  2.022   .     S
N1310  Zn1319  2.022   .     S
O1311  Zn1319  2.000   .     S
O1312  Zn1320  2.000   .     S
O1313  Zn1319  2.000   .     S
O1314  Zn1320  2.000   .     S
O1315  Zn1319  1.949   .     S
O1316  Zn1320  1.949   .     S
O1317  Zn1319  1.946   .     S
O1318  Zn1320  1.946   .     S
O1321  C1322   1.408   .     S
C1322  H1325   1.114   .     S
C1322  H1324   1.108   .     S
C1322  H1323   1.109   .     S
O1326  C1327   1.412   .     S
C1327  H1328   1.114   .     S
C1327  H1329   1.109   .     S
C1327  H1330   1.112   .     S
O1331  C1332   1.410   .     S
C1332  H1333   1.110   .     S
C1332  H1334   1.111   .     S
C1332  H1335   1.112   .     S
O1336  C1337   1.414   .     S
C1337  H1340   1.110   .     S
C1337  H1339   1.109   .     S
C1337  H1338   1.115   .     S
O1341  C1342   1.412   .     S
C1342  H1344   1.113   .     S
H1343  C1226   1.109   1_655 S
C1345  H1347   1.110   .     S
C1345  H1348   1.111   .     S
C1345  C1226   1.520   1_655 S
C1345  H1230   1.111   1_655 S
O1349  C1350   1.414   .     S
C1350  H1352   1.111   .     S
C1350  H1351   1.115   .     S
C1350  C1237   1.522   1_655 S
C1353  H1354   1.108   .     S
C1353  H1356   1.110   .     S
H1355  C425    1.107   1_556 S
O1357  C1242   1.412   1_655 S
C1358  C1361   1.521   .     S
C1358  H1359   1.108   .     S
H1360  C1242   1.110   1_655 S
C1361  H1363   1.110   .     S
C1361  H1362   1.111   .     S
C1361  H1364   1.110   .     S
O1365  C1366   1.409   .     S
C1366  H1368   1.113   .     S
H1367  C1250   1.110   1_655 S
C1369  H1370   1.111   .     S
C1369  H1371   1.110   .     S
C1369  C1250   1.520   1_655 S
C1369  H1256   1.110   1_655 S
O1373  C1374   1.414   .     S
C1374  H1376   1.107   .     S
C1374  H1377   1.114   .     S
C1374  H1375   1.110   .     S
O1378  C1379   1.413   .     S
C1379  H1381   1.110   .     S
C1379  H1380   1.115   .     S
C1379  H1382   1.110   .     S
O1383  C1384   1.414   .     S
C1384  H1385   1.114   .     S
C1384  H1387   1.109   .     S
C1384  H1386   1.110   .     S
O1388  C1389   1.414   .     S
C1389  H1392   1.109   .     S
C1389  H1390   1.116   .     S
C1389  H1391   1.109   .     S
