data_str_m3_o1_o18_pcu_sym.201
_audit_creation_date              2020-01-03
_audit_creation_method            'Materials Studio'
_symmetry_space_group_name_H-M    'P1'
_symmetry_Int_Tables_number       1
_symmetry_cell_setting            triclinic
loop_
_symmetry_equiv_pos_as_xyz
  x,y,z
_cell_length_a                    29.6634
_cell_length_b                    32.1590
_cell_length_c                    30.3846
_cell_angle_alpha                 91.4880
_cell_angle_beta                  75.3962
_cell_angle_gamma                 91.9761
loop_
_atom_site_label
_atom_site_type_symbol
_atom_site_fract_x
_atom_site_fract_y
_atom_site_fract_z
_atom_site_U_iso_or_equiv
_atom_site_adp_type
_atom_site_occupancy
C1     C     0.16794   0.24666   0.24862   0.00000  Uiso   1.00
C2     C     0.16528   0.08670   0.25190   0.00000  Uiso   1.00
C3     C     0.10097   0.10178   0.04144   0.00000  Uiso   1.00
C4     C     0.21165   0.08951   0.46207   0.00000  Uiso   1.00
C5     C     0.07337   0.09321   0.01006   0.00000  Uiso   1.00
C6     C     0.23963   0.08809   0.49309   0.00000  Uiso   1.00
C7     C     0.19928   0.31400   0.26952   0.00000  Uiso   1.00
C8     C     0.13309   0.01928   0.23286   0.00000  Uiso   1.00
C9     C     0.19363   0.02331   0.27547   0.00000  Uiso   1.00
C10    C     0.13911   0.31017   0.22636   0.00000  Uiso   1.00
C11    C     0.16272   0.04239   0.25463   0.00000  Uiso   1.00
C12    C     0.17025   0.29102   0.24681   0.00000  Uiso   1.00
C13    C     0.31651   0.14351   0.21834   0.00000  Uiso   1.00
C14    C     0.01707   0.19062   0.28092   0.00000  Uiso   1.00
C15    C     0.03156   0.14279   0.21908   0.00000  Uiso   1.00
C16    C     0.30148   0.18911   0.28216   0.00000  Uiso   1.00
C17    C     0.13965   0.15968   0.33564   0.00000  Uiso   1.00
C18    C     0.19393   0.16693   0.16240   0.00000  Uiso   1.00
C19    C     0.12790   0.13550   0.37705   0.00000  Uiso   1.00
C20    C     0.20601   0.15906   0.11318   0.00000  Uiso   1.00
C21    C     0.06468   0.10205   0.43050   0.00000  Uiso   1.00
C22    C     0.26473   0.13475   0.04804   0.00000  Uiso   1.00
C23    C     0.08832   0.10949   0.38504   0.00000  Uiso   1.00
C24    C     0.25316   0.15551   0.08991   0.00000  Uiso   1.00
C25    C     0.15630   0.13518   0.40731   0.00000  Uiso   1.00
C26    C     0.17069   0.14916   0.09056   0.00000  Uiso   1.00
C27    C     0.13924   0.11397   0.44867   0.00000  Uiso   1.00
C28    C     0.18184   0.12480   0.04993   0.00000  Uiso   1.00
C29    C     0.09129   0.10314   0.46349   0.00000  Uiso   1.00
C30    C     0.22925   0.11501   0.03112   0.00000  Uiso   1.00
C31    C     0.16767   0.10694   0.47755   0.00000  Uiso   1.00
C32    C     0.14922   0.11225   0.02438   0.00000  Uiso   1.00
N33    N     0.04759   0.16668   0.25001   0.00000  Uiso   1.00
N34    N     0.28574   0.16666   0.24999   0.00000  Uiso   1.00
O35    O     0.12846   0.22775   0.25000   0.00000  Uiso   1.00
O36    O     0.20488   0.10558   0.24999   0.00000  Uiso   1.00
O37    O     0.20490   0.22774   0.25000   0.00000  Uiso   1.00
O38    O     0.12843   0.10559   0.25000   0.00000  Uiso   1.00
O39    O     0.10661   0.16667   0.31612   0.00000  Uiso   1.00
O40    O     0.22672   0.16666   0.18387   0.00000  Uiso   1.00
O41    O     0.18305   0.16666   0.31612   0.00000  Uiso   1.00
O42    O     0.15028   0.16667   0.18388   0.00000  Uiso   1.00
Zn43   Zn    0.11562   0.16667   0.25000   0.00000  Uiso   1.00
Zn44   Zn    0.21771   0.16666   0.25000   0.00000  Uiso   1.00
O45    O     0.03009   0.07398   0.02515   0.00000  Uiso   1.00
C46    C     0.03604   0.03062   0.02438   0.00000  Uiso   1.00
H47    H     0.04612   0.01844   0.48875   0.00000  Uiso   1.00
H48    H     0.00244   0.01540   0.04185   0.00000  Uiso   1.00
H49    H     0.06206   0.02178   0.04303   0.00000  Uiso   1.00
O50    O     0.27604   0.06122   0.48674   0.00000  Uiso   1.00
C51    C     0.25745   0.02111   0.49969   0.00000  Uiso   1.00
H52    H     0.24158   0.02023   0.03699   0.00000  Uiso   1.00
H53    H     0.28615   0.33211   0.49143   0.00000  Uiso   1.00
H54    H     0.23152   0.01026   0.48074   0.00000  Uiso   1.00
O55    O     0.12726   0.16572   0.10755   0.00000  Uiso   1.00
H56    H     0.11381   0.17151   0.08174   0.00000  Uiso   1.00
O57    O     0.19850   0.15713   0.39685   0.00000  Uiso   1.00
H58    H     0.20878   0.16313   0.42497   0.00000  Uiso   1.00
O59    O     0.28884   0.17140   0.10751   0.00000  Uiso   1.00
H60    H     0.27936   0.19901   0.12144   0.00000  Uiso   1.00
O61    O     0.07084   0.09541   0.34913   0.00000  Uiso   1.00
H62    H     0.05064   0.07045   0.35920   0.00000  Uiso   1.00
O63    O     0.01649   0.09750   0.44273   0.00000  Uiso   1.00
C64    C     0.32856   0.12507   0.41822   0.00000  Uiso   1.00
H65    H     0.31940   0.10856   0.38905   0.00000  Uiso   1.00
H66    H     0.01642   0.15383   0.40641   0.00000  Uiso   1.00
H67    H     0.29585   0.13665   0.44020   0.00000  Uiso   1.00
O68    O     0.31046   0.13539   0.02237   0.00000  Uiso   1.00
C69    C     0.32574   0.17672   0.00986   0.00000  Uiso   1.00
H70    H     0.00342   0.19404   0.03753   0.00000  Uiso   1.00
H71    H     0.29913   0.19420   0.49830   0.00000  Uiso   1.00
H72    H     0.02408   0.17570   0.48132   0.00000  Uiso   1.00
O73    O     0.08129   0.09361   0.08668   0.00000  Uiso   1.00
H74    H     0.10649   0.08751   0.10139   0.00000  Uiso   1.00
O75    O     0.22414   0.07147   0.41908   0.00000  Uiso   1.00
H76    H     0.25570   0.06015   0.41383   0.00000  Uiso   1.00
O77    O     0.23010   0.29468   0.28934   0.00000  Uiso   1.00
C78    C     0.27457   0.29357   0.25802   0.00000  Uiso   1.00
H79    H     0.30157   0.29321   0.27747   0.00000  Uiso   1.00
H80    H     0.27821   0.26484   0.23669   0.00000  Uiso   1.00
H81    H     0.28284   0.32062   0.23493   0.00000  Uiso   1.00
O82    O     0.09986   0.03808   0.21587   0.00000  Uiso   1.00
C83    C     0.05720   0.03891   0.25007   0.00000  Uiso   1.00
H84    H     0.02795   0.03498   0.23355   0.00000  Uiso   1.00
H85    H     0.05277   0.01414   0.27595   0.00000  Uiso   1.00
H86    H     0.05313   0.06944   0.26809   0.00000  Uiso   1.00
O87    O     0.20997   0.04511   0.30875   0.00000  Uiso   1.00
C88    C     0.25823   0.05450   0.29395   0.00000  Uiso   1.00
H89    H     0.26526   0.08528   0.30862   0.00000  Uiso   1.00
H90    H     0.27137   0.05672   0.25633   0.00000  Uiso   1.00
H91    H     0.27805   0.03152   0.30747   0.00000  Uiso   1.00
O92    O     0.12164   0.28835   0.19381   0.00000  Uiso   1.00
C93    C     0.07317   0.28032   0.20927   0.00000  Uiso   1.00
H94    H     0.06030   0.27940   0.24697   0.00000  Uiso   1.00
H95    H     0.06496   0.24931   0.19588   0.00000  Uiso   1.00
H96    H     0.05398   0.30335   0.19505   0.00000  Uiso   1.00
O97    O     0.29943   0.12087   0.18666   0.00000  Uiso   1.00
H98    H     0.32432   0.11890   0.15810   0.00000  Uiso   1.00
O99    O     0.03495   0.21621   0.30986   0.00000  Uiso   1.00
H100   H     0.01456   0.24032   0.31895   0.00000  Uiso   1.00
O101   O     0.06323   0.11839   0.18947   0.00000  Uiso   1.00
H102   H     0.04653   0.09412   0.17974   0.00000  Uiso   1.00
O103   O     0.26896   0.20935   0.31553   0.00000  Uiso   1.00
H104   H     0.28045   0.21168   0.34341   0.00000  Uiso   1.00
C105   C     0.50128   0.24666   0.24862   0.00000  Uiso   1.00
C106   C     0.49861   0.08670   0.25190   0.00000  Uiso   1.00
C107   C     0.43430   0.10178   0.04144   0.00000  Uiso   1.00
C108   C     0.54498   0.08951   0.46207   0.00000  Uiso   1.00
C109   C     0.40670   0.09321   0.01006   0.00000  Uiso   1.00
C110   C     0.57296   0.08809   0.49309   0.00000  Uiso   1.00
C111   C     0.53262   0.31400   0.26952   0.00000  Uiso   1.00
C112   C     0.46642   0.01928   0.23286   0.00000  Uiso   1.00
C113   C     0.52696   0.02331   0.27547   0.00000  Uiso   1.00
C114   C     0.47244   0.31017   0.22636   0.00000  Uiso   1.00
C115   C     0.49606   0.04239   0.25463   0.00000  Uiso   1.00
C116   C     0.50358   0.29102   0.24681   0.00000  Uiso   1.00
C117   C     0.64984   0.14351   0.21834   0.00000  Uiso   1.00
C118   C     0.35041   0.19062   0.28092   0.00000  Uiso   1.00
C119   C     0.36489   0.14279   0.21908   0.00000  Uiso   1.00
C120   C     0.63482   0.18911   0.28216   0.00000  Uiso   1.00
C121   C     0.47298   0.15968   0.33564   0.00000  Uiso   1.00
C122   C     0.52727   0.16693   0.16240   0.00000  Uiso   1.00
C123   C     0.46123   0.13550   0.37705   0.00000  Uiso   1.00
C124   C     0.53934   0.15906   0.11318   0.00000  Uiso   1.00
C125   C     0.39801   0.10205   0.43050   0.00000  Uiso   1.00
C126   C     0.59807   0.13475   0.04804   0.00000  Uiso   1.00
C127   C     0.42166   0.10949   0.38504   0.00000  Uiso   1.00
C128   C     0.58649   0.15551   0.08991   0.00000  Uiso   1.00
C129   C     0.48964   0.13518   0.40731   0.00000  Uiso   1.00
C130   C     0.50403   0.14916   0.09056   0.00000  Uiso   1.00
C131   C     0.47257   0.11397   0.44867   0.00000  Uiso   1.00
C132   C     0.51517   0.12480   0.04993   0.00000  Uiso   1.00
C133   C     0.42462   0.10314   0.46349   0.00000  Uiso   1.00
C134   C     0.56259   0.11501   0.03112   0.00000  Uiso   1.00
C135   C     0.50100   0.10694   0.47755   0.00000  Uiso   1.00
C136   C     0.48255   0.11225   0.02438   0.00000  Uiso   1.00
N137   N     0.38093   0.16668   0.25001   0.00000  Uiso   1.00
N138   N     0.61907   0.16666   0.24999   0.00000  Uiso   1.00
O139   O     0.46179   0.22775   0.25000   0.00000  Uiso   1.00
O140   O     0.53821   0.10558   0.24999   0.00000  Uiso   1.00
O141   O     0.53823   0.22774   0.25000   0.00000  Uiso   1.00
O142   O     0.46177   0.10559   0.25000   0.00000  Uiso   1.00
O143   O     0.43994   0.16667   0.31612   0.00000  Uiso   1.00
O144   O     0.56006   0.16666   0.18387   0.00000  Uiso   1.00
O145   O     0.51639   0.16666   0.31612   0.00000  Uiso   1.00
O146   O     0.48361   0.16667   0.18388   0.00000  Uiso   1.00
Zn147  Zn    0.44896   0.16667   0.25000   0.00000  Uiso   1.00
Zn148  Zn    0.55104   0.16666   0.25000   0.00000  Uiso   1.00
O149   O     0.36342   0.07398   0.02515   0.00000  Uiso   1.00
C150   C     0.36938   0.03062   0.02438   0.00000  Uiso   1.00
H151   H     0.37945   0.01844   0.48875   0.00000  Uiso   1.00
H152   H     0.33577   0.01540   0.04185   0.00000  Uiso   1.00
H153   H     0.39539   0.02178   0.04303   0.00000  Uiso   1.00
O154   O     0.60938   0.06122   0.48674   0.00000  Uiso   1.00
C155   C     0.59079   0.02111   0.49969   0.00000  Uiso   1.00
H156   H     0.57491   0.02023   0.03699   0.00000  Uiso   1.00
H157   H     0.61948   0.33211   0.49143   0.00000  Uiso   1.00
H158   H     0.56485   0.01026   0.48074   0.00000  Uiso   1.00
O159   O     0.46060   0.16572   0.10755   0.00000  Uiso   1.00
H160   H     0.44715   0.17151   0.08174   0.00000  Uiso   1.00
O161   O     0.53183   0.15713   0.39685   0.00000  Uiso   1.00
H162   H     0.54211   0.16313   0.42497   0.00000  Uiso   1.00
O163   O     0.62217   0.17140   0.10751   0.00000  Uiso   1.00
H164   H     0.61270   0.19901   0.12144   0.00000  Uiso   1.00
O165   O     0.40418   0.09541   0.34913   0.00000  Uiso   1.00
H166   H     0.38398   0.07045   0.35920   0.00000  Uiso   1.00
O167   O     0.34982   0.09750   0.44273   0.00000  Uiso   1.00
C168   C     0.66190   0.12507   0.41822   0.00000  Uiso   1.00
H169   H     0.65273   0.10856   0.38905   0.00000  Uiso   1.00
H170   H     0.34975   0.15383   0.40641   0.00000  Uiso   1.00
H171   H     0.62918   0.13665   0.44020   0.00000  Uiso   1.00
O172   O     0.64379   0.13539   0.02237   0.00000  Uiso   1.00
C173   C     0.65907   0.17672   0.00986   0.00000  Uiso   1.00
H174   H     0.33675   0.19404   0.03753   0.00000  Uiso   1.00
H175   H     0.63246   0.19420   0.49830   0.00000  Uiso   1.00
H176   H     0.35741   0.17570   0.48132   0.00000  Uiso   1.00
O177   O     0.41463   0.09361   0.08668   0.00000  Uiso   1.00
H178   H     0.43983   0.08751   0.10139   0.00000  Uiso   1.00
O179   O     0.55747   0.07147   0.41908   0.00000  Uiso   1.00
H180   H     0.58904   0.06015   0.41383   0.00000  Uiso   1.00
O181   O     0.56343   0.29468   0.28934   0.00000  Uiso   1.00
C182   C     0.60790   0.29357   0.25802   0.00000  Uiso   1.00
H183   H     0.63490   0.29321   0.27747   0.00000  Uiso   1.00
H184   H     0.61155   0.26484   0.23669   0.00000  Uiso   1.00
H185   H     0.61617   0.32062   0.23493   0.00000  Uiso   1.00
O186   O     0.43319   0.03808   0.21587   0.00000  Uiso   1.00
C187   C     0.39053   0.03891   0.25007   0.00000  Uiso   1.00
H188   H     0.36128   0.03498   0.23355   0.00000  Uiso   1.00
H189   H     0.38610   0.01414   0.27595   0.00000  Uiso   1.00
H190   H     0.38646   0.06944   0.26809   0.00000  Uiso   1.00
O191   O     0.54331   0.04511   0.30875   0.00000  Uiso   1.00
C192   C     0.59156   0.05450   0.29395   0.00000  Uiso   1.00
H193   H     0.59859   0.08528   0.30862   0.00000  Uiso   1.00
H194   H     0.60471   0.05672   0.25633   0.00000  Uiso   1.00
H195   H     0.61139   0.03152   0.30747   0.00000  Uiso   1.00
O196   O     0.45498   0.28835   0.19381   0.00000  Uiso   1.00
C197   C     0.40650   0.28032   0.20927   0.00000  Uiso   1.00
H198   H     0.39363   0.27940   0.24697   0.00000  Uiso   1.00
H199   H     0.39830   0.24931   0.19588   0.00000  Uiso   1.00
H200   H     0.38732   0.30335   0.19505   0.00000  Uiso   1.00
O201   O     0.63277   0.12087   0.18666   0.00000  Uiso   1.00
H202   H     0.65765   0.11890   0.15810   0.00000  Uiso   1.00
O203   O     0.36828   0.21621   0.30986   0.00000  Uiso   1.00
H204   H     0.34790   0.24032   0.31895   0.00000  Uiso   1.00
O205   O     0.39657   0.11839   0.18947   0.00000  Uiso   1.00
H206   H     0.37987   0.09412   0.17974   0.00000  Uiso   1.00
O207   O     0.60229   0.20935   0.31553   0.00000  Uiso   1.00
H208   H     0.61378   0.21168   0.34341   0.00000  Uiso   1.00
C209   C     0.83461   0.24666   0.24862   0.00000  Uiso   1.00
C210   C     0.83194   0.08670   0.25190   0.00000  Uiso   1.00
C211   C     0.76763   0.10178   0.04144   0.00000  Uiso   1.00
C212   C     0.87832   0.08951   0.46207   0.00000  Uiso   1.00
C213   C     0.74003   0.09321   0.01006   0.00000  Uiso   1.00
C214   C     0.90630   0.08809   0.49309   0.00000  Uiso   1.00
C215   C     0.86595   0.31400   0.26952   0.00000  Uiso   1.00
C216   C     0.79975   0.01928   0.23286   0.00000  Uiso   1.00
C217   C     0.86030   0.02331   0.27547   0.00000  Uiso   1.00
C218   C     0.80578   0.31017   0.22636   0.00000  Uiso   1.00
C219   C     0.82939   0.04239   0.25463   0.00000  Uiso   1.00
C220   C     0.83691   0.29102   0.24681   0.00000  Uiso   1.00
C221   C     0.98318   0.14351   0.21834   0.00000  Uiso   1.00
C222   C     0.68374   0.19062   0.28092   0.00000  Uiso   1.00
C223   C     0.69822   0.14279   0.21908   0.00000  Uiso   1.00
C224   C     0.96815   0.18911   0.28216   0.00000  Uiso   1.00
C225   C     0.80631   0.15968   0.33564   0.00000  Uiso   1.00
C226   C     0.86060   0.16693   0.16240   0.00000  Uiso   1.00
C227   C     0.79457   0.13550   0.37705   0.00000  Uiso   1.00
C228   C     0.87268   0.15906   0.11318   0.00000  Uiso   1.00
C229   C     0.73135   0.10205   0.43050   0.00000  Uiso   1.00
C230   C     0.93140   0.13475   0.04804   0.00000  Uiso   1.00
C231   C     0.75499   0.10949   0.38504   0.00000  Uiso   1.00
C232   C     0.91982   0.15551   0.08991   0.00000  Uiso   1.00
C233   C     0.82297   0.13518   0.40731   0.00000  Uiso   1.00
C234   C     0.83736   0.14916   0.09056   0.00000  Uiso   1.00
C235   C     0.80590   0.11397   0.44867   0.00000  Uiso   1.00
C236   C     0.84850   0.12480   0.04993   0.00000  Uiso   1.00
C237   C     0.75795   0.10314   0.46349   0.00000  Uiso   1.00
C238   C     0.89592   0.11501   0.03112   0.00000  Uiso   1.00
C239   C     0.83434   0.10694   0.47755   0.00000  Uiso   1.00
C240   C     0.81589   0.11225   0.02438   0.00000  Uiso   1.00
N241   N     0.71426   0.16668   0.25001   0.00000  Uiso   1.00
N242   N     0.95241   0.16666   0.24999   0.00000  Uiso   1.00
O243   O     0.79512   0.22775   0.25000   0.00000  Uiso   1.00
O244   O     0.87154   0.10558   0.24999   0.00000  Uiso   1.00
O245   O     0.87157   0.22774   0.25000   0.00000  Uiso   1.00
O246   O     0.79510   0.10559   0.25000   0.00000  Uiso   1.00
O247   O     0.77328   0.16667   0.31612   0.00000  Uiso   1.00
O248   O     0.89339   0.16666   0.18387   0.00000  Uiso   1.00
O249   O     0.84972   0.16666   0.31612   0.00000  Uiso   1.00
O250   O     0.81695   0.16667   0.18388   0.00000  Uiso   1.00
Zn251  Zn    0.78229   0.16667   0.25000   0.00000  Uiso   1.00
Zn252  Zn    0.88438   0.16666   0.25000   0.00000  Uiso   1.00
O253   O     0.69675   0.07398   0.02515   0.00000  Uiso   1.00
C254   C     0.70271   0.03062   0.02438   0.00000  Uiso   1.00
H255   H     0.71278   0.01844   0.48875   0.00000  Uiso   1.00
H256   H     0.66910   0.01540   0.04185   0.00000  Uiso   1.00
H257   H     0.72872   0.02178   0.04303   0.00000  Uiso   1.00
O258   O     0.94271   0.06122   0.48674   0.00000  Uiso   1.00
C259   C     0.92412   0.02111   0.49969   0.00000  Uiso   1.00
H260   H     0.90824   0.02023   0.03699   0.00000  Uiso   1.00
H261   H     0.95281   0.33211   0.49143   0.00000  Uiso   1.00
H262   H     0.89818   0.01026   0.48074   0.00000  Uiso   1.00
O263   O     0.79393   0.16572   0.10755   0.00000  Uiso   1.00
H264   H     0.78048   0.17151   0.08174   0.00000  Uiso   1.00
O265   O     0.86516   0.15713   0.39685   0.00000  Uiso   1.00
H266   H     0.87544   0.16313   0.42497   0.00000  Uiso   1.00
O267   O     0.95550   0.17140   0.10751   0.00000  Uiso   1.00
H268   H     0.94603   0.19901   0.12144   0.00000  Uiso   1.00
O269   O     0.73751   0.09541   0.34913   0.00000  Uiso   1.00
H270   H     0.71731   0.07045   0.35920   0.00000  Uiso   1.00
O271   O     0.68316   0.09750   0.44273   0.00000  Uiso   1.00
C272   C     0.99523   0.12507   0.41822   0.00000  Uiso   1.00
H273   H     0.98607   0.10856   0.38905   0.00000  Uiso   1.00
H274   H     0.68309   0.15383   0.40641   0.00000  Uiso   1.00
H275   H     0.96251   0.13665   0.44020   0.00000  Uiso   1.00
O276   O     0.97713   0.13539   0.02237   0.00000  Uiso   1.00
C277   C     0.99240   0.17672   0.00986   0.00000  Uiso   1.00
H278   H     0.67008   0.19404   0.03753   0.00000  Uiso   1.00
H279   H     0.96580   0.19420   0.49830   0.00000  Uiso   1.00
H280   H     0.69075   0.17570   0.48132   0.00000  Uiso   1.00
O281   O     0.74796   0.09361   0.08668   0.00000  Uiso   1.00
H282   H     0.77316   0.08751   0.10139   0.00000  Uiso   1.00
O283   O     0.89080   0.07147   0.41908   0.00000  Uiso   1.00
H284   H     0.92237   0.06015   0.41383   0.00000  Uiso   1.00
O285   O     0.89677   0.29468   0.28934   0.00000  Uiso   1.00
C286   C     0.94123   0.29357   0.25802   0.00000  Uiso   1.00
H287   H     0.96823   0.29321   0.27747   0.00000  Uiso   1.00
H288   H     0.94488   0.26484   0.23669   0.00000  Uiso   1.00
H289   H     0.94951   0.32062   0.23493   0.00000  Uiso   1.00
O290   O     0.76652   0.03808   0.21587   0.00000  Uiso   1.00
C291   C     0.72386   0.03891   0.25007   0.00000  Uiso   1.00
H292   H     0.69462   0.03498   0.23355   0.00000  Uiso   1.00
H293   H     0.71943   0.01414   0.27595   0.00000  Uiso   1.00
H294   H     0.71979   0.06944   0.26809   0.00000  Uiso   1.00
O295   O     0.87664   0.04511   0.30875   0.00000  Uiso   1.00
C296   C     0.92489   0.05450   0.29395   0.00000  Uiso   1.00
H297   H     0.93192   0.08528   0.30862   0.00000  Uiso   1.00
H298   H     0.93804   0.05672   0.25633   0.00000  Uiso   1.00
H299   H     0.94472   0.03152   0.30747   0.00000  Uiso   1.00
O300   O     0.78831   0.28835   0.19381   0.00000  Uiso   1.00
C301   C     0.73983   0.28032   0.20927   0.00000  Uiso   1.00
H302   H     0.72696   0.27940   0.24697   0.00000  Uiso   1.00
H303   H     0.73163   0.24931   0.19588   0.00000  Uiso   1.00
H304   H     0.72065   0.30335   0.19505   0.00000  Uiso   1.00
O305   O     0.96610   0.12087   0.18666   0.00000  Uiso   1.00
H306   H     0.99098   0.11890   0.15810   0.00000  Uiso   1.00
O307   O     0.70162   0.21621   0.30986   0.00000  Uiso   1.00
H308   H     0.68123   0.24032   0.31895   0.00000  Uiso   1.00
O309   O     0.72990   0.11839   0.18947   0.00000  Uiso   1.00
H310   H     0.71320   0.09412   0.17974   0.00000  Uiso   1.00
O311   O     0.93562   0.20935   0.31553   0.00000  Uiso   1.00
H312   H     0.94711   0.21168   0.34341   0.00000  Uiso   1.00
C313   C     0.16794   0.58000   0.24862   0.00000  Uiso   1.00
C314   C     0.16528   0.42003   0.25190   0.00000  Uiso   1.00
C315   C     0.10097   0.43511   0.04144   0.00000  Uiso   1.00
C316   C     0.21165   0.42284   0.46207   0.00000  Uiso   1.00
C317   C     0.07337   0.42654   0.01006   0.00000  Uiso   1.00
C318   C     0.23963   0.42143   0.49309   0.00000  Uiso   1.00
C319   C     0.19928   0.64733   0.26952   0.00000  Uiso   1.00
C320   C     0.13309   0.35262   0.23286   0.00000  Uiso   1.00
C321   C     0.19363   0.35664   0.27547   0.00000  Uiso   1.00
C322   C     0.13911   0.64351   0.22636   0.00000  Uiso   1.00
C323   C     0.16272   0.37573   0.25463   0.00000  Uiso   1.00
C324   C     0.17025   0.62436   0.24681   0.00000  Uiso   1.00
C325   C     0.31651   0.47684   0.21834   0.00000  Uiso   1.00
C326   C     0.01707   0.52395   0.28092   0.00000  Uiso   1.00
C327   C     0.03156   0.47612   0.21908   0.00000  Uiso   1.00
C328   C     0.30148   0.52244   0.28216   0.00000  Uiso   1.00
C329   C     0.13965   0.49302   0.33564   0.00000  Uiso   1.00
C330   C     0.19393   0.50026   0.16240   0.00000  Uiso   1.00
C331   C     0.12790   0.46884   0.37705   0.00000  Uiso   1.00
C332   C     0.20601   0.49240   0.11318   0.00000  Uiso   1.00
C333   C     0.06468   0.43538   0.43050   0.00000  Uiso   1.00
C334   C     0.26473   0.46808   0.04804   0.00000  Uiso   1.00
C335   C     0.08832   0.44282   0.38504   0.00000  Uiso   1.00
C336   C     0.25316   0.48884   0.08991   0.00000  Uiso   1.00
C337   C     0.15630   0.46851   0.40731   0.00000  Uiso   1.00
C338   C     0.17069   0.48250   0.09056   0.00000  Uiso   1.00
C339   C     0.13924   0.44730   0.44867   0.00000  Uiso   1.00
C340   C     0.18184   0.45814   0.04993   0.00000  Uiso   1.00
C341   C     0.09129   0.43647   0.46349   0.00000  Uiso   1.00
C342   C     0.22925   0.44835   0.03112   0.00000  Uiso   1.00
C343   C     0.16767   0.44027   0.47755   0.00000  Uiso   1.00
C344   C     0.14922   0.44559   0.02438   0.00000  Uiso   1.00
N345   N     0.04759   0.50001   0.25001   0.00000  Uiso   1.00
N346   N     0.28574   0.49999   0.24999   0.00000  Uiso   1.00
O347   O     0.12846   0.56108   0.25000   0.00000  Uiso   1.00
O348   O     0.20488   0.43892   0.24999   0.00000  Uiso   1.00
O349   O     0.20490   0.56107   0.25000   0.00000  Uiso   1.00
O350   O     0.12843   0.43893   0.25000   0.00000  Uiso   1.00
O351   O     0.10661   0.50001   0.31612   0.00000  Uiso   1.00
O352   O     0.22672   0.49999   0.18387   0.00000  Uiso   1.00
O353   O     0.18305   0.50000   0.31612   0.00000  Uiso   1.00
O354   O     0.15028   0.50000   0.18388   0.00000  Uiso   1.00
Zn355  Zn    0.11562   0.50001   0.25000   0.00000  Uiso   1.00
Zn356  Zn    0.21771   0.49999   0.25000   0.00000  Uiso   1.00
O357   O     0.03009   0.40731   0.02515   0.00000  Uiso   1.00
C358   C     0.03604   0.36395   0.02438   0.00000  Uiso   1.00
H359   H     0.04612   0.35177   0.48875   0.00000  Uiso   1.00
H360   H     0.00244   0.34874   0.04185   0.00000  Uiso   1.00
H361   H     0.06206   0.35511   0.04303   0.00000  Uiso   1.00
O362   O     0.27604   0.39455   0.48674   0.00000  Uiso   1.00
C363   C     0.25745   0.35445   0.49969   0.00000  Uiso   1.00
H364   H     0.24158   0.35357   0.03699   0.00000  Uiso   1.00
H365   H     0.28615   0.66544   0.49143   0.00000  Uiso   1.00
H366   H     0.23152   0.34359   0.48074   0.00000  Uiso   1.00
O367   O     0.12726   0.49906   0.10755   0.00000  Uiso   1.00
H368   H     0.11381   0.50484   0.08174   0.00000  Uiso   1.00
O369   O     0.19850   0.49046   0.39685   0.00000  Uiso   1.00
H370   H     0.20878   0.49646   0.42497   0.00000  Uiso   1.00
O371   O     0.28884   0.50474   0.10751   0.00000  Uiso   1.00
H372   H     0.27936   0.53234   0.12144   0.00000  Uiso   1.00
O373   O     0.07084   0.42874   0.34913   0.00000  Uiso   1.00
H374   H     0.05064   0.40378   0.35920   0.00000  Uiso   1.00
O375   O     0.01649   0.43083   0.44273   0.00000  Uiso   1.00
C376   C     0.32856   0.45841   0.41822   0.00000  Uiso   1.00
H377   H     0.31940   0.44189   0.38905   0.00000  Uiso   1.00
H378   H     0.01642   0.48717   0.40641   0.00000  Uiso   1.00
H379   H     0.29585   0.46999   0.44020   0.00000  Uiso   1.00
O380   O     0.31046   0.46872   0.02237   0.00000  Uiso   1.00
C381   C     0.32574   0.51006   0.00986   0.00000  Uiso   1.00
H382   H     0.00342   0.52738   0.03753   0.00000  Uiso   1.00
H383   H     0.29913   0.52753   0.49830   0.00000  Uiso   1.00
H384   H     0.02408   0.50903   0.48132   0.00000  Uiso   1.00
O385   O     0.08129   0.42694   0.08668   0.00000  Uiso   1.00
H386   H     0.10649   0.42084   0.10139   0.00000  Uiso   1.00
O387   O     0.22414   0.40480   0.41908   0.00000  Uiso   1.00
H388   H     0.25570   0.39348   0.41383   0.00000  Uiso   1.00
O389   O     0.23010   0.62802   0.28934   0.00000  Uiso   1.00
C390   C     0.27457   0.62690   0.25802   0.00000  Uiso   1.00
H391   H     0.30157   0.62654   0.27747   0.00000  Uiso   1.00
H392   H     0.27821   0.59818   0.23669   0.00000  Uiso   1.00
H393   H     0.28284   0.65395   0.23493   0.00000  Uiso   1.00
O394   O     0.09986   0.37141   0.21587   0.00000  Uiso   1.00
C395   C     0.05720   0.37224   0.25007   0.00000  Uiso   1.00
H396   H     0.02795   0.36831   0.23355   0.00000  Uiso   1.00
H397   H     0.05277   0.34747   0.27595   0.00000  Uiso   1.00
H398   H     0.05313   0.40277   0.26809   0.00000  Uiso   1.00
O399   O     0.20997   0.37844   0.30875   0.00000  Uiso   1.00
C400   C     0.25823   0.38784   0.29395   0.00000  Uiso   1.00
H401   H     0.26526   0.41862   0.30862   0.00000  Uiso   1.00
H402   H     0.27137   0.39005   0.25633   0.00000  Uiso   1.00
H403   H     0.27805   0.36485   0.30747   0.00000  Uiso   1.00
O404   O     0.12164   0.62168   0.19381   0.00000  Uiso   1.00
C405   C     0.07317   0.61365   0.20927   0.00000  Uiso   1.00
H406   H     0.06030   0.61273   0.24697   0.00000  Uiso   1.00
H407   H     0.06496   0.58264   0.19588   0.00000  Uiso   1.00
H408   H     0.05398   0.63668   0.19505   0.00000  Uiso   1.00
O409   O     0.29943   0.45421   0.18666   0.00000  Uiso   1.00
H410   H     0.32432   0.45223   0.15810   0.00000  Uiso   1.00
O411   O     0.03495   0.54955   0.30986   0.00000  Uiso   1.00
H412   H     0.01456   0.57365   0.31895   0.00000  Uiso   1.00
O413   O     0.06323   0.45172   0.18947   0.00000  Uiso   1.00
H414   H     0.04653   0.42745   0.17974   0.00000  Uiso   1.00
O415   O     0.26896   0.54268   0.31553   0.00000  Uiso   1.00
H416   H     0.28045   0.54501   0.34341   0.00000  Uiso   1.00
C417   C     0.50128   0.58000   0.24862   0.00000  Uiso   1.00
C418   C     0.49861   0.42003   0.25190   0.00000  Uiso   1.00
C419   C     0.43430   0.43511   0.04144   0.00000  Uiso   1.00
C420   C     0.54498   0.42284   0.46207   0.00000  Uiso   1.00
C421   C     0.40670   0.42654   0.01006   0.00000  Uiso   1.00
C422   C     0.57296   0.42143   0.49309   0.00000  Uiso   1.00
C423   C     0.53262   0.64733   0.26952   0.00000  Uiso   1.00
C424   C     0.46642   0.35262   0.23286   0.00000  Uiso   1.00
C425   C     0.52696   0.35664   0.27547   0.00000  Uiso   1.00
C426   C     0.47244   0.64351   0.22636   0.00000  Uiso   1.00
C427   C     0.49606   0.37573   0.25463   0.00000  Uiso   1.00
C428   C     0.50358   0.62436   0.24681   0.00000  Uiso   1.00
C429   C     0.64984   0.47684   0.21834   0.00000  Uiso   1.00
C430   C     0.35041   0.52395   0.28092   0.00000  Uiso   1.00
C431   C     0.36489   0.47612   0.21908   0.00000  Uiso   1.00
C432   C     0.63482   0.52244   0.28216   0.00000  Uiso   1.00
C433   C     0.47298   0.49302   0.33564   0.00000  Uiso   1.00
C434   C     0.52727   0.50026   0.16240   0.00000  Uiso   1.00
C435   C     0.46123   0.46884   0.37705   0.00000  Uiso   1.00
C436   C     0.53934   0.49240   0.11318   0.00000  Uiso   1.00
C437   C     0.39801   0.43538   0.43050   0.00000  Uiso   1.00
C438   C     0.59807   0.46808   0.04804   0.00000  Uiso   1.00
C439   C     0.42166   0.44282   0.38504   0.00000  Uiso   1.00
C440   C     0.58649   0.48884   0.08991   0.00000  Uiso   1.00
C441   C     0.48964   0.46851   0.40731   0.00000  Uiso   1.00
C442   C     0.50403   0.48250   0.09056   0.00000  Uiso   1.00
C443   C     0.47257   0.44730   0.44867   0.00000  Uiso   1.00
C444   C     0.51517   0.45814   0.04993   0.00000  Uiso   1.00
C445   C     0.42462   0.43647   0.46349   0.00000  Uiso   1.00
C446   C     0.56259   0.44835   0.03112   0.00000  Uiso   1.00
C447   C     0.50100   0.44027   0.47755   0.00000  Uiso   1.00
C448   C     0.48255   0.44559   0.02438   0.00000  Uiso   1.00
N449   N     0.38093   0.50001   0.25001   0.00000  Uiso   1.00
N450   N     0.61907   0.49999   0.24999   0.00000  Uiso   1.00
O451   O     0.46179   0.56108   0.25000   0.00000  Uiso   1.00
O452   O     0.53821   0.43892   0.24999   0.00000  Uiso   1.00
O453   O     0.53823   0.56107   0.25000   0.00000  Uiso   1.00
O454   O     0.46177   0.43893   0.25000   0.00000  Uiso   1.00
O455   O     0.43994   0.50001   0.31612   0.00000  Uiso   1.00
O456   O     0.56006   0.49999   0.18387   0.00000  Uiso   1.00
O457   O     0.51639   0.50000   0.31612   0.00000  Uiso   1.00
O458   O     0.48361   0.50000   0.18388   0.00000  Uiso   1.00
Zn459  Zn    0.44896   0.50001   0.25000   0.00000  Uiso   1.00
Zn460  Zn    0.55104   0.49999   0.25000   0.00000  Uiso   1.00
O461   O     0.36342   0.40731   0.02515   0.00000  Uiso   1.00
C462   C     0.36938   0.36395   0.02438   0.00000  Uiso   1.00
H463   H     0.37945   0.35177   0.48875   0.00000  Uiso   1.00
H464   H     0.33577   0.34874   0.04185   0.00000  Uiso   1.00
H465   H     0.39539   0.35511   0.04303   0.00000  Uiso   1.00
O466   O     0.60938   0.39455   0.48674   0.00000  Uiso   1.00
C467   C     0.59079   0.35445   0.49969   0.00000  Uiso   1.00
H468   H     0.57491   0.35357   0.03699   0.00000  Uiso   1.00
H469   H     0.61948   0.66544   0.49143   0.00000  Uiso   1.00
H470   H     0.56485   0.34359   0.48074   0.00000  Uiso   1.00
O471   O     0.46060   0.49906   0.10755   0.00000  Uiso   1.00
H472   H     0.44715   0.50484   0.08174   0.00000  Uiso   1.00
O473   O     0.53183   0.49046   0.39685   0.00000  Uiso   1.00
H474   H     0.54211   0.49646   0.42497   0.00000  Uiso   1.00
O475   O     0.62217   0.50474   0.10751   0.00000  Uiso   1.00
H476   H     0.61270   0.53234   0.12144   0.00000  Uiso   1.00
O477   O     0.40418   0.42874   0.34913   0.00000  Uiso   1.00
H478   H     0.38398   0.40378   0.35920   0.00000  Uiso   1.00
O479   O     0.34982   0.43083   0.44273   0.00000  Uiso   1.00
C480   C     0.66190   0.45841   0.41822   0.00000  Uiso   1.00
H481   H     0.65273   0.44189   0.38905   0.00000  Uiso   1.00
H482   H     0.34975   0.48717   0.40641   0.00000  Uiso   1.00
H483   H     0.62918   0.46999   0.44020   0.00000  Uiso   1.00
O484   O     0.64379   0.46872   0.02237   0.00000  Uiso   1.00
C485   C     0.65907   0.51006   0.00986   0.00000  Uiso   1.00
H486   H     0.33675   0.52738   0.03753   0.00000  Uiso   1.00
H487   H     0.63246   0.52753   0.49830   0.00000  Uiso   1.00
H488   H     0.35741   0.50903   0.48132   0.00000  Uiso   1.00
O489   O     0.41463   0.42694   0.08668   0.00000  Uiso   1.00
H490   H     0.43983   0.42084   0.10139   0.00000  Uiso   1.00
O491   O     0.55747   0.40480   0.41908   0.00000  Uiso   1.00
H492   H     0.58904   0.39348   0.41383   0.00000  Uiso   1.00
O493   O     0.56343   0.62802   0.28934   0.00000  Uiso   1.00
C494   C     0.60790   0.62690   0.25802   0.00000  Uiso   1.00
H495   H     0.63490   0.62654   0.27747   0.00000  Uiso   1.00
H496   H     0.61155   0.59818   0.23669   0.00000  Uiso   1.00
H497   H     0.61617   0.65395   0.23493   0.00000  Uiso   1.00
O498   O     0.43319   0.37141   0.21587   0.00000  Uiso   1.00
C499   C     0.39053   0.37224   0.25007   0.00000  Uiso   1.00
H500   H     0.36128   0.36831   0.23355   0.00000  Uiso   1.00
H501   H     0.38610   0.34747   0.27595   0.00000  Uiso   1.00
H502   H     0.38646   0.40277   0.26809   0.00000  Uiso   1.00
O503   O     0.54331   0.37844   0.30875   0.00000  Uiso   1.00
C504   C     0.59156   0.38784   0.29395   0.00000  Uiso   1.00
H505   H     0.59859   0.41862   0.30862   0.00000  Uiso   1.00
H506   H     0.60471   0.39005   0.25633   0.00000  Uiso   1.00
H507   H     0.61139   0.36485   0.30747   0.00000  Uiso   1.00
O508   O     0.45498   0.62168   0.19381   0.00000  Uiso   1.00
C509   C     0.40650   0.61365   0.20927   0.00000  Uiso   1.00
H510   H     0.39363   0.61273   0.24697   0.00000  Uiso   1.00
H511   H     0.39830   0.58264   0.19588   0.00000  Uiso   1.00
H512   H     0.38732   0.63668   0.19505   0.00000  Uiso   1.00
O513   O     0.63277   0.45421   0.18666   0.00000  Uiso   1.00
H514   H     0.65765   0.45223   0.15810   0.00000  Uiso   1.00
O515   O     0.36828   0.54955   0.30986   0.00000  Uiso   1.00
H516   H     0.34790   0.57365   0.31895   0.00000  Uiso   1.00
O517   O     0.39657   0.45172   0.18947   0.00000  Uiso   1.00
H518   H     0.37987   0.42745   0.17974   0.00000  Uiso   1.00
O519   O     0.60229   0.54268   0.31553   0.00000  Uiso   1.00
H520   H     0.61378   0.54501   0.34341   0.00000  Uiso   1.00
C521   C     0.83461   0.58000   0.24862   0.00000  Uiso   1.00
C522   C     0.83194   0.42003   0.25190   0.00000  Uiso   1.00
C523   C     0.76763   0.43511   0.04144   0.00000  Uiso   1.00
C524   C     0.87832   0.42284   0.46207   0.00000  Uiso   1.00
C525   C     0.74003   0.42654   0.01006   0.00000  Uiso   1.00
C526   C     0.90630   0.42143   0.49309   0.00000  Uiso   1.00
C527   C     0.86595   0.64733   0.26952   0.00000  Uiso   1.00
C528   C     0.79975   0.35262   0.23286   0.00000  Uiso   1.00
C529   C     0.86030   0.35664   0.27547   0.00000  Uiso   1.00
C530   C     0.80578   0.64351   0.22636   0.00000  Uiso   1.00
C531   C     0.82939   0.37573   0.25463   0.00000  Uiso   1.00
C532   C     0.83691   0.62436   0.24681   0.00000  Uiso   1.00
C533   C     0.98318   0.47684   0.21834   0.00000  Uiso   1.00
C534   C     0.68374   0.52395   0.28092   0.00000  Uiso   1.00
C535   C     0.69822   0.47612   0.21908   0.00000  Uiso   1.00
C536   C     0.96815   0.52244   0.28216   0.00000  Uiso   1.00
C537   C     0.80631   0.49302   0.33564   0.00000  Uiso   1.00
C538   C     0.86060   0.50026   0.16240   0.00000  Uiso   1.00
C539   C     0.79457   0.46884   0.37705   0.00000  Uiso   1.00
C540   C     0.87268   0.49240   0.11318   0.00000  Uiso   1.00
C541   C     0.73135   0.43538   0.43050   0.00000  Uiso   1.00
C542   C     0.93140   0.46808   0.04804   0.00000  Uiso   1.00
C543   C     0.75499   0.44282   0.38504   0.00000  Uiso   1.00
C544   C     0.91982   0.48884   0.08991   0.00000  Uiso   1.00
C545   C     0.82297   0.46851   0.40731   0.00000  Uiso   1.00
C546   C     0.83736   0.48250   0.09056   0.00000  Uiso   1.00
C547   C     0.80590   0.44730   0.44867   0.00000  Uiso   1.00
C548   C     0.84850   0.45814   0.04993   0.00000  Uiso   1.00
C549   C     0.75795   0.43647   0.46349   0.00000  Uiso   1.00
C550   C     0.89592   0.44835   0.03112   0.00000  Uiso   1.00
C551   C     0.83434   0.44027   0.47755   0.00000  Uiso   1.00
C552   C     0.81589   0.44559   0.02438   0.00000  Uiso   1.00
N553   N     0.71426   0.50001   0.25001   0.00000  Uiso   1.00
N554   N     0.95241   0.49999   0.24999   0.00000  Uiso   1.00
O555   O     0.79512   0.56108   0.25000   0.00000  Uiso   1.00
O556   O     0.87154   0.43892   0.24999   0.00000  Uiso   1.00
O557   O     0.87157   0.56107   0.25000   0.00000  Uiso   1.00
O558   O     0.79510   0.43893   0.25000   0.00000  Uiso   1.00
O559   O     0.77328   0.50001   0.31612   0.00000  Uiso   1.00
O560   O     0.89339   0.49999   0.18387   0.00000  Uiso   1.00
O561   O     0.84972   0.50000   0.31612   0.00000  Uiso   1.00
O562   O     0.81695   0.50000   0.18388   0.00000  Uiso   1.00
Zn563  Zn    0.78229   0.50001   0.25000   0.00000  Uiso   1.00
Zn564  Zn    0.88438   0.49999   0.25000   0.00000  Uiso   1.00
O565   O     0.69675   0.40731   0.02515   0.00000  Uiso   1.00
C566   C     0.70271   0.36395   0.02438   0.00000  Uiso   1.00
H567   H     0.71278   0.35177   0.48875   0.00000  Uiso   1.00
H568   H     0.66910   0.34874   0.04185   0.00000  Uiso   1.00
H569   H     0.72872   0.35511   0.04303   0.00000  Uiso   1.00
O570   O     0.94271   0.39455   0.48674   0.00000  Uiso   1.00
C571   C     0.92412   0.35445   0.49969   0.00000  Uiso   1.00
H572   H     0.90824   0.35357   0.03699   0.00000  Uiso   1.00
H573   H     0.95281   0.66544   0.49143   0.00000  Uiso   1.00
H574   H     0.89818   0.34359   0.48074   0.00000  Uiso   1.00
O575   O     0.79393   0.49906   0.10755   0.00000  Uiso   1.00
H576   H     0.78048   0.50484   0.08174   0.00000  Uiso   1.00
O577   O     0.86516   0.49046   0.39685   0.00000  Uiso   1.00
H578   H     0.87544   0.49646   0.42497   0.00000  Uiso   1.00
O579   O     0.95550   0.50474   0.10751   0.00000  Uiso   1.00
H580   H     0.94603   0.53234   0.12144   0.00000  Uiso   1.00
O581   O     0.73751   0.42874   0.34913   0.00000  Uiso   1.00
H582   H     0.71731   0.40378   0.35920   0.00000  Uiso   1.00
O583   O     0.68316   0.43083   0.44273   0.00000  Uiso   1.00
C584   C     0.99523   0.45841   0.41822   0.00000  Uiso   1.00
H585   H     0.98607   0.44189   0.38905   0.00000  Uiso   1.00
H586   H     0.68309   0.48717   0.40641   0.00000  Uiso   1.00
H587   H     0.96251   0.46999   0.44020   0.00000  Uiso   1.00
O588   O     0.97713   0.46872   0.02237   0.00000  Uiso   1.00
C589   C     0.99240   0.51006   0.00986   0.00000  Uiso   1.00
H590   H     0.67008   0.52738   0.03753   0.00000  Uiso   1.00
H591   H     0.96580   0.52753   0.49830   0.00000  Uiso   1.00
H592   H     0.69075   0.50903   0.48132   0.00000  Uiso   1.00
O593   O     0.74796   0.42694   0.08668   0.00000  Uiso   1.00
H594   H     0.77316   0.42084   0.10139   0.00000  Uiso   1.00
O595   O     0.89080   0.40480   0.41908   0.00000  Uiso   1.00
H596   H     0.92237   0.39348   0.41383   0.00000  Uiso   1.00
O597   O     0.89677   0.62802   0.28934   0.00000  Uiso   1.00
C598   C     0.94123   0.62690   0.25802   0.00000  Uiso   1.00
H599   H     0.96823   0.62654   0.27747   0.00000  Uiso   1.00
H600   H     0.94488   0.59818   0.23669   0.00000  Uiso   1.00
H601   H     0.94951   0.65395   0.23493   0.00000  Uiso   1.00
O602   O     0.76652   0.37141   0.21587   0.00000  Uiso   1.00
C603   C     0.72386   0.37224   0.25007   0.00000  Uiso   1.00
H604   H     0.69462   0.36831   0.23355   0.00000  Uiso   1.00
H605   H     0.71943   0.34747   0.27595   0.00000  Uiso   1.00
H606   H     0.71979   0.40277   0.26809   0.00000  Uiso   1.00
O607   O     0.87664   0.37844   0.30875   0.00000  Uiso   1.00
C608   C     0.92489   0.38784   0.29395   0.00000  Uiso   1.00
H609   H     0.93192   0.41862   0.30862   0.00000  Uiso   1.00
H610   H     0.93804   0.39005   0.25633   0.00000  Uiso   1.00
H611   H     0.94472   0.36485   0.30747   0.00000  Uiso   1.00
O612   O     0.78831   0.62168   0.19381   0.00000  Uiso   1.00
C613   C     0.73983   0.61365   0.20927   0.00000  Uiso   1.00
H614   H     0.72696   0.61273   0.24697   0.00000  Uiso   1.00
H615   H     0.73163   0.58264   0.19588   0.00000  Uiso   1.00
H616   H     0.72065   0.63668   0.19505   0.00000  Uiso   1.00
O617   O     0.96610   0.45421   0.18666   0.00000  Uiso   1.00
H618   H     0.99098   0.45223   0.15810   0.00000  Uiso   1.00
O619   O     0.70162   0.54955   0.30986   0.00000  Uiso   1.00
H620   H     0.68123   0.57365   0.31895   0.00000  Uiso   1.00
O621   O     0.72990   0.45172   0.18947   0.00000  Uiso   1.00
H622   H     0.71320   0.42745   0.17974   0.00000  Uiso   1.00
O623   O     0.93562   0.54268   0.31553   0.00000  Uiso   1.00
H624   H     0.94711   0.54501   0.34341   0.00000  Uiso   1.00
C625   C     0.16794   0.91333   0.24862   0.00000  Uiso   1.00
C626   C     0.16528   0.75337   0.25190   0.00000  Uiso   1.00
C627   C     0.10097   0.76845   0.04144   0.00000  Uiso   1.00
C628   C     0.21165   0.75617   0.46207   0.00000  Uiso   1.00
C629   C     0.07337   0.75987   0.01006   0.00000  Uiso   1.00
C630   C     0.23963   0.75476   0.49309   0.00000  Uiso   1.00
C631   C     0.19928   0.98067   0.26952   0.00000  Uiso   1.00
C632   C     0.13309   0.68595   0.23286   0.00000  Uiso   1.00
C633   C     0.19363   0.68998   0.27547   0.00000  Uiso   1.00
C634   C     0.13911   0.97684   0.22636   0.00000  Uiso   1.00
C635   C     0.16272   0.70906   0.25463   0.00000  Uiso   1.00
C636   C     0.17025   0.95769   0.24681   0.00000  Uiso   1.00
C637   C     0.31651   0.81017   0.21834   0.00000  Uiso   1.00
C638   C     0.01707   0.85728   0.28092   0.00000  Uiso   1.00
C639   C     0.03156   0.80946   0.21908   0.00000  Uiso   1.00
C640   C     0.30148   0.85578   0.28216   0.00000  Uiso   1.00
C641   C     0.13965   0.82635   0.33564   0.00000  Uiso   1.00
C642   C     0.19393   0.83359   0.16240   0.00000  Uiso   1.00
C643   C     0.12790   0.80217   0.37705   0.00000  Uiso   1.00
C644   C     0.20601   0.82573   0.11318   0.00000  Uiso   1.00
C645   C     0.06468   0.76872   0.43050   0.00000  Uiso   1.00
C646   C     0.26473   0.80141   0.04804   0.00000  Uiso   1.00
C647   C     0.08832   0.77615   0.38504   0.00000  Uiso   1.00
C648   C     0.25316   0.82218   0.08991   0.00000  Uiso   1.00
C649   C     0.15630   0.80184   0.40731   0.00000  Uiso   1.00
C650   C     0.17069   0.81583   0.09056   0.00000  Uiso   1.00
C651   C     0.13924   0.78064   0.44867   0.00000  Uiso   1.00
C652   C     0.18184   0.79147   0.04993   0.00000  Uiso   1.00
C653   C     0.09129   0.76981   0.46349   0.00000  Uiso   1.00
C654   C     0.22925   0.78168   0.03112   0.00000  Uiso   1.00
C655   C     0.16767   0.77360   0.47755   0.00000  Uiso   1.00
C656   C     0.14922   0.77892   0.02438   0.00000  Uiso   1.00
N657   N     0.04759   0.83334   0.25001   0.00000  Uiso   1.00
N658   N     0.28574   0.83332   0.24999   0.00000  Uiso   1.00
O659   O     0.12846   0.89442   0.25000   0.00000  Uiso   1.00
O660   O     0.20488   0.77225   0.24999   0.00000  Uiso   1.00
O661   O     0.20490   0.89441   0.25000   0.00000  Uiso   1.00
O662   O     0.12843   0.77226   0.25000   0.00000  Uiso   1.00
O663   O     0.10661   0.83334   0.31612   0.00000  Uiso   1.00
O664   O     0.22672   0.83333   0.18387   0.00000  Uiso   1.00
O665   O     0.18305   0.83333   0.31612   0.00000  Uiso   1.00
O666   O     0.15028   0.83334   0.18388   0.00000  Uiso   1.00
Zn667  Zn    0.11562   0.83334   0.25000   0.00000  Uiso   1.00
Zn668  Zn    0.21771   0.83333   0.25000   0.00000  Uiso   1.00
O669   O     0.03009   0.74065   0.02515   0.00000  Uiso   1.00
C670   C     0.03604   0.69729   0.02438   0.00000  Uiso   1.00
H671   H     0.04612   0.68511   0.48875   0.00000  Uiso   1.00
H672   H     0.00244   0.68207   0.04185   0.00000  Uiso   1.00
H673   H     0.06206   0.68844   0.04303   0.00000  Uiso   1.00
O674   O     0.27604   0.72789   0.48674   0.00000  Uiso   1.00
C675   C     0.25745   0.68778   0.49969   0.00000  Uiso   1.00
H676   H     0.24158   0.68690   0.03699   0.00000  Uiso   1.00
H677   H     0.28615   0.99877   0.49143   0.00000  Uiso   1.00
H678   H     0.23152   0.67693   0.48074   0.00000  Uiso   1.00
O679   O     0.12726   0.83239   0.10755   0.00000  Uiso   1.00
H680   H     0.11381   0.83817   0.08174   0.00000  Uiso   1.00
O681   O     0.19850   0.82379   0.39685   0.00000  Uiso   1.00
H682   H     0.20878   0.82980   0.42497   0.00000  Uiso   1.00
O683   O     0.28884   0.83807   0.10751   0.00000  Uiso   1.00
H684   H     0.27936   0.86568   0.12144   0.00000  Uiso   1.00
O685   O     0.07084   0.76208   0.34913   0.00000  Uiso   1.00
H686   H     0.05064   0.73711   0.35920   0.00000  Uiso   1.00
O687   O     0.01649   0.76416   0.44273   0.00000  Uiso   1.00
C688   C     0.32856   0.79174   0.41822   0.00000  Uiso   1.00
H689   H     0.31940   0.77523   0.38905   0.00000  Uiso   1.00
H690   H     0.01642   0.82050   0.40641   0.00000  Uiso   1.00
H691   H     0.29585   0.80332   0.44020   0.00000  Uiso   1.00
O692   O     0.31046   0.80206   0.02237   0.00000  Uiso   1.00
C693   C     0.32574   0.84339   0.00986   0.00000  Uiso   1.00
H694   H     0.00342   0.86071   0.03753   0.00000  Uiso   1.00
H695   H     0.29913   0.86087   0.49830   0.00000  Uiso   1.00
H696   H     0.02408   0.84237   0.48132   0.00000  Uiso   1.00
O697   O     0.08129   0.76028   0.08668   0.00000  Uiso   1.00
H698   H     0.10649   0.75418   0.10139   0.00000  Uiso   1.00
O699   O     0.22414   0.73813   0.41908   0.00000  Uiso   1.00
H700   H     0.25570   0.72681   0.41383   0.00000  Uiso   1.00
O701   O     0.23010   0.96135   0.28934   0.00000  Uiso   1.00
C702   C     0.27457   0.96024   0.25802   0.00000  Uiso   1.00
H703   H     0.30157   0.95988   0.27747   0.00000  Uiso   1.00
H704   H     0.27821   0.93151   0.23669   0.00000  Uiso   1.00
H705   H     0.28284   0.98728   0.23493   0.00000  Uiso   1.00
O706   O     0.09986   0.70475   0.21587   0.00000  Uiso   1.00
C707   C     0.05720   0.70558   0.25007   0.00000  Uiso   1.00
H708   H     0.02795   0.70164   0.23355   0.00000  Uiso   1.00
H709   H     0.05277   0.68080   0.27595   0.00000  Uiso   1.00
H710   H     0.05313   0.73611   0.26809   0.00000  Uiso   1.00
O711   O     0.20997   0.71178   0.30875   0.00000  Uiso   1.00
C712   C     0.25823   0.72117   0.29395   0.00000  Uiso   1.00
H713   H     0.26526   0.75195   0.30862   0.00000  Uiso   1.00
H714   H     0.27137   0.72338   0.25633   0.00000  Uiso   1.00
H715   H     0.27805   0.69819   0.30747   0.00000  Uiso   1.00
O716   O     0.12164   0.95501   0.19381   0.00000  Uiso   1.00
C717   C     0.07317   0.94699   0.20927   0.00000  Uiso   1.00
H718   H     0.06030   0.94607   0.24697   0.00000  Uiso   1.00
H719   H     0.06496   0.91598   0.19588   0.00000  Uiso   1.00
H720   H     0.05398   0.97001   0.19505   0.00000  Uiso   1.00
O721   O     0.29943   0.78754   0.18666   0.00000  Uiso   1.00
H722   H     0.32432   0.78557   0.15810   0.00000  Uiso   1.00
O723   O     0.03495   0.88288   0.30986   0.00000  Uiso   1.00
H724   H     0.01456   0.90698   0.31895   0.00000  Uiso   1.00
O725   O     0.06323   0.78505   0.18947   0.00000  Uiso   1.00
H726   H     0.04653   0.76078   0.17974   0.00000  Uiso   1.00
O727   O     0.26896   0.87601   0.31553   0.00000  Uiso   1.00
H728   H     0.28045   0.87834   0.34341   0.00000  Uiso   1.00
C729   C     0.50128   0.91333   0.24862   0.00000  Uiso   1.00
C730   C     0.49861   0.75337   0.25190   0.00000  Uiso   1.00
C731   C     0.43430   0.76845   0.04144   0.00000  Uiso   1.00
C732   C     0.54498   0.75617   0.46207   0.00000  Uiso   1.00
C733   C     0.40670   0.75987   0.01006   0.00000  Uiso   1.00
C734   C     0.57296   0.75476   0.49309   0.00000  Uiso   1.00
C735   C     0.53262   0.98067   0.26952   0.00000  Uiso   1.00
C736   C     0.46642   0.68595   0.23286   0.00000  Uiso   1.00
C737   C     0.52696   0.68998   0.27547   0.00000  Uiso   1.00
C738   C     0.47244   0.97684   0.22636   0.00000  Uiso   1.00
C739   C     0.49606   0.70906   0.25463   0.00000  Uiso   1.00
C740   C     0.50358   0.95769   0.24681   0.00000  Uiso   1.00
C741   C     0.64984   0.81017   0.21834   0.00000  Uiso   1.00
C742   C     0.35041   0.85728   0.28092   0.00000  Uiso   1.00
C743   C     0.36489   0.80946   0.21908   0.00000  Uiso   1.00
C744   C     0.63482   0.85578   0.28216   0.00000  Uiso   1.00
C745   C     0.47298   0.82635   0.33564   0.00000  Uiso   1.00
C746   C     0.52727   0.83359   0.16240   0.00000  Uiso   1.00
C747   C     0.46123   0.80217   0.37705   0.00000  Uiso   1.00
C748   C     0.53934   0.82573   0.11318   0.00000  Uiso   1.00
C749   C     0.39801   0.76872   0.43050   0.00000  Uiso   1.00
C750   C     0.59807   0.80141   0.04804   0.00000  Uiso   1.00
C751   C     0.42166   0.77615   0.38504   0.00000  Uiso   1.00
C752   C     0.58649   0.82218   0.08991   0.00000  Uiso   1.00
C753   C     0.48964   0.80184   0.40731   0.00000  Uiso   1.00
C754   C     0.50403   0.81583   0.09056   0.00000  Uiso   1.00
C755   C     0.47257   0.78064   0.44867   0.00000  Uiso   1.00
C756   C     0.51517   0.79147   0.04993   0.00000  Uiso   1.00
C757   C     0.42462   0.76981   0.46349   0.00000  Uiso   1.00
C758   C     0.56259   0.78168   0.03112   0.00000  Uiso   1.00
C759   C     0.50100   0.77360   0.47755   0.00000  Uiso   1.00
C760   C     0.48255   0.77892   0.02438   0.00000  Uiso   1.00
N761   N     0.38093   0.83334   0.25001   0.00000  Uiso   1.00
N762   N     0.61907   0.83332   0.24999   0.00000  Uiso   1.00
O763   O     0.46179   0.89442   0.25000   0.00000  Uiso   1.00
O764   O     0.53821   0.77225   0.24999   0.00000  Uiso   1.00
O765   O     0.53823   0.89441   0.25000   0.00000  Uiso   1.00
O766   O     0.46177   0.77226   0.25000   0.00000  Uiso   1.00
O767   O     0.43994   0.83334   0.31612   0.00000  Uiso   1.00
O768   O     0.56006   0.83333   0.18387   0.00000  Uiso   1.00
O769   O     0.51639   0.83333   0.31612   0.00000  Uiso   1.00
O770   O     0.48361   0.83334   0.18388   0.00000  Uiso   1.00
Zn771  Zn    0.44896   0.83334   0.25000   0.00000  Uiso   1.00
Zn772  Zn    0.55104   0.83333   0.25000   0.00000  Uiso   1.00
O773   O     0.36342   0.74065   0.02515   0.00000  Uiso   1.00
C774   C     0.36938   0.69729   0.02438   0.00000  Uiso   1.00
H775   H     0.37945   0.68511   0.48875   0.00000  Uiso   1.00
H776   H     0.33577   0.68207   0.04185   0.00000  Uiso   1.00
H777   H     0.39539   0.68844   0.04303   0.00000  Uiso   1.00
O778   O     0.60938   0.72789   0.48674   0.00000  Uiso   1.00
C779   C     0.59079   0.68778   0.49969   0.00000  Uiso   1.00
H780   H     0.57491   0.68690   0.03699   0.00000  Uiso   1.00
H781   H     0.61948   0.99877   0.49143   0.00000  Uiso   1.00
H782   H     0.56485   0.67693   0.48074   0.00000  Uiso   1.00
O783   O     0.46060   0.83239   0.10755   0.00000  Uiso   1.00
H784   H     0.44715   0.83817   0.08174   0.00000  Uiso   1.00
O785   O     0.53183   0.82379   0.39685   0.00000  Uiso   1.00
H786   H     0.54211   0.82980   0.42497   0.00000  Uiso   1.00
O787   O     0.62217   0.83807   0.10751   0.00000  Uiso   1.00
H788   H     0.61270   0.86568   0.12144   0.00000  Uiso   1.00
O789   O     0.40418   0.76208   0.34913   0.00000  Uiso   1.00
H790   H     0.38398   0.73711   0.35920   0.00000  Uiso   1.00
O791   O     0.34982   0.76416   0.44273   0.00000  Uiso   1.00
C792   C     0.66190   0.79174   0.41822   0.00000  Uiso   1.00
H793   H     0.65273   0.77523   0.38905   0.00000  Uiso   1.00
H794   H     0.34975   0.82050   0.40641   0.00000  Uiso   1.00
H795   H     0.62918   0.80332   0.44020   0.00000  Uiso   1.00
O796   O     0.64379   0.80206   0.02237   0.00000  Uiso   1.00
C797   C     0.65907   0.84339   0.00986   0.00000  Uiso   1.00
H798   H     0.33675   0.86071   0.03753   0.00000  Uiso   1.00
H799   H     0.63246   0.86087   0.49830   0.00000  Uiso   1.00
H800   H     0.35741   0.84237   0.48132   0.00000  Uiso   1.00
O801   O     0.41463   0.76028   0.08668   0.00000  Uiso   1.00
H802   H     0.43983   0.75418   0.10139   0.00000  Uiso   1.00
O803   O     0.55747   0.73813   0.41908   0.00000  Uiso   1.00
H804   H     0.58904   0.72681   0.41383   0.00000  Uiso   1.00
O805   O     0.56343   0.96135   0.28934   0.00000  Uiso   1.00
C806   C     0.60790   0.96024   0.25802   0.00000  Uiso   1.00
H807   H     0.63490   0.95988   0.27747   0.00000  Uiso   1.00
H808   H     0.61155   0.93151   0.23669   0.00000  Uiso   1.00
H809   H     0.61617   0.98728   0.23493   0.00000  Uiso   1.00
O810   O     0.43319   0.70475   0.21587   0.00000  Uiso   1.00
C811   C     0.39053   0.70558   0.25007   0.00000  Uiso   1.00
H812   H     0.36128   0.70164   0.23355   0.00000  Uiso   1.00
H813   H     0.38610   0.68080   0.27595   0.00000  Uiso   1.00
H814   H     0.38646   0.73611   0.26809   0.00000  Uiso   1.00
O815   O     0.54331   0.71178   0.30875   0.00000  Uiso   1.00
C816   C     0.59156   0.72117   0.29395   0.00000  Uiso   1.00
H817   H     0.59859   0.75195   0.30862   0.00000  Uiso   1.00
H818   H     0.60471   0.72338   0.25633   0.00000  Uiso   1.00
H819   H     0.61139   0.69819   0.30747   0.00000  Uiso   1.00
O820   O     0.45498   0.95501   0.19381   0.00000  Uiso   1.00
C821   C     0.40650   0.94699   0.20927   0.00000  Uiso   1.00
H822   H     0.39363   0.94607   0.24697   0.00000  Uiso   1.00
H823   H     0.39830   0.91598   0.19588   0.00000  Uiso   1.00
H824   H     0.38732   0.97001   0.19505   0.00000  Uiso   1.00
O825   O     0.63277   0.78754   0.18666   0.00000  Uiso   1.00
H826   H     0.65765   0.78557   0.15810   0.00000  Uiso   1.00
O827   O     0.36828   0.88288   0.30986   0.00000  Uiso   1.00
H828   H     0.34790   0.90698   0.31895   0.00000  Uiso   1.00
O829   O     0.39657   0.78505   0.18947   0.00000  Uiso   1.00
H830   H     0.37987   0.76078   0.17974   0.00000  Uiso   1.00
O831   O     0.60229   0.87601   0.31553   0.00000  Uiso   1.00
H832   H     0.61378   0.87834   0.34341   0.00000  Uiso   1.00
C833   C     0.83461   0.91333   0.24862   0.00000  Uiso   1.00
C834   C     0.83194   0.75337   0.25190   0.00000  Uiso   1.00
C835   C     0.76763   0.76845   0.04144   0.00000  Uiso   1.00
C836   C     0.87832   0.75617   0.46207   0.00000  Uiso   1.00
C837   C     0.74003   0.75987   0.01006   0.00000  Uiso   1.00
C838   C     0.90630   0.75476   0.49309   0.00000  Uiso   1.00
C839   C     0.86595   0.98067   0.26952   0.00000  Uiso   1.00
C840   C     0.79975   0.68595   0.23286   0.00000  Uiso   1.00
C841   C     0.86030   0.68998   0.27547   0.00000  Uiso   1.00
C842   C     0.80578   0.97684   0.22636   0.00000  Uiso   1.00
C843   C     0.82939   0.70906   0.25463   0.00000  Uiso   1.00
C844   C     0.83691   0.95769   0.24681   0.00000  Uiso   1.00
C845   C     0.98318   0.81017   0.21834   0.00000  Uiso   1.00
C846   C     0.68374   0.85728   0.28092   0.00000  Uiso   1.00
C847   C     0.69822   0.80946   0.21908   0.00000  Uiso   1.00
C848   C     0.96815   0.85578   0.28216   0.00000  Uiso   1.00
C849   C     0.80631   0.82635   0.33564   0.00000  Uiso   1.00
C850   C     0.86060   0.83359   0.16240   0.00000  Uiso   1.00
C851   C     0.79457   0.80217   0.37705   0.00000  Uiso   1.00
C852   C     0.87268   0.82573   0.11318   0.00000  Uiso   1.00
C853   C     0.73135   0.76872   0.43050   0.00000  Uiso   1.00
C854   C     0.93140   0.80141   0.04804   0.00000  Uiso   1.00
C855   C     0.75499   0.77615   0.38504   0.00000  Uiso   1.00
C856   C     0.91982   0.82218   0.08991   0.00000  Uiso   1.00
C857   C     0.82297   0.80184   0.40731   0.00000  Uiso   1.00
C858   C     0.83736   0.81583   0.09056   0.00000  Uiso   1.00
C859   C     0.80590   0.78064   0.44867   0.00000  Uiso   1.00
C860   C     0.84850   0.79147   0.04993   0.00000  Uiso   1.00
C861   C     0.75795   0.76981   0.46349   0.00000  Uiso   1.00
C862   C     0.89592   0.78168   0.03112   0.00000  Uiso   1.00
C863   C     0.83434   0.77360   0.47755   0.00000  Uiso   1.00
C864   C     0.81589   0.77892   0.02438   0.00000  Uiso   1.00
N865   N     0.71426   0.83334   0.25001   0.00000  Uiso   1.00
N866   N     0.95241   0.83332   0.24999   0.00000  Uiso   1.00
O867   O     0.79512   0.89442   0.25000   0.00000  Uiso   1.00
O868   O     0.87154   0.77225   0.24999   0.00000  Uiso   1.00
O869   O     0.87157   0.89441   0.25000   0.00000  Uiso   1.00
O870   O     0.79510   0.77226   0.25000   0.00000  Uiso   1.00
O871   O     0.77328   0.83334   0.31612   0.00000  Uiso   1.00
O872   O     0.89339   0.83333   0.18387   0.00000  Uiso   1.00
O873   O     0.84972   0.83333   0.31612   0.00000  Uiso   1.00
O874   O     0.81695   0.83334   0.18388   0.00000  Uiso   1.00
Zn875  Zn    0.78229   0.83334   0.25000   0.00000  Uiso   1.00
Zn876  Zn    0.88438   0.83333   0.25000   0.00000  Uiso   1.00
O877   O     0.69675   0.74065   0.02515   0.00000  Uiso   1.00
C878   C     0.70271   0.69729   0.02438   0.00000  Uiso   1.00
H879   H     0.71278   0.68511   0.48875   0.00000  Uiso   1.00
H880   H     0.66910   0.68207   0.04185   0.00000  Uiso   1.00
H881   H     0.72872   0.68844   0.04303   0.00000  Uiso   1.00
O882   O     0.94271   0.72789   0.48674   0.00000  Uiso   1.00
C883   C     0.92412   0.68778   0.49969   0.00000  Uiso   1.00
H884   H     0.90824   0.68690   0.03699   0.00000  Uiso   1.00
H885   H     0.95281   0.99877   0.49143   0.00000  Uiso   1.00
H886   H     0.89818   0.67693   0.48074   0.00000  Uiso   1.00
O887   O     0.79393   0.83239   0.10755   0.00000  Uiso   1.00
H888   H     0.78048   0.83817   0.08174   0.00000  Uiso   1.00
O889   O     0.86516   0.82379   0.39685   0.00000  Uiso   1.00
H890   H     0.87544   0.82980   0.42497   0.00000  Uiso   1.00
O891   O     0.95550   0.83807   0.10751   0.00000  Uiso   1.00
H892   H     0.94603   0.86568   0.12144   0.00000  Uiso   1.00
O893   O     0.73751   0.76208   0.34913   0.00000  Uiso   1.00
H894   H     0.71731   0.73711   0.35920   0.00000  Uiso   1.00
O895   O     0.68316   0.76416   0.44273   0.00000  Uiso   1.00
C896   C     0.99523   0.79174   0.41822   0.00000  Uiso   1.00
H897   H     0.98607   0.77523   0.38905   0.00000  Uiso   1.00
H898   H     0.68309   0.82050   0.40641   0.00000  Uiso   1.00
H899   H     0.96251   0.80332   0.44020   0.00000  Uiso   1.00
O900   O     0.97713   0.80206   0.02237   0.00000  Uiso   1.00
C901   C     0.99240   0.84339   0.00986   0.00000  Uiso   1.00
H902   H     0.67008   0.86071   0.03753   0.00000  Uiso   1.00
H903   H     0.96580   0.86087   0.49830   0.00000  Uiso   1.00
H904   H     0.69075   0.84237   0.48132   0.00000  Uiso   1.00
O905   O     0.74796   0.76028   0.08668   0.00000  Uiso   1.00
H906   H     0.77316   0.75418   0.10139   0.00000  Uiso   1.00
O907   O     0.89080   0.73813   0.41908   0.00000  Uiso   1.00
H908   H     0.92237   0.72681   0.41383   0.00000  Uiso   1.00
O909   O     0.89677   0.96135   0.28934   0.00000  Uiso   1.00
C910   C     0.94123   0.96024   0.25802   0.00000  Uiso   1.00
H911   H     0.96823   0.95988   0.27747   0.00000  Uiso   1.00
H912   H     0.94488   0.93151   0.23669   0.00000  Uiso   1.00
H913   H     0.94951   0.98728   0.23493   0.00000  Uiso   1.00
O914   O     0.76652   0.70475   0.21587   0.00000  Uiso   1.00
C915   C     0.72386   0.70558   0.25007   0.00000  Uiso   1.00
H916   H     0.69462   0.70164   0.23355   0.00000  Uiso   1.00
H917   H     0.71943   0.68080   0.27595   0.00000  Uiso   1.00
H918   H     0.71979   0.73611   0.26809   0.00000  Uiso   1.00
O919   O     0.87664   0.71178   0.30875   0.00000  Uiso   1.00
C920   C     0.92489   0.72117   0.29395   0.00000  Uiso   1.00
H921   H     0.93192   0.75195   0.30862   0.00000  Uiso   1.00
H922   H     0.93804   0.72338   0.25633   0.00000  Uiso   1.00
H923   H     0.94472   0.69819   0.30747   0.00000  Uiso   1.00
O924   O     0.78831   0.95501   0.19381   0.00000  Uiso   1.00
C925   C     0.73983   0.94699   0.20927   0.00000  Uiso   1.00
H926   H     0.72696   0.94607   0.24697   0.00000  Uiso   1.00
H927   H     0.73163   0.91598   0.19588   0.00000  Uiso   1.00
H928   H     0.72065   0.97001   0.19505   0.00000  Uiso   1.00
O929   O     0.96610   0.78754   0.18666   0.00000  Uiso   1.00
H930   H     0.99098   0.78557   0.15810   0.00000  Uiso   1.00
O931   O     0.70162   0.88288   0.30986   0.00000  Uiso   1.00
H932   H     0.68123   0.90698   0.31895   0.00000  Uiso   1.00
O933   O     0.72990   0.78505   0.18947   0.00000  Uiso   1.00
H934   H     0.71320   0.76078   0.17974   0.00000  Uiso   1.00
O935   O     0.93562   0.87601   0.31553   0.00000  Uiso   1.00
H936   H     0.94711   0.87834   0.34341   0.00000  Uiso   1.00
C937   C     0.16794   0.24666   0.74862   0.00000  Uiso   1.00
C938   C     0.16528   0.08670   0.75190   0.00000  Uiso   1.00
C939   C     0.10097   0.10178   0.54144   0.00000  Uiso   1.00
C940   C     0.21165   0.08951   0.96207   0.00000  Uiso   1.00
C941   C     0.07337   0.09321   0.51006   0.00000  Uiso   1.00
C942   C     0.23963   0.08809   0.99309   0.00000  Uiso   1.00
C943   C     0.19928   0.31400   0.76952   0.00000  Uiso   1.00
C944   C     0.13309   0.01928   0.73286   0.00000  Uiso   1.00
C945   C     0.19363   0.02331   0.77547   0.00000  Uiso   1.00
C946   C     0.13911   0.31017   0.72636   0.00000  Uiso   1.00
C947   C     0.16272   0.04239   0.75463   0.00000  Uiso   1.00
C948   C     0.17025   0.29102   0.74681   0.00000  Uiso   1.00
C949   C     0.31651   0.14351   0.71834   0.00000  Uiso   1.00
C950   C     0.01707   0.19062   0.78092   0.00000  Uiso   1.00
C951   C     0.03156   0.14279   0.71908   0.00000  Uiso   1.00
C952   C     0.30148   0.18911   0.78216   0.00000  Uiso   1.00
C953   C     0.13965   0.15968   0.83564   0.00000  Uiso   1.00
C954   C     0.19393   0.16693   0.66240   0.00000  Uiso   1.00
C955   C     0.12790   0.13550   0.87705   0.00000  Uiso   1.00
C956   C     0.20601   0.15906   0.61318   0.00000  Uiso   1.00
C957   C     0.06468   0.10205   0.93050   0.00000  Uiso   1.00
C958   C     0.26473   0.13475   0.54804   0.00000  Uiso   1.00
C959   C     0.08832   0.10949   0.88504   0.00000  Uiso   1.00
C960   C     0.25316   0.15551   0.58991   0.00000  Uiso   1.00
C961   C     0.15630   0.13518   0.90731   0.00000  Uiso   1.00
C962   C     0.17069   0.14916   0.59056   0.00000  Uiso   1.00
C963   C     0.13924   0.11397   0.94867   0.00000  Uiso   1.00
C964   C     0.18184   0.12480   0.54993   0.00000  Uiso   1.00
C965   C     0.09129   0.10314   0.96349   0.00000  Uiso   1.00
C966   C     0.22925   0.11501   0.53112   0.00000  Uiso   1.00
C967   C     0.16767   0.10694   0.97755   0.00000  Uiso   1.00
C968   C     0.14922   0.11225   0.52438   0.00000  Uiso   1.00
N969   N     0.04759   0.16668   0.75001   0.00000  Uiso   1.00
N970   N     0.28574   0.16666   0.74999   0.00000  Uiso   1.00
O971   O     0.12846   0.22775   0.75000   0.00000  Uiso   1.00
O972   O     0.20488   0.10558   0.74999   0.00000  Uiso   1.00
O973   O     0.20490   0.22774   0.75000   0.00000  Uiso   1.00
O974   O     0.12843   0.10559   0.75000   0.00000  Uiso   1.00
O975   O     0.10661   0.16667   0.81612   0.00000  Uiso   1.00
O976   O     0.22672   0.16666   0.68387   0.00000  Uiso   1.00
O977   O     0.18305   0.16666   0.81612   0.00000  Uiso   1.00
O978   O     0.15028   0.16667   0.68388   0.00000  Uiso   1.00
Zn979  Zn    0.11562   0.16667   0.75000   0.00000  Uiso   1.00
Zn980  Zn    0.21771   0.16666   0.75000   0.00000  Uiso   1.00
O981   O     0.03009   0.07398   0.52515   0.00000  Uiso   1.00
C982   C     0.03604   0.03062   0.52438   0.00000  Uiso   1.00
H983   H     0.04612   0.01844   0.98875   0.00000  Uiso   1.00
H984   H     0.00244   0.01540   0.54185   0.00000  Uiso   1.00
H985   H     0.06206   0.02178   0.54303   0.00000  Uiso   1.00
O986   O     0.27604   0.06122   0.98674   0.00000  Uiso   1.00
C987   C     0.25745   0.02111   0.99969   0.00000  Uiso   1.00
H988   H     0.24158   0.02023   0.53699   0.00000  Uiso   1.00
H989   H     0.28615   0.33211   0.99143   0.00000  Uiso   1.00
H990   H     0.23152   0.01026   0.98074   0.00000  Uiso   1.00
O991   O     0.12726   0.16572   0.60755   0.00000  Uiso   1.00
H992   H     0.11381   0.17151   0.58174   0.00000  Uiso   1.00
O993   O     0.19850   0.15713   0.89685   0.00000  Uiso   1.00
H994   H     0.20878   0.16313   0.92497   0.00000  Uiso   1.00
O995   O     0.28884   0.17140   0.60751   0.00000  Uiso   1.00
H996   H     0.27936   0.19901   0.62144   0.00000  Uiso   1.00
O997   O     0.07084   0.09541   0.84913   0.00000  Uiso   1.00
H998   H     0.05064   0.07045   0.85920   0.00000  Uiso   1.00
O999   O     0.01649   0.09750   0.94273   0.00000  Uiso   1.00
C1000  C     0.32856   0.12507   0.91822   0.00000  Uiso   1.00
H1001  H     0.31940   0.10856   0.88905   0.00000  Uiso   1.00
H1002  H     0.01642   0.15383   0.90641   0.00000  Uiso   1.00
H1003  H     0.29585   0.13665   0.94020   0.00000  Uiso   1.00
O1004  O     0.31046   0.13539   0.52237   0.00000  Uiso   1.00
C1005  C     0.32574   0.17672   0.50986   0.00000  Uiso   1.00
H1006  H     0.00342   0.19404   0.53753   0.00000  Uiso   1.00
H1007  H     0.29913   0.19420   0.99830   0.00000  Uiso   1.00
H1008  H     0.02408   0.17570   0.98132   0.00000  Uiso   1.00
O1009  O     0.08129   0.09361   0.58668   0.00000  Uiso   1.00
H1010  H     0.10649   0.08751   0.60139   0.00000  Uiso   1.00
O1011  O     0.22414   0.07147   0.91908   0.00000  Uiso   1.00
H1012  H     0.25570   0.06015   0.91383   0.00000  Uiso   1.00
O1013  O     0.23010   0.29468   0.78934   0.00000  Uiso   1.00
C1014  C     0.27457   0.29357   0.75802   0.00000  Uiso   1.00
H1015  H     0.30157   0.29321   0.77747   0.00000  Uiso   1.00
H1016  H     0.27821   0.26484   0.73669   0.00000  Uiso   1.00
H1017  H     0.28284   0.32062   0.73493   0.00000  Uiso   1.00
O1018  O     0.09986   0.03808   0.71587   0.00000  Uiso   1.00
C1019  C     0.05720   0.03891   0.75007   0.00000  Uiso   1.00
H1020  H     0.02795   0.03498   0.73355   0.00000  Uiso   1.00
H1021  H     0.05277   0.01414   0.77595   0.00000  Uiso   1.00
H1022  H     0.05313   0.06944   0.76809   0.00000  Uiso   1.00
O1023  O     0.20997   0.04511   0.80875   0.00000  Uiso   1.00
C1024  C     0.25823   0.05450   0.79395   0.00000  Uiso   1.00
H1025  H     0.26526   0.08528   0.80862   0.00000  Uiso   1.00
H1026  H     0.27137   0.05672   0.75633   0.00000  Uiso   1.00
H1027  H     0.27805   0.03152   0.80747   0.00000  Uiso   1.00
O1028  O     0.12164   0.28835   0.69381   0.00000  Uiso   1.00
C1029  C     0.07317   0.28032   0.70927   0.00000  Uiso   1.00
H1030  H     0.06030   0.27940   0.74697   0.00000  Uiso   1.00
H1031  H     0.06496   0.24931   0.69588   0.00000  Uiso   1.00
H1032  H     0.05398   0.30335   0.69505   0.00000  Uiso   1.00
O1033  O     0.29943   0.12087   0.68666   0.00000  Uiso   1.00
H1034  H     0.32432   0.11890   0.65810   0.00000  Uiso   1.00
O1035  O     0.03495   0.21621   0.80986   0.00000  Uiso   1.00
H1036  H     0.01456   0.24032   0.81895   0.00000  Uiso   1.00
O1037  O     0.06323   0.11839   0.68947   0.00000  Uiso   1.00
H1038  H     0.04653   0.09412   0.67974   0.00000  Uiso   1.00
O1039  O     0.26896   0.20935   0.81553   0.00000  Uiso   1.00
H1040  H     0.28045   0.21168   0.84341   0.00000  Uiso   1.00
C1041  C     0.50128   0.24666   0.74862   0.00000  Uiso   1.00
C1042  C     0.49861   0.08670   0.75190   0.00000  Uiso   1.00
C1043  C     0.43430   0.10178   0.54144   0.00000  Uiso   1.00
C1044  C     0.54498   0.08951   0.96207   0.00000  Uiso   1.00
C1045  C     0.40670   0.09321   0.51006   0.00000  Uiso   1.00
C1046  C     0.57296   0.08809   0.99309   0.00000  Uiso   1.00
C1047  C     0.53262   0.31400   0.76952   0.00000  Uiso   1.00
C1048  C     0.46642   0.01928   0.73286   0.00000  Uiso   1.00
C1049  C     0.52696   0.02331   0.77547   0.00000  Uiso   1.00
C1050  C     0.47244   0.31017   0.72636   0.00000  Uiso   1.00
C1051  C     0.49606   0.04239   0.75463   0.00000  Uiso   1.00
C1052  C     0.50358   0.29102   0.74681   0.00000  Uiso   1.00
C1053  C     0.64984   0.14351   0.71834   0.00000  Uiso   1.00
C1054  C     0.35041   0.19062   0.78092   0.00000  Uiso   1.00
C1055  C     0.36489   0.14279   0.71908   0.00000  Uiso   1.00
C1056  C     0.63482   0.18911   0.78216   0.00000  Uiso   1.00
C1057  C     0.47298   0.15968   0.83564   0.00000  Uiso   1.00
C1058  C     0.52727   0.16693   0.66240   0.00000  Uiso   1.00
C1059  C     0.46123   0.13550   0.87705   0.00000  Uiso   1.00
C1060  C     0.53934   0.15906   0.61318   0.00000  Uiso   1.00
C1061  C     0.39801   0.10205   0.93050   0.00000  Uiso   1.00
C1062  C     0.59807   0.13475   0.54804   0.00000  Uiso   1.00
C1063  C     0.42166   0.10949   0.88504   0.00000  Uiso   1.00
C1064  C     0.58649   0.15551   0.58991   0.00000  Uiso   1.00
C1065  C     0.48964   0.13518   0.90731   0.00000  Uiso   1.00
C1066  C     0.50403   0.14916   0.59056   0.00000  Uiso   1.00
C1067  C     0.47257   0.11397   0.94867   0.00000  Uiso   1.00
C1068  C     0.51517   0.12480   0.54993   0.00000  Uiso   1.00
C1069  C     0.42462   0.10314   0.96349   0.00000  Uiso   1.00
C1070  C     0.56259   0.11501   0.53112   0.00000  Uiso   1.00
C1071  C     0.50100   0.10694   0.97755   0.00000  Uiso   1.00
C1072  C     0.48255   0.11225   0.52438   0.00000  Uiso   1.00
N1073  N     0.38093   0.16668   0.75001   0.00000  Uiso   1.00
N1074  N     0.61907   0.16666   0.74999   0.00000  Uiso   1.00
O1075  O     0.46179   0.22775   0.75000   0.00000  Uiso   1.00
O1076  O     0.53821   0.10558   0.74999   0.00000  Uiso   1.00
O1077  O     0.53823   0.22774   0.75000   0.00000  Uiso   1.00
O1078  O     0.46177   0.10559   0.75000   0.00000  Uiso   1.00
O1079  O     0.43994   0.16667   0.81612   0.00000  Uiso   1.00
O1080  O     0.56006   0.16666   0.68387   0.00000  Uiso   1.00
O1081  O     0.51639   0.16666   0.81612   0.00000  Uiso   1.00
O1082  O     0.48361   0.16667   0.68388   0.00000  Uiso   1.00
Zn1083 Zn    0.44896   0.16667   0.75000   0.00000  Uiso   1.00
Zn1084 Zn    0.55104   0.16666   0.75000   0.00000  Uiso   1.00
O1085  O     0.36342   0.07398   0.52515   0.00000  Uiso   1.00
C1086  C     0.36938   0.03062   0.52438   0.00000  Uiso   1.00
H1087  H     0.37945   0.01844   0.98875   0.00000  Uiso   1.00
H1088  H     0.33577   0.01540   0.54185   0.00000  Uiso   1.00
H1089  H     0.39539   0.02178   0.54303   0.00000  Uiso   1.00
O1090  O     0.60938   0.06122   0.98674   0.00000  Uiso   1.00
C1091  C     0.59079   0.02111   0.99969   0.00000  Uiso   1.00
H1092  H     0.57491   0.02023   0.53699   0.00000  Uiso   1.00
H1093  H     0.61948   0.33211   0.99143   0.00000  Uiso   1.00
H1094  H     0.56485   0.01026   0.98074   0.00000  Uiso   1.00
O1095  O     0.46060   0.16572   0.60755   0.00000  Uiso   1.00
H1096  H     0.44715   0.17151   0.58174   0.00000  Uiso   1.00
O1097  O     0.53183   0.15713   0.89685   0.00000  Uiso   1.00
H1098  H     0.54211   0.16313   0.92497   0.00000  Uiso   1.00
O1099  O     0.62217   0.17140   0.60751   0.00000  Uiso   1.00
H1100  H     0.61270   0.19901   0.62144   0.00000  Uiso   1.00
O1101  O     0.40418   0.09541   0.84913   0.00000  Uiso   1.00
H1102  H     0.38398   0.07045   0.85920   0.00000  Uiso   1.00
O1103  O     0.34982   0.09750   0.94273   0.00000  Uiso   1.00
C1104  C     0.66190   0.12507   0.91822   0.00000  Uiso   1.00
H1105  H     0.65273   0.10856   0.88905   0.00000  Uiso   1.00
H1106  H     0.34975   0.15383   0.90641   0.00000  Uiso   1.00
H1107  H     0.62918   0.13665   0.94020   0.00000  Uiso   1.00
O1108  O     0.64379   0.13539   0.52237   0.00000  Uiso   1.00
C1109  C     0.65907   0.17672   0.50986   0.00000  Uiso   1.00
H1110  H     0.33675   0.19404   0.53753   0.00000  Uiso   1.00
H1111  H     0.63246   0.19420   0.99830   0.00000  Uiso   1.00
H1112  H     0.35741   0.17570   0.98132   0.00000  Uiso   1.00
O1113  O     0.41463   0.09361   0.58668   0.00000  Uiso   1.00
H1114  H     0.43983   0.08751   0.60139   0.00000  Uiso   1.00
O1115  O     0.55747   0.07147   0.91908   0.00000  Uiso   1.00
H1116  H     0.58904   0.06015   0.91383   0.00000  Uiso   1.00
O1117  O     0.56343   0.29468   0.78934   0.00000  Uiso   1.00
C1118  C     0.60790   0.29357   0.75802   0.00000  Uiso   1.00
H1119  H     0.63490   0.29321   0.77747   0.00000  Uiso   1.00
H1120  H     0.61155   0.26484   0.73669   0.00000  Uiso   1.00
H1121  H     0.61617   0.32062   0.73493   0.00000  Uiso   1.00
O1122  O     0.43319   0.03808   0.71587   0.00000  Uiso   1.00
C1123  C     0.39053   0.03891   0.75007   0.00000  Uiso   1.00
H1124  H     0.36128   0.03498   0.73355   0.00000  Uiso   1.00
H1125  H     0.38610   0.01414   0.77595   0.00000  Uiso   1.00
H1126  H     0.38646   0.06944   0.76809   0.00000  Uiso   1.00
O1127  O     0.54331   0.04511   0.80875   0.00000  Uiso   1.00
C1128  C     0.59156   0.05450   0.79395   0.00000  Uiso   1.00
H1129  H     0.59859   0.08528   0.80862   0.00000  Uiso   1.00
H1130  H     0.60471   0.05672   0.75633   0.00000  Uiso   1.00
H1131  H     0.61139   0.03152   0.80747   0.00000  Uiso   1.00
O1132  O     0.45498   0.28835   0.69381   0.00000  Uiso   1.00
C1133  C     0.40650   0.28032   0.70927   0.00000  Uiso   1.00
H1134  H     0.39363   0.27940   0.74697   0.00000  Uiso   1.00
H1135  H     0.39830   0.24931   0.69588   0.00000  Uiso   1.00
H1136  H     0.38732   0.30335   0.69505   0.00000  Uiso   1.00
O1137  O     0.63277   0.12087   0.68666   0.00000  Uiso   1.00
H1138  H     0.65765   0.11890   0.65810   0.00000  Uiso   1.00
O1139  O     0.36828   0.21621   0.80986   0.00000  Uiso   1.00
H1140  H     0.34790   0.24032   0.81895   0.00000  Uiso   1.00
O1141  O     0.39657   0.11839   0.68947   0.00000  Uiso   1.00
H1142  H     0.37987   0.09412   0.67974   0.00000  Uiso   1.00
O1143  O     0.60229   0.20935   0.81553   0.00000  Uiso   1.00
H1144  H     0.61378   0.21168   0.84341   0.00000  Uiso   1.00
C1145  C     0.83461   0.24666   0.74862   0.00000  Uiso   1.00
C1146  C     0.83194   0.08670   0.75190   0.00000  Uiso   1.00
C1147  C     0.76763   0.10178   0.54144   0.00000  Uiso   1.00
C1148  C     0.87832   0.08951   0.96207   0.00000  Uiso   1.00
C1149  C     0.74003   0.09321   0.51006   0.00000  Uiso   1.00
C1150  C     0.90630   0.08809   0.99309   0.00000  Uiso   1.00
C1151  C     0.86595   0.31400   0.76952   0.00000  Uiso   1.00
C1152  C     0.79975   0.01928   0.73286   0.00000  Uiso   1.00
C1153  C     0.86030   0.02331   0.77547   0.00000  Uiso   1.00
C1154  C     0.80578   0.31017   0.72636   0.00000  Uiso   1.00
C1155  C     0.82939   0.04239   0.75463   0.00000  Uiso   1.00
C1156  C     0.83691   0.29102   0.74681   0.00000  Uiso   1.00
C1157  C     0.98318   0.14351   0.71834   0.00000  Uiso   1.00
C1158  C     0.68374   0.19062   0.78092   0.00000  Uiso   1.00
C1159  C     0.69822   0.14279   0.71908   0.00000  Uiso   1.00
C1160  C     0.96815   0.18911   0.78216   0.00000  Uiso   1.00
C1161  C     0.80631   0.15968   0.83564   0.00000  Uiso   1.00
C1162  C     0.86060   0.16693   0.66240   0.00000  Uiso   1.00
C1163  C     0.79457   0.13550   0.87705   0.00000  Uiso   1.00
C1164  C     0.87268   0.15906   0.61318   0.00000  Uiso   1.00
C1165  C     0.73135   0.10205   0.93050   0.00000  Uiso   1.00
C1166  C     0.93140   0.13475   0.54804   0.00000  Uiso   1.00
C1167  C     0.75499   0.10949   0.88504   0.00000  Uiso   1.00
C1168  C     0.91982   0.15551   0.58991   0.00000  Uiso   1.00
C1169  C     0.82297   0.13518   0.90731   0.00000  Uiso   1.00
C1170  C     0.83736   0.14916   0.59056   0.00000  Uiso   1.00
C1171  C     0.80590   0.11397   0.94867   0.00000  Uiso   1.00
C1172  C     0.84850   0.12480   0.54993   0.00000  Uiso   1.00
C1173  C     0.75795   0.10314   0.96349   0.00000  Uiso   1.00
C1174  C     0.89592   0.11501   0.53112   0.00000  Uiso   1.00
C1175  C     0.83434   0.10694   0.97755   0.00000  Uiso   1.00
C1176  C     0.81589   0.11225   0.52438   0.00000  Uiso   1.00
N1177  N     0.71426   0.16668   0.75001   0.00000  Uiso   1.00
N1178  N     0.95241   0.16666   0.74999   0.00000  Uiso   1.00
O1179  O     0.79512   0.22775   0.75000   0.00000  Uiso   1.00
O1180  O     0.87154   0.10558   0.74999   0.00000  Uiso   1.00
O1181  O     0.87157   0.22774   0.75000   0.00000  Uiso   1.00
O1182  O     0.79510   0.10559   0.75000   0.00000  Uiso   1.00
O1183  O     0.77328   0.16667   0.81612   0.00000  Uiso   1.00
O1184  O     0.89339   0.16666   0.68387   0.00000  Uiso   1.00
O1185  O     0.84972   0.16666   0.81612   0.00000  Uiso   1.00
O1186  O     0.81695   0.16667   0.68388   0.00000  Uiso   1.00
Zn1187 Zn    0.78229   0.16667   0.75000   0.00000  Uiso   1.00
Zn1188 Zn    0.88438   0.16666   0.75000   0.00000  Uiso   1.00
O1189  O     0.69675   0.07398   0.52515   0.00000  Uiso   1.00
C1190  C     0.70271   0.03062   0.52438   0.00000  Uiso   1.00
H1191  H     0.71278   0.01844   0.98875   0.00000  Uiso   1.00
H1192  H     0.66910   0.01540   0.54185   0.00000  Uiso   1.00
H1193  H     0.72872   0.02178   0.54303   0.00000  Uiso   1.00
O1194  O     0.94271   0.06122   0.98674   0.00000  Uiso   1.00
C1195  C     0.92412   0.02111   0.99969   0.00000  Uiso   1.00
H1196  H     0.90824   0.02023   0.53699   0.00000  Uiso   1.00
H1197  H     0.95281   0.33211   0.99143   0.00000  Uiso   1.00
H1198  H     0.89818   0.01026   0.98074   0.00000  Uiso   1.00
O1199  O     0.79393   0.16572   0.60755   0.00000  Uiso   1.00
H1200  H     0.78048   0.17151   0.58174   0.00000  Uiso   1.00
O1201  O     0.86516   0.15713   0.89685   0.00000  Uiso   1.00
H1202  H     0.87544   0.16313   0.92497   0.00000  Uiso   1.00
O1203  O     0.95550   0.17140   0.60751   0.00000  Uiso   1.00
H1204  H     0.94603   0.19901   0.62144   0.00000  Uiso   1.00
O1205  O     0.73751   0.09541   0.84913   0.00000  Uiso   1.00
H1206  H     0.71731   0.07045   0.85920   0.00000  Uiso   1.00
O1207  O     0.68316   0.09750   0.94273   0.00000  Uiso   1.00
C1208  C     0.99523   0.12507   0.91822   0.00000  Uiso   1.00
H1209  H     0.98607   0.10856   0.88905   0.00000  Uiso   1.00
H1210  H     0.68309   0.15383   0.90641   0.00000  Uiso   1.00
H1211  H     0.96251   0.13665   0.94020   0.00000  Uiso   1.00
O1212  O     0.97713   0.13539   0.52237   0.00000  Uiso   1.00
C1213  C     0.99240   0.17672   0.50986   0.00000  Uiso   1.00
H1214  H     0.67008   0.19404   0.53753   0.00000  Uiso   1.00
H1215  H     0.96580   0.19420   0.99830   0.00000  Uiso   1.00
H1216  H     0.69075   0.17570   0.98132   0.00000  Uiso   1.00
O1217  O     0.74796   0.09361   0.58668   0.00000  Uiso   1.00
H1218  H     0.77316   0.08751   0.60139   0.00000  Uiso   1.00
O1219  O     0.89080   0.07147   0.91908   0.00000  Uiso   1.00
H1220  H     0.92237   0.06015   0.91383   0.00000  Uiso   1.00
O1221  O     0.89677   0.29468   0.78934   0.00000  Uiso   1.00
C1222  C     0.94123   0.29357   0.75802   0.00000  Uiso   1.00
H1223  H     0.96823   0.29321   0.77747   0.00000  Uiso   1.00
H1224  H     0.94488   0.26484   0.73669   0.00000  Uiso   1.00
H1225  H     0.94951   0.32062   0.73493   0.00000  Uiso   1.00
O1226  O     0.76652   0.03808   0.71587   0.00000  Uiso   1.00
C1227  C     0.72386   0.03891   0.75007   0.00000  Uiso   1.00
H1228  H     0.69462   0.03498   0.73355   0.00000  Uiso   1.00
H1229  H     0.71943   0.01414   0.77595   0.00000  Uiso   1.00
H1230  H     0.71979   0.06944   0.76809   0.00000  Uiso   1.00
O1231  O     0.87664   0.04511   0.80875   0.00000  Uiso   1.00
C1232  C     0.92489   0.05450   0.79395   0.00000  Uiso   1.00
H1233  H     0.93192   0.08528   0.80862   0.00000  Uiso   1.00
H1234  H     0.93804   0.05672   0.75633   0.00000  Uiso   1.00
H1235  H     0.94472   0.03152   0.80747   0.00000  Uiso   1.00
O1236  O     0.78831   0.28835   0.69381   0.00000  Uiso   1.00
C1237  C     0.73983   0.28032   0.70927   0.00000  Uiso   1.00
H1238  H     0.72696   0.27940   0.74697   0.00000  Uiso   1.00
H1239  H     0.73163   0.24931   0.69588   0.00000  Uiso   1.00
H1240  H     0.72065   0.30335   0.69505   0.00000  Uiso   1.00
O1241  O     0.96610   0.12087   0.68666   0.00000  Uiso   1.00
H1242  H     0.99098   0.11890   0.65810   0.00000  Uiso   1.00
O1243  O     0.70162   0.21621   0.80986   0.00000  Uiso   1.00
H1244  H     0.68123   0.24032   0.81895   0.00000  Uiso   1.00
O1245  O     0.72990   0.11839   0.68947   0.00000  Uiso   1.00
H1246  H     0.71320   0.09412   0.67974   0.00000  Uiso   1.00
O1247  O     0.93562   0.20935   0.81553   0.00000  Uiso   1.00
H1248  H     0.94711   0.21168   0.84341   0.00000  Uiso   1.00
C1249  C     0.16794   0.58000   0.74862   0.00000  Uiso   1.00
C1250  C     0.16528   0.42003   0.75190   0.00000  Uiso   1.00
C1251  C     0.10097   0.43511   0.54144   0.00000  Uiso   1.00
C1252  C     0.21165   0.42284   0.96207   0.00000  Uiso   1.00
C1253  C     0.07337   0.42654   0.51006   0.00000  Uiso   1.00
C1254  C     0.23963   0.42143   0.99309   0.00000  Uiso   1.00
C1255  C     0.19928   0.64733   0.76952   0.00000  Uiso   1.00
C1256  C     0.13309   0.35262   0.73286   0.00000  Uiso   1.00
C1257  C     0.19363   0.35664   0.77547   0.00000  Uiso   1.00
C1258  C     0.13911   0.64351   0.72636   0.00000  Uiso   1.00
C1259  C     0.16272   0.37573   0.75463   0.00000  Uiso   1.00
C1260  C     0.17025   0.62436   0.74681   0.00000  Uiso   1.00
C1261  C     0.31651   0.47684   0.71834   0.00000  Uiso   1.00
C1262  C     0.01707   0.52395   0.78092   0.00000  Uiso   1.00
C1263  C     0.03156   0.47612   0.71908   0.00000  Uiso   1.00
C1264  C     0.30148   0.52244   0.78216   0.00000  Uiso   1.00
C1265  C     0.13965   0.49302   0.83564   0.00000  Uiso   1.00
C1266  C     0.19393   0.50026   0.66240   0.00000  Uiso   1.00
C1267  C     0.12790   0.46884   0.87705   0.00000  Uiso   1.00
C1268  C     0.20601   0.49240   0.61318   0.00000  Uiso   1.00
C1269  C     0.06468   0.43538   0.93050   0.00000  Uiso   1.00
C1270  C     0.26473   0.46808   0.54804   0.00000  Uiso   1.00
C1271  C     0.08832   0.44282   0.88504   0.00000  Uiso   1.00
C1272  C     0.25316   0.48884   0.58991   0.00000  Uiso   1.00
C1273  C     0.15630   0.46851   0.90731   0.00000  Uiso   1.00
C1274  C     0.17069   0.48250   0.59056   0.00000  Uiso   1.00
C1275  C     0.13924   0.44730   0.94867   0.00000  Uiso   1.00
C1276  C     0.18184   0.45814   0.54993   0.00000  Uiso   1.00
C1277  C     0.09129   0.43647   0.96349   0.00000  Uiso   1.00
C1278  C     0.22925   0.44835   0.53112   0.00000  Uiso   1.00
C1279  C     0.16767   0.44027   0.97755   0.00000  Uiso   1.00
C1280  C     0.14922   0.44559   0.52438   0.00000  Uiso   1.00
N1281  N     0.04759   0.50001   0.75001   0.00000  Uiso   1.00
N1282  N     0.28574   0.49999   0.74999   0.00000  Uiso   1.00
O1283  O     0.12846   0.56108   0.75000   0.00000  Uiso   1.00
O1284  O     0.20488   0.43892   0.74999   0.00000  Uiso   1.00
O1285  O     0.20490   0.56107   0.75000   0.00000  Uiso   1.00
O1286  O     0.12843   0.43893   0.75000   0.00000  Uiso   1.00
O1287  O     0.10661   0.50001   0.81612   0.00000  Uiso   1.00
O1288  O     0.22672   0.49999   0.68387   0.00000  Uiso   1.00
O1289  O     0.18305   0.50000   0.81612   0.00000  Uiso   1.00
O1290  O     0.15028   0.50000   0.68388   0.00000  Uiso   1.00
Zn1291 Zn    0.11562   0.50001   0.75000   0.00000  Uiso   1.00
Zn1292 Zn    0.21771   0.49999   0.75000   0.00000  Uiso   1.00
O1293  O     0.03009   0.40731   0.52515   0.00000  Uiso   1.00
C1294  C     0.03604   0.36395   0.52438   0.00000  Uiso   1.00
H1295  H     0.04612   0.35177   0.98875   0.00000  Uiso   1.00
H1296  H     0.00244   0.34874   0.54185   0.00000  Uiso   1.00
H1297  H     0.06206   0.35511   0.54303   0.00000  Uiso   1.00
O1298  O     0.27604   0.39455   0.98674   0.00000  Uiso   1.00
C1299  C     0.25745   0.35445   0.99969   0.00000  Uiso   1.00
H1300  H     0.24158   0.35357   0.53699   0.00000  Uiso   1.00
H1301  H     0.28615   0.66544   0.99143   0.00000  Uiso   1.00
H1302  H     0.23152   0.34359   0.98074   0.00000  Uiso   1.00
O1303  O     0.12726   0.49906   0.60755   0.00000  Uiso   1.00
H1304  H     0.11381   0.50484   0.58174   0.00000  Uiso   1.00
O1305  O     0.19850   0.49046   0.89685   0.00000  Uiso   1.00
H1306  H     0.20878   0.49646   0.92497   0.00000  Uiso   1.00
O1307  O     0.28884   0.50474   0.60751   0.00000  Uiso   1.00
H1308  H     0.27936   0.53234   0.62144   0.00000  Uiso   1.00
O1309  O     0.07084   0.42874   0.84913   0.00000  Uiso   1.00
H1310  H     0.05064   0.40378   0.85920   0.00000  Uiso   1.00
O1311  O     0.01649   0.43083   0.94273   0.00000  Uiso   1.00
C1312  C     0.32856   0.45841   0.91822   0.00000  Uiso   1.00
H1313  H     0.31940   0.44189   0.88905   0.00000  Uiso   1.00
H1314  H     0.01642   0.48717   0.90641   0.00000  Uiso   1.00
H1315  H     0.29585   0.46999   0.94020   0.00000  Uiso   1.00
O1316  O     0.31046   0.46872   0.52237   0.00000  Uiso   1.00
C1317  C     0.32574   0.51006   0.50986   0.00000  Uiso   1.00
H1318  H     0.00342   0.52738   0.53753   0.00000  Uiso   1.00
H1319  H     0.29913   0.52753   0.99830   0.00000  Uiso   1.00
H1320  H     0.02408   0.50903   0.98132   0.00000  Uiso   1.00
O1321  O     0.08129   0.42694   0.58668   0.00000  Uiso   1.00
H1322  H     0.10649   0.42084   0.60139   0.00000  Uiso   1.00
O1323  O     0.22414   0.40480   0.91908   0.00000  Uiso   1.00
H1324  H     0.25570   0.39348   0.91383   0.00000  Uiso   1.00
O1325  O     0.23010   0.62802   0.78934   0.00000  Uiso   1.00
C1326  C     0.27457   0.62690   0.75802   0.00000  Uiso   1.00
H1327  H     0.30157   0.62654   0.77747   0.00000  Uiso   1.00
H1328  H     0.27821   0.59818   0.73669   0.00000  Uiso   1.00
H1329  H     0.28284   0.65395   0.73493   0.00000  Uiso   1.00
O1330  O     0.09986   0.37141   0.71587   0.00000  Uiso   1.00
C1331  C     0.05720   0.37224   0.75007   0.00000  Uiso   1.00
H1332  H     0.02795   0.36831   0.73355   0.00000  Uiso   1.00
H1333  H     0.05277   0.34747   0.77595   0.00000  Uiso   1.00
H1334  H     0.05313   0.40277   0.76809   0.00000  Uiso   1.00
O1335  O     0.20997   0.37844   0.80875   0.00000  Uiso   1.00
C1336  C     0.25823   0.38784   0.79395   0.00000  Uiso   1.00
H1337  H     0.26526   0.41862   0.80862   0.00000  Uiso   1.00
H1338  H     0.27137   0.39005   0.75633   0.00000  Uiso   1.00
H1339  H     0.27805   0.36485   0.80747   0.00000  Uiso   1.00
O1340  O     0.12164   0.62168   0.69381   0.00000  Uiso   1.00
C1341  C     0.07317   0.61365   0.70927   0.00000  Uiso   1.00
H1342  H     0.06030   0.61273   0.74697   0.00000  Uiso   1.00
H1343  H     0.06496   0.58264   0.69588   0.00000  Uiso   1.00
H1344  H     0.05398   0.63668   0.69505   0.00000  Uiso   1.00
O1345  O     0.29943   0.45421   0.68666   0.00000  Uiso   1.00
H1346  H     0.32432   0.45223   0.65810   0.00000  Uiso   1.00
O1347  O     0.03495   0.54955   0.80986   0.00000  Uiso   1.00
H1348  H     0.01456   0.57365   0.81895   0.00000  Uiso   1.00
O1349  O     0.06323   0.45172   0.68947   0.00000  Uiso   1.00
H1350  H     0.04653   0.42745   0.67974   0.00000  Uiso   1.00
O1351  O     0.26896   0.54268   0.81553   0.00000  Uiso   1.00
H1352  H     0.28045   0.54501   0.84341   0.00000  Uiso   1.00
C1353  C     0.50128   0.58000   0.74862   0.00000  Uiso   1.00
C1354  C     0.49861   0.42003   0.75190   0.00000  Uiso   1.00
C1355  C     0.43430   0.43511   0.54144   0.00000  Uiso   1.00
C1356  C     0.54498   0.42284   0.96207   0.00000  Uiso   1.00
C1357  C     0.40670   0.42654   0.51006   0.00000  Uiso   1.00
C1358  C     0.57296   0.42143   0.99309   0.00000  Uiso   1.00
C1359  C     0.53262   0.64733   0.76952   0.00000  Uiso   1.00
C1360  C     0.46642   0.35262   0.73286   0.00000  Uiso   1.00
C1361  C     0.52696   0.35664   0.77547   0.00000  Uiso   1.00
C1362  C     0.47244   0.64351   0.72636   0.00000  Uiso   1.00
C1363  C     0.49606   0.37573   0.75463   0.00000  Uiso   1.00
C1364  C     0.50358   0.62436   0.74681   0.00000  Uiso   1.00
C1365  C     0.64984   0.47684   0.71834   0.00000  Uiso   1.00
C1366  C     0.35041   0.52395   0.78092   0.00000  Uiso   1.00
C1367  C     0.36489   0.47612   0.71908   0.00000  Uiso   1.00
C1368  C     0.63482   0.52244   0.78216   0.00000  Uiso   1.00
C1369  C     0.47298   0.49302   0.83564   0.00000  Uiso   1.00
C1370  C     0.52727   0.50026   0.66240   0.00000  Uiso   1.00
C1371  C     0.46123   0.46884   0.87705   0.00000  Uiso   1.00
C1372  C     0.53934   0.49240   0.61318   0.00000  Uiso   1.00
C1373  C     0.39801   0.43538   0.93050   0.00000  Uiso   1.00
C1374  C     0.59807   0.46808   0.54804   0.00000  Uiso   1.00
C1375  C     0.42166   0.44282   0.88504   0.00000  Uiso   1.00
C1376  C     0.58649   0.48884   0.58991   0.00000  Uiso   1.00
C1377  C     0.48964   0.46851   0.90731   0.00000  Uiso   1.00
C1378  C     0.50403   0.48250   0.59056   0.00000  Uiso   1.00
C1379  C     0.47257   0.44730   0.94867   0.00000  Uiso   1.00
C1380  C     0.51517   0.45814   0.54993   0.00000  Uiso   1.00
C1381  C     0.42462   0.43647   0.96349   0.00000  Uiso   1.00
C1382  C     0.56259   0.44835   0.53112   0.00000  Uiso   1.00
C1383  C     0.50100   0.44027   0.97755   0.00000  Uiso   1.00
C1384  C     0.48255   0.44559   0.52438   0.00000  Uiso   1.00
N1385  N     0.38093   0.50001   0.75001   0.00000  Uiso   1.00
N1386  N     0.61907   0.49999   0.74999   0.00000  Uiso   1.00
O1387  O     0.46179   0.56108   0.75000   0.00000  Uiso   1.00
O1388  O     0.53821   0.43892   0.74999   0.00000  Uiso   1.00
O1389  O     0.53823   0.56107   0.75000   0.00000  Uiso   1.00
O1390  O     0.46177   0.43893   0.75000   0.00000  Uiso   1.00
O1391  O     0.43994   0.50001   0.81612   0.00000  Uiso   1.00
O1392  O     0.56006   0.49999   0.68387   0.00000  Uiso   1.00
O1393  O     0.51639   0.50000   0.81612   0.00000  Uiso   1.00
O1394  O     0.48361   0.50000   0.68388   0.00000  Uiso   1.00
Zn1395 Zn    0.44896   0.50001   0.75000   0.00000  Uiso   1.00
Zn1396 Zn    0.55104   0.49999   0.75000   0.00000  Uiso   1.00
O1397  O     0.36342   0.40731   0.52515   0.00000  Uiso   1.00
C1398  C     0.36938   0.36395   0.52438   0.00000  Uiso   1.00
H1399  H     0.37945   0.35177   0.98875   0.00000  Uiso   1.00
H1400  H     0.33577   0.34874   0.54185   0.00000  Uiso   1.00
H1401  H     0.39539   0.35511   0.54303   0.00000  Uiso   1.00
O1402  O     0.60938   0.39455   0.98674   0.00000  Uiso   1.00
C1403  C     0.59079   0.35445   0.99969   0.00000  Uiso   1.00
H1404  H     0.57491   0.35357   0.53699   0.00000  Uiso   1.00
H1405  H     0.61948   0.66544   0.99143   0.00000  Uiso   1.00
H1406  H     0.56485   0.34359   0.98074   0.00000  Uiso   1.00
O1407  O     0.46060   0.49906   0.60755   0.00000  Uiso   1.00
H1408  H     0.44715   0.50484   0.58174   0.00000  Uiso   1.00
O1409  O     0.53183   0.49046   0.89685   0.00000  Uiso   1.00
H1410  H     0.54211   0.49646   0.92497   0.00000  Uiso   1.00
O1411  O     0.62217   0.50474   0.60751   0.00000  Uiso   1.00
H1412  H     0.61270   0.53234   0.62144   0.00000  Uiso   1.00
O1413  O     0.40418   0.42874   0.84913   0.00000  Uiso   1.00
H1414  H     0.38398   0.40378   0.85920   0.00000  Uiso   1.00
O1415  O     0.34982   0.43083   0.94273   0.00000  Uiso   1.00
C1416  C     0.66190   0.45841   0.91822   0.00000  Uiso   1.00
H1417  H     0.65273   0.44189   0.88905   0.00000  Uiso   1.00
H1418  H     0.34975   0.48717   0.90641   0.00000  Uiso   1.00
H1419  H     0.62918   0.46999   0.94020   0.00000  Uiso   1.00
O1420  O     0.64379   0.46872   0.52237   0.00000  Uiso   1.00
C1421  C     0.65907   0.51006   0.50986   0.00000  Uiso   1.00
H1422  H     0.33675   0.52738   0.53753   0.00000  Uiso   1.00
H1423  H     0.63246   0.52753   0.99830   0.00000  Uiso   1.00
H1424  H     0.35741   0.50903   0.98132   0.00000  Uiso   1.00
O1425  O     0.41463   0.42694   0.58668   0.00000  Uiso   1.00
H1426  H     0.43983   0.42084   0.60139   0.00000  Uiso   1.00
O1427  O     0.55747   0.40480   0.91908   0.00000  Uiso   1.00
H1428  H     0.58904   0.39348   0.91383   0.00000  Uiso   1.00
O1429  O     0.56343   0.62802   0.78934   0.00000  Uiso   1.00
C1430  C     0.60790   0.62690   0.75802   0.00000  Uiso   1.00
H1431  H     0.63490   0.62654   0.77747   0.00000  Uiso   1.00
H1432  H     0.61155   0.59818   0.73669   0.00000  Uiso   1.00
H1433  H     0.61617   0.65395   0.73493   0.00000  Uiso   1.00
O1434  O     0.43319   0.37141   0.71587   0.00000  Uiso   1.00
C1435  C     0.39053   0.37224   0.75007   0.00000  Uiso   1.00
H1436  H     0.36128   0.36831   0.73355   0.00000  Uiso   1.00
H1437  H     0.38610   0.34747   0.77595   0.00000  Uiso   1.00
H1438  H     0.38646   0.40277   0.76809   0.00000  Uiso   1.00
O1439  O     0.54331   0.37844   0.80875   0.00000  Uiso   1.00
C1440  C     0.59156   0.38784   0.79395   0.00000  Uiso   1.00
H1441  H     0.59859   0.41862   0.80862   0.00000  Uiso   1.00
H1442  H     0.60471   0.39005   0.75633   0.00000  Uiso   1.00
H1443  H     0.61139   0.36485   0.80747   0.00000  Uiso   1.00
O1444  O     0.45498   0.62168   0.69381   0.00000  Uiso   1.00
C1445  C     0.40650   0.61365   0.70927   0.00000  Uiso   1.00
H1446  H     0.39363   0.61273   0.74697   0.00000  Uiso   1.00
H1447  H     0.39830   0.58264   0.69588   0.00000  Uiso   1.00
H1448  H     0.38732   0.63668   0.69505   0.00000  Uiso   1.00
O1449  O     0.63277   0.45421   0.68666   0.00000  Uiso   1.00
H1450  H     0.65765   0.45223   0.65810   0.00000  Uiso   1.00
O1451  O     0.36828   0.54955   0.80986   0.00000  Uiso   1.00
H1452  H     0.34790   0.57365   0.81895   0.00000  Uiso   1.00
O1453  O     0.39657   0.45172   0.68947   0.00000  Uiso   1.00
H1454  H     0.37987   0.42745   0.67974   0.00000  Uiso   1.00
O1455  O     0.60229   0.54268   0.81553   0.00000  Uiso   1.00
H1456  H     0.61378   0.54501   0.84341   0.00000  Uiso   1.00
C1457  C     0.83461   0.58000   0.74862   0.00000  Uiso   1.00
C1458  C     0.83194   0.42003   0.75190   0.00000  Uiso   1.00
C1459  C     0.76763   0.43511   0.54144   0.00000  Uiso   1.00
C1460  C     0.87832   0.42284   0.96207   0.00000  Uiso   1.00
C1461  C     0.74003   0.42654   0.51006   0.00000  Uiso   1.00
C1462  C     0.90630   0.42143   0.99309   0.00000  Uiso   1.00
C1463  C     0.86595   0.64733   0.76952   0.00000  Uiso   1.00
C1464  C     0.79975   0.35262   0.73286   0.00000  Uiso   1.00
C1465  C     0.86030   0.35664   0.77547   0.00000  Uiso   1.00
C1466  C     0.80578   0.64351   0.72636   0.00000  Uiso   1.00
C1467  C     0.82939   0.37573   0.75463   0.00000  Uiso   1.00
C1468  C     0.83691   0.62436   0.74681   0.00000  Uiso   1.00
C1469  C     0.98318   0.47684   0.71834   0.00000  Uiso   1.00
C1470  C     0.68374   0.52395   0.78092   0.00000  Uiso   1.00
C1471  C     0.69822   0.47612   0.71908   0.00000  Uiso   1.00
C1472  C     0.96815   0.52244   0.78216   0.00000  Uiso   1.00
C1473  C     0.80631   0.49302   0.83564   0.00000  Uiso   1.00
C1474  C     0.86060   0.50026   0.66240   0.00000  Uiso   1.00
C1475  C     0.79457   0.46884   0.87705   0.00000  Uiso   1.00
C1476  C     0.87268   0.49240   0.61318   0.00000  Uiso   1.00
C1477  C     0.73135   0.43538   0.93050   0.00000  Uiso   1.00
C1478  C     0.93140   0.46808   0.54804   0.00000  Uiso   1.00
C1479  C     0.75499   0.44282   0.88504   0.00000  Uiso   1.00
C1480  C     0.91982   0.48884   0.58991   0.00000  Uiso   1.00
C1481  C     0.82297   0.46851   0.90731   0.00000  Uiso   1.00
C1482  C     0.83736   0.48250   0.59056   0.00000  Uiso   1.00
C1483  C     0.80590   0.44730   0.94867   0.00000  Uiso   1.00
C1484  C     0.84850   0.45814   0.54993   0.00000  Uiso   1.00
C1485  C     0.75795   0.43647   0.96349   0.00000  Uiso   1.00
C1486  C     0.89592   0.44835   0.53112   0.00000  Uiso   1.00
C1487  C     0.83434   0.44027   0.97755   0.00000  Uiso   1.00
C1488  C     0.81589   0.44559   0.52438   0.00000  Uiso   1.00
N1489  N     0.71426   0.50001   0.75001   0.00000  Uiso   1.00
N1490  N     0.95241   0.49999   0.74999   0.00000  Uiso   1.00
O1491  O     0.79512   0.56108   0.75000   0.00000  Uiso   1.00
O1492  O     0.87154   0.43892   0.74999   0.00000  Uiso   1.00
O1493  O     0.87157   0.56107   0.75000   0.00000  Uiso   1.00
O1494  O     0.79510   0.43893   0.75000   0.00000  Uiso   1.00
O1495  O     0.77328   0.50001   0.81612   0.00000  Uiso   1.00
O1496  O     0.89339   0.49999   0.68387   0.00000  Uiso   1.00
O1497  O     0.84972   0.50000   0.81612   0.00000  Uiso   1.00
O1498  O     0.81695   0.50000   0.68388   0.00000  Uiso   1.00
Zn1499 Zn    0.78229   0.50001   0.75000   0.00000  Uiso   1.00
Zn1500 Zn    0.88438   0.49999   0.75000   0.00000  Uiso   1.00
O1501  O     0.69675   0.40731   0.52515   0.00000  Uiso   1.00
C1502  C     0.70271   0.36395   0.52438   0.00000  Uiso   1.00
H1503  H     0.71278   0.35177   0.98875   0.00000  Uiso   1.00
H1504  H     0.66910   0.34874   0.54185   0.00000  Uiso   1.00
H1505  H     0.72872   0.35511   0.54303   0.00000  Uiso   1.00
O1506  O     0.94271   0.39455   0.98674   0.00000  Uiso   1.00
C1507  C     0.92412   0.35445   0.99969   0.00000  Uiso   1.00
H1508  H     0.90824   0.35357   0.53699   0.00000  Uiso   1.00
H1509  H     0.95281   0.66544   0.99143   0.00000  Uiso   1.00
H1510  H     0.89818   0.34359   0.98074   0.00000  Uiso   1.00
O1511  O     0.79393   0.49906   0.60755   0.00000  Uiso   1.00
H1512  H     0.78048   0.50484   0.58174   0.00000  Uiso   1.00
O1513  O     0.86516   0.49046   0.89685   0.00000  Uiso   1.00
H1514  H     0.87544   0.49646   0.92497   0.00000  Uiso   1.00
O1515  O     0.95550   0.50474   0.60751   0.00000  Uiso   1.00
H1516  H     0.94603   0.53234   0.62144   0.00000  Uiso   1.00
O1517  O     0.73751   0.42874   0.84913   0.00000  Uiso   1.00
H1518  H     0.71731   0.40378   0.85920   0.00000  Uiso   1.00
O1519  O     0.68316   0.43083   0.94273   0.00000  Uiso   1.00
C1520  C     0.99523   0.45841   0.91822   0.00000  Uiso   1.00
H1521  H     0.98607   0.44189   0.88905   0.00000  Uiso   1.00
H1522  H     0.68309   0.48717   0.90641   0.00000  Uiso   1.00
H1523  H     0.96251   0.46999   0.94020   0.00000  Uiso   1.00
O1524  O     0.97713   0.46872   0.52237   0.00000  Uiso   1.00
C1525  C     0.99240   0.51006   0.50986   0.00000  Uiso   1.00
H1526  H     0.67008   0.52738   0.53753   0.00000  Uiso   1.00
H1527  H     0.96580   0.52753   0.99830   0.00000  Uiso   1.00
H1528  H     0.69075   0.50903   0.98132   0.00000  Uiso   1.00
O1529  O     0.74796   0.42694   0.58668   0.00000  Uiso   1.00
H1530  H     0.77316   0.42084   0.60139   0.00000  Uiso   1.00
O1531  O     0.89080   0.40480   0.91908   0.00000  Uiso   1.00
H1532  H     0.92237   0.39348   0.91383   0.00000  Uiso   1.00
O1533  O     0.89677   0.62802   0.78934   0.00000  Uiso   1.00
C1534  C     0.94123   0.62690   0.75802   0.00000  Uiso   1.00
H1535  H     0.96823   0.62654   0.77747   0.00000  Uiso   1.00
H1536  H     0.94488   0.59818   0.73669   0.00000  Uiso   1.00
H1537  H     0.94951   0.65395   0.73493   0.00000  Uiso   1.00
O1538  O     0.76652   0.37141   0.71587   0.00000  Uiso   1.00
C1539  C     0.72386   0.37224   0.75007   0.00000  Uiso   1.00
H1540  H     0.69462   0.36831   0.73355   0.00000  Uiso   1.00
H1541  H     0.71943   0.34747   0.77595   0.00000  Uiso   1.00
H1542  H     0.71979   0.40277   0.76809   0.00000  Uiso   1.00
O1543  O     0.87664   0.37844   0.80875   0.00000  Uiso   1.00
C1544  C     0.92489   0.38784   0.79395   0.00000  Uiso   1.00
H1545  H     0.93192   0.41862   0.80862   0.00000  Uiso   1.00
H1546  H     0.93804   0.39005   0.75633   0.00000  Uiso   1.00
H1547  H     0.94472   0.36485   0.80747   0.00000  Uiso   1.00
O1548  O     0.78831   0.62168   0.69381   0.00000  Uiso   1.00
C1549  C     0.73983   0.61365   0.70927   0.00000  Uiso   1.00
H1550  H     0.72696   0.61273   0.74697   0.00000  Uiso   1.00
H1551  H     0.73163   0.58264   0.69588   0.00000  Uiso   1.00
H1552  H     0.72065   0.63668   0.69505   0.00000  Uiso   1.00
O1553  O     0.96610   0.45421   0.68666   0.00000  Uiso   1.00
H1554  H     0.99098   0.45223   0.65810   0.00000  Uiso   1.00
O1555  O     0.70162   0.54955   0.80986   0.00000  Uiso   1.00
H1556  H     0.68123   0.57365   0.81895   0.00000  Uiso   1.00
O1557  O     0.72990   0.45172   0.68947   0.00000  Uiso   1.00
H1558  H     0.71320   0.42745   0.67974   0.00000  Uiso   1.00
O1559  O     0.93562   0.54268   0.81553   0.00000  Uiso   1.00
H1560  H     0.94711   0.54501   0.84341   0.00000  Uiso   1.00
C1561  C     0.16794   0.91333   0.74862   0.00000  Uiso   1.00
C1562  C     0.16528   0.75337   0.75190   0.00000  Uiso   1.00
C1563  C     0.10097   0.76845   0.54144   0.00000  Uiso   1.00
C1564  C     0.21165   0.75617   0.96207   0.00000  Uiso   1.00
C1565  C     0.07337   0.75987   0.51006   0.00000  Uiso   1.00
C1566  C     0.23963   0.75476   0.99309   0.00000  Uiso   1.00
C1567  C     0.19928   0.98067   0.76952   0.00000  Uiso   1.00
C1568  C     0.13309   0.68595   0.73286   0.00000  Uiso   1.00
C1569  C     0.19363   0.68998   0.77547   0.00000  Uiso   1.00
C1570  C     0.13911   0.97684   0.72636   0.00000  Uiso   1.00
C1571  C     0.16272   0.70906   0.75463   0.00000  Uiso   1.00
C1572  C     0.17025   0.95769   0.74681   0.00000  Uiso   1.00
C1573  C     0.31651   0.81017   0.71834   0.00000  Uiso   1.00
C1574  C     0.01707   0.85728   0.78092   0.00000  Uiso   1.00
C1575  C     0.03156   0.80946   0.71908   0.00000  Uiso   1.00
C1576  C     0.30148   0.85578   0.78216   0.00000  Uiso   1.00
C1577  C     0.13965   0.82635   0.83564   0.00000  Uiso   1.00
C1578  C     0.19393   0.83359   0.66240   0.00000  Uiso   1.00
C1579  C     0.12790   0.80217   0.87705   0.00000  Uiso   1.00
C1580  C     0.20601   0.82573   0.61318   0.00000  Uiso   1.00
C1581  C     0.06468   0.76872   0.93050   0.00000  Uiso   1.00
C1582  C     0.26473   0.80141   0.54804   0.00000  Uiso   1.00
C1583  C     0.08832   0.77615   0.88504   0.00000  Uiso   1.00
C1584  C     0.25316   0.82218   0.58991   0.00000  Uiso   1.00
C1585  C     0.15630   0.80184   0.90731   0.00000  Uiso   1.00
C1586  C     0.17069   0.81583   0.59056   0.00000  Uiso   1.00
C1587  C     0.13924   0.78064   0.94867   0.00000  Uiso   1.00
C1588  C     0.18184   0.79147   0.54993   0.00000  Uiso   1.00
C1589  C     0.09129   0.76981   0.96349   0.00000  Uiso   1.00
C1590  C     0.22925   0.78168   0.53112   0.00000  Uiso   1.00
C1591  C     0.16767   0.77360   0.97755   0.00000  Uiso   1.00
C1592  C     0.14922   0.77892   0.52438   0.00000  Uiso   1.00
N1593  N     0.04759   0.83334   0.75001   0.00000  Uiso   1.00
N1594  N     0.28574   0.83332   0.74999   0.00000  Uiso   1.00
O1595  O     0.12846   0.89442   0.75000   0.00000  Uiso   1.00
O1596  O     0.20488   0.77225   0.74999   0.00000  Uiso   1.00
O1597  O     0.20490   0.89441   0.75000   0.00000  Uiso   1.00
O1598  O     0.12843   0.77226   0.75000   0.00000  Uiso   1.00
O1599  O     0.10661   0.83334   0.81612   0.00000  Uiso   1.00
O1600  O     0.22672   0.83333   0.68387   0.00000  Uiso   1.00
O1601  O     0.18305   0.83333   0.81612   0.00000  Uiso   1.00
O1602  O     0.15028   0.83334   0.68388   0.00000  Uiso   1.00
Zn1603 Zn    0.11562   0.83334   0.75000   0.00000  Uiso   1.00
Zn1604 Zn    0.21771   0.83333   0.75000   0.00000  Uiso   1.00
O1605  O     0.03009   0.74065   0.52515   0.00000  Uiso   1.00
C1606  C     0.03604   0.69729   0.52438   0.00000  Uiso   1.00
H1607  H     0.04612   0.68511   0.98875   0.00000  Uiso   1.00
H1608  H     0.00244   0.68207   0.54185   0.00000  Uiso   1.00
H1609  H     0.06206   0.68844   0.54303   0.00000  Uiso   1.00
O1610  O     0.27604   0.72789   0.98674   0.00000  Uiso   1.00
C1611  C     0.25745   0.68778   0.99969   0.00000  Uiso   1.00
H1612  H     0.24158   0.68690   0.53699   0.00000  Uiso   1.00
H1613  H     0.28615   0.99877   0.99143   0.00000  Uiso   1.00
H1614  H     0.23152   0.67693   0.98074   0.00000  Uiso   1.00
O1615  O     0.12726   0.83239   0.60755   0.00000  Uiso   1.00
H1616  H     0.11381   0.83817   0.58174   0.00000  Uiso   1.00
O1617  O     0.19850   0.82379   0.89685   0.00000  Uiso   1.00
H1618  H     0.20878   0.82980   0.92497   0.00000  Uiso   1.00
O1619  O     0.28884   0.83807   0.60751   0.00000  Uiso   1.00
H1620  H     0.27936   0.86568   0.62144   0.00000  Uiso   1.00
O1621  O     0.07084   0.76208   0.84913   0.00000  Uiso   1.00
H1622  H     0.05064   0.73711   0.85920   0.00000  Uiso   1.00
O1623  O     0.01649   0.76416   0.94273   0.00000  Uiso   1.00
C1624  C     0.32856   0.79174   0.91822   0.00000  Uiso   1.00
H1625  H     0.31940   0.77523   0.88905   0.00000  Uiso   1.00
H1626  H     0.01642   0.82050   0.90641   0.00000  Uiso   1.00
H1627  H     0.29585   0.80332   0.94020   0.00000  Uiso   1.00
O1628  O     0.31046   0.80206   0.52237   0.00000  Uiso   1.00
C1629  C     0.32574   0.84339   0.50986   0.00000  Uiso   1.00
H1630  H     0.00342   0.86071   0.53753   0.00000  Uiso   1.00
H1631  H     0.29913   0.86087   0.99830   0.00000  Uiso   1.00
H1632  H     0.02408   0.84237   0.98132   0.00000  Uiso   1.00
O1633  O     0.08129   0.76028   0.58668   0.00000  Uiso   1.00
H1634  H     0.10649   0.75418   0.60139   0.00000  Uiso   1.00
O1635  O     0.22414   0.73813   0.91908   0.00000  Uiso   1.00
H1636  H     0.25570   0.72681   0.91383   0.00000  Uiso   1.00
O1637  O     0.23010   0.96135   0.78934   0.00000  Uiso   1.00
C1638  C     0.27457   0.96024   0.75802   0.00000  Uiso   1.00
H1639  H     0.30157   0.95988   0.77747   0.00000  Uiso   1.00
H1640  H     0.27821   0.93151   0.73669   0.00000  Uiso   1.00
H1641  H     0.28284   0.98728   0.73493   0.00000  Uiso   1.00
O1642  O     0.09986   0.70475   0.71587   0.00000  Uiso   1.00
C1643  C     0.05720   0.70558   0.75007   0.00000  Uiso   1.00
H1644  H     0.02795   0.70164   0.73355   0.00000  Uiso   1.00
H1645  H     0.05277   0.68080   0.77595   0.00000  Uiso   1.00
H1646  H     0.05313   0.73611   0.76809   0.00000  Uiso   1.00
O1647  O     0.20997   0.71178   0.80875   0.00000  Uiso   1.00
C1648  C     0.25823   0.72117   0.79395   0.00000  Uiso   1.00
H1649  H     0.26526   0.75195   0.80862   0.00000  Uiso   1.00
H1650  H     0.27137   0.72338   0.75633   0.00000  Uiso   1.00
H1651  H     0.27805   0.69819   0.80747   0.00000  Uiso   1.00
O1652  O     0.12164   0.95501   0.69381   0.00000  Uiso   1.00
C1653  C     0.07317   0.94699   0.70927   0.00000  Uiso   1.00
H1654  H     0.06030   0.94607   0.74697   0.00000  Uiso   1.00
H1655  H     0.06496   0.91598   0.69588   0.00000  Uiso   1.00
H1656  H     0.05398   0.97001   0.69505   0.00000  Uiso   1.00
O1657  O     0.29943   0.78754   0.68666   0.00000  Uiso   1.00
H1658  H     0.32432   0.78557   0.65810   0.00000  Uiso   1.00
O1659  O     0.03495   0.88288   0.80986   0.00000  Uiso   1.00
H1660  H     0.01456   0.90698   0.81895   0.00000  Uiso   1.00
O1661  O     0.06323   0.78505   0.68947   0.00000  Uiso   1.00
H1662  H     0.04653   0.76078   0.67974   0.00000  Uiso   1.00
O1663  O     0.26896   0.87601   0.81553   0.00000  Uiso   1.00
H1664  H     0.28045   0.87834   0.84341   0.00000  Uiso   1.00
C1665  C     0.50128   0.91333   0.74862   0.00000  Uiso   1.00
C1666  C     0.49861   0.75337   0.75190   0.00000  Uiso   1.00
C1667  C     0.43430   0.76845   0.54144   0.00000  Uiso   1.00
C1668  C     0.54498   0.75617   0.96207   0.00000  Uiso   1.00
C1669  C     0.40670   0.75987   0.51006   0.00000  Uiso   1.00
C1670  C     0.57296   0.75476   0.99309   0.00000  Uiso   1.00
C1671  C     0.53262   0.98067   0.76952   0.00000  Uiso   1.00
C1672  C     0.46642   0.68595   0.73286   0.00000  Uiso   1.00
C1673  C     0.52696   0.68998   0.77547   0.00000  Uiso   1.00
C1674  C     0.47244   0.97684   0.72636   0.00000  Uiso   1.00
C1675  C     0.49606   0.70906   0.75463   0.00000  Uiso   1.00
C1676  C     0.50358   0.95769   0.74681   0.00000  Uiso   1.00
C1677  C     0.64984   0.81017   0.71834   0.00000  Uiso   1.00
C1678  C     0.35041   0.85728   0.78092   0.00000  Uiso   1.00
C1679  C     0.36489   0.80946   0.71908   0.00000  Uiso   1.00
C1680  C     0.63482   0.85578   0.78216   0.00000  Uiso   1.00
C1681  C     0.47298   0.82635   0.83564   0.00000  Uiso   1.00
C1682  C     0.52727   0.83359   0.66240   0.00000  Uiso   1.00
C1683  C     0.46123   0.80217   0.87705   0.00000  Uiso   1.00
C1684  C     0.53934   0.82573   0.61318   0.00000  Uiso   1.00
C1685  C     0.39801   0.76872   0.93050   0.00000  Uiso   1.00
C1686  C     0.59807   0.80141   0.54804   0.00000  Uiso   1.00
C1687  C     0.42166   0.77615   0.88504   0.00000  Uiso   1.00
C1688  C     0.58649   0.82218   0.58991   0.00000  Uiso   1.00
C1689  C     0.48964   0.80184   0.90731   0.00000  Uiso   1.00
C1690  C     0.50403   0.81583   0.59056   0.00000  Uiso   1.00
C1691  C     0.47257   0.78064   0.94867   0.00000  Uiso   1.00
C1692  C     0.51517   0.79147   0.54993   0.00000  Uiso   1.00
C1693  C     0.42462   0.76981   0.96349   0.00000  Uiso   1.00
C1694  C     0.56259   0.78168   0.53112   0.00000  Uiso   1.00
C1695  C     0.50100   0.77360   0.97755   0.00000  Uiso   1.00
C1696  C     0.48255   0.77892   0.52438   0.00000  Uiso   1.00
N1697  N     0.38093   0.83334   0.75001   0.00000  Uiso   1.00
N1698  N     0.61907   0.83332   0.74999   0.00000  Uiso   1.00
O1699  O     0.46179   0.89442   0.75000   0.00000  Uiso   1.00
O1700  O     0.53821   0.77225   0.74999   0.00000  Uiso   1.00
O1701  O     0.53823   0.89441   0.75000   0.00000  Uiso   1.00
O1702  O     0.46177   0.77226   0.75000   0.00000  Uiso   1.00
O1703  O     0.43994   0.83334   0.81612   0.00000  Uiso   1.00
O1704  O     0.56006   0.83333   0.68387   0.00000  Uiso   1.00
O1705  O     0.51639   0.83333   0.81612   0.00000  Uiso   1.00
O1706  O     0.48361   0.83334   0.68388   0.00000  Uiso   1.00
Zn1707 Zn    0.44896   0.83334   0.75000   0.00000  Uiso   1.00
Zn1708 Zn    0.55104   0.83333   0.75000   0.00000  Uiso   1.00
O1709  O     0.36342   0.74065   0.52515   0.00000  Uiso   1.00
C1710  C     0.36938   0.69729   0.52438   0.00000  Uiso   1.00
H1711  H     0.37945   0.68511   0.98875   0.00000  Uiso   1.00
H1712  H     0.33577   0.68207   0.54185   0.00000  Uiso   1.00
H1713  H     0.39539   0.68844   0.54303   0.00000  Uiso   1.00
O1714  O     0.60938   0.72789   0.98674   0.00000  Uiso   1.00
C1715  C     0.59079   0.68778   0.99969   0.00000  Uiso   1.00
H1716  H     0.57491   0.68690   0.53699   0.00000  Uiso   1.00
H1717  H     0.61948   0.99877   0.99143   0.00000  Uiso   1.00
H1718  H     0.56485   0.67693   0.98074   0.00000  Uiso   1.00
O1719  O     0.46060   0.83239   0.60755   0.00000  Uiso   1.00
H1720  H     0.44715   0.83817   0.58174   0.00000  Uiso   1.00
O1721  O     0.53183   0.82379   0.89685   0.00000  Uiso   1.00
H1722  H     0.54211   0.82980   0.92497   0.00000  Uiso   1.00
O1723  O     0.62217   0.83807   0.60751   0.00000  Uiso   1.00
H1724  H     0.61270   0.86568   0.62144   0.00000  Uiso   1.00
O1725  O     0.40418   0.76208   0.84913   0.00000  Uiso   1.00
H1726  H     0.38398   0.73711   0.85920   0.00000  Uiso   1.00
O1727  O     0.34982   0.76416   0.94273   0.00000  Uiso   1.00
C1728  C     0.66190   0.79174   0.91822   0.00000  Uiso   1.00
H1729  H     0.65273   0.77523   0.88905   0.00000  Uiso   1.00
H1730  H     0.34975   0.82050   0.90641   0.00000  Uiso   1.00
H1731  H     0.62918   0.80332   0.94020   0.00000  Uiso   1.00
O1732  O     0.64379   0.80206   0.52237   0.00000  Uiso   1.00
C1733  C     0.65907   0.84339   0.50986   0.00000  Uiso   1.00
H1734  H     0.33675   0.86071   0.53753   0.00000  Uiso   1.00
H1735  H     0.63246   0.86087   0.99830   0.00000  Uiso   1.00
H1736  H     0.35741   0.84237   0.98132   0.00000  Uiso   1.00
O1737  O     0.41463   0.76028   0.58668   0.00000  Uiso   1.00
H1738  H     0.43983   0.75418   0.60139   0.00000  Uiso   1.00
O1739  O     0.55747   0.73813   0.91908   0.00000  Uiso   1.00
H1740  H     0.58904   0.72681   0.91383   0.00000  Uiso   1.00
O1741  O     0.56343   0.96135   0.78934   0.00000  Uiso   1.00
C1742  C     0.60790   0.96024   0.75802   0.00000  Uiso   1.00
H1743  H     0.63490   0.95988   0.77747   0.00000  Uiso   1.00
H1744  H     0.61155   0.93151   0.73669   0.00000  Uiso   1.00
H1745  H     0.61617   0.98728   0.73493   0.00000  Uiso   1.00
O1746  O     0.43319   0.70475   0.71587   0.00000  Uiso   1.00
C1747  C     0.39053   0.70558   0.75007   0.00000  Uiso   1.00
H1748  H     0.36128   0.70164   0.73355   0.00000  Uiso   1.00
H1749  H     0.38610   0.68080   0.77595   0.00000  Uiso   1.00
H1750  H     0.38646   0.73611   0.76809   0.00000  Uiso   1.00
O1751  O     0.54331   0.71178   0.80875   0.00000  Uiso   1.00
C1752  C     0.59156   0.72117   0.79395   0.00000  Uiso   1.00
H1753  H     0.59859   0.75195   0.80862   0.00000  Uiso   1.00
H1754  H     0.60471   0.72338   0.75633   0.00000  Uiso   1.00
H1755  H     0.61139   0.69819   0.80747   0.00000  Uiso   1.00
O1756  O     0.45498   0.95501   0.69381   0.00000  Uiso   1.00
C1757  C     0.40650   0.94699   0.70927   0.00000  Uiso   1.00
H1758  H     0.39363   0.94607   0.74697   0.00000  Uiso   1.00
H1759  H     0.39830   0.91598   0.69588   0.00000  Uiso   1.00
H1760  H     0.38732   0.97001   0.69505   0.00000  Uiso   1.00
O1761  O     0.63277   0.78754   0.68666   0.00000  Uiso   1.00
H1762  H     0.65765   0.78557   0.65810   0.00000  Uiso   1.00
O1763  O     0.36828   0.88288   0.80986   0.00000  Uiso   1.00
H1764  H     0.34790   0.90698   0.81895   0.00000  Uiso   1.00
O1765  O     0.39657   0.78505   0.68947   0.00000  Uiso   1.00
H1766  H     0.37987   0.76078   0.67974   0.00000  Uiso   1.00
O1767  O     0.60229   0.87601   0.81553   0.00000  Uiso   1.00
H1768  H     0.61378   0.87834   0.84341   0.00000  Uiso   1.00
C1769  C     0.83461   0.91333   0.74862   0.00000  Uiso   1.00
C1770  C     0.83194   0.75337   0.75190   0.00000  Uiso   1.00
C1771  C     0.76763   0.76845   0.54144   0.00000  Uiso   1.00
C1772  C     0.87832   0.75617   0.96207   0.00000  Uiso   1.00
C1773  C     0.74003   0.75987   0.51006   0.00000  Uiso   1.00
C1774  C     0.90630   0.75476   0.99309   0.00000  Uiso   1.00
C1775  C     0.86595   0.98067   0.76952   0.00000  Uiso   1.00
C1776  C     0.79975   0.68595   0.73286   0.00000  Uiso   1.00
C1777  C     0.86030   0.68998   0.77547   0.00000  Uiso   1.00
C1778  C     0.80578   0.97684   0.72636   0.00000  Uiso   1.00
C1779  C     0.82939   0.70906   0.75463   0.00000  Uiso   1.00
C1780  C     0.83691   0.95769   0.74681   0.00000  Uiso   1.00
C1781  C     0.98318   0.81017   0.71834   0.00000  Uiso   1.00
C1782  C     0.68374   0.85728   0.78092   0.00000  Uiso   1.00
C1783  C     0.69822   0.80946   0.71908   0.00000  Uiso   1.00
C1784  C     0.96815   0.85578   0.78216   0.00000  Uiso   1.00
C1785  C     0.80631   0.82635   0.83564   0.00000  Uiso   1.00
C1786  C     0.86060   0.83359   0.66240   0.00000  Uiso   1.00
C1787  C     0.79457   0.80217   0.87705   0.00000  Uiso   1.00
C1788  C     0.87268   0.82573   0.61318   0.00000  Uiso   1.00
C1789  C     0.73135   0.76872   0.93050   0.00000  Uiso   1.00
C1790  C     0.93140   0.80141   0.54804   0.00000  Uiso   1.00
C1791  C     0.75499   0.77615   0.88504   0.00000  Uiso   1.00
C1792  C     0.91982   0.82218   0.58991   0.00000  Uiso   1.00
C1793  C     0.82297   0.80184   0.90731   0.00000  Uiso   1.00
C1794  C     0.83736   0.81583   0.59056   0.00000  Uiso   1.00
C1795  C     0.80590   0.78064   0.94867   0.00000  Uiso   1.00
C1796  C     0.84850   0.79147   0.54993   0.00000  Uiso   1.00
C1797  C     0.75795   0.76981   0.96349   0.00000  Uiso   1.00
C1798  C     0.89592   0.78168   0.53112   0.00000  Uiso   1.00
C1799  C     0.83434   0.77360   0.97755   0.00000  Uiso   1.00
C1800  C     0.81589   0.77892   0.52438   0.00000  Uiso   1.00
N1801  N     0.71426   0.83334   0.75001   0.00000  Uiso   1.00
N1802  N     0.95241   0.83332   0.74999   0.00000  Uiso   1.00
O1803  O     0.79512   0.89442   0.75000   0.00000  Uiso   1.00
O1804  O     0.87154   0.77225   0.74999   0.00000  Uiso   1.00
O1805  O     0.87157   0.89441   0.75000   0.00000  Uiso   1.00
O1806  O     0.79510   0.77226   0.75000   0.00000  Uiso   1.00
O1807  O     0.77328   0.83334   0.81612   0.00000  Uiso   1.00
O1808  O     0.89339   0.83333   0.68387   0.00000  Uiso   1.00
O1809  O     0.84972   0.83333   0.81612   0.00000  Uiso   1.00
O1810  O     0.81695   0.83334   0.68388   0.00000  Uiso   1.00
Zn1811 Zn    0.78229   0.83334   0.75000   0.00000  Uiso   1.00
Zn1812 Zn    0.88438   0.83333   0.75000   0.00000  Uiso   1.00
O1813  O     0.69675   0.74065   0.52515   0.00000  Uiso   1.00
C1814  C     0.70271   0.69729   0.52438   0.00000  Uiso   1.00
H1815  H     0.71278   0.68511   0.98875   0.00000  Uiso   1.00
H1816  H     0.66910   0.68207   0.54185   0.00000  Uiso   1.00
H1817  H     0.72872   0.68844   0.54303   0.00000  Uiso   1.00
O1818  O     0.94271   0.72789   0.98674   0.00000  Uiso   1.00
C1819  C     0.92412   0.68778   0.99969   0.00000  Uiso   1.00
H1820  H     0.90824   0.68690   0.53699   0.00000  Uiso   1.00
H1821  H     0.95281   0.99877   0.99143   0.00000  Uiso   1.00
H1822  H     0.89818   0.67693   0.98074   0.00000  Uiso   1.00
O1823  O     0.79393   0.83239   0.60755   0.00000  Uiso   1.00
H1824  H     0.78048   0.83817   0.58174   0.00000  Uiso   1.00
O1825  O     0.86516   0.82379   0.89685   0.00000  Uiso   1.00
H1826  H     0.87544   0.82980   0.92497   0.00000  Uiso   1.00
O1827  O     0.95550   0.83807   0.60751   0.00000  Uiso   1.00
H1828  H     0.94603   0.86568   0.62144   0.00000  Uiso   1.00
O1829  O     0.73751   0.76208   0.84913   0.00000  Uiso   1.00
H1830  H     0.71731   0.73711   0.85920   0.00000  Uiso   1.00
O1831  O     0.68316   0.76416   0.94273   0.00000  Uiso   1.00
C1832  C     0.99523   0.79174   0.91822   0.00000  Uiso   1.00
H1833  H     0.98607   0.77523   0.88905   0.00000  Uiso   1.00
H1834  H     0.68309   0.82050   0.90641   0.00000  Uiso   1.00
H1835  H     0.96251   0.80332   0.94020   0.00000  Uiso   1.00
O1836  O     0.97713   0.80206   0.52237   0.00000  Uiso   1.00
C1837  C     0.99240   0.84339   0.50986   0.00000  Uiso   1.00
H1838  H     0.67008   0.86071   0.53753   0.00000  Uiso   1.00
H1839  H     0.96580   0.86087   0.99830   0.00000  Uiso   1.00
H1840  H     0.69075   0.84237   0.98132   0.00000  Uiso   1.00
O1841  O     0.74796   0.76028   0.58668   0.00000  Uiso   1.00
H1842  H     0.77316   0.75418   0.60139   0.00000  Uiso   1.00
O1843  O     0.89080   0.73813   0.91908   0.00000  Uiso   1.00
H1844  H     0.92237   0.72681   0.91383   0.00000  Uiso   1.00
O1845  O     0.89677   0.96135   0.78934   0.00000  Uiso   1.00
C1846  C     0.94123   0.96024   0.75802   0.00000  Uiso   1.00
H1847  H     0.96823   0.95988   0.77747   0.00000  Uiso   1.00
H1848  H     0.94488   0.93151   0.73669   0.00000  Uiso   1.00
H1849  H     0.94951   0.98728   0.73493   0.00000  Uiso   1.00
O1850  O     0.76652   0.70475   0.71587   0.00000  Uiso   1.00
C1851  C     0.72386   0.70558   0.75007   0.00000  Uiso   1.00
H1852  H     0.69462   0.70164   0.73355   0.00000  Uiso   1.00
H1853  H     0.71943   0.68080   0.77595   0.00000  Uiso   1.00
H1854  H     0.71979   0.73611   0.76809   0.00000  Uiso   1.00
O1855  O     0.87664   0.71178   0.80875   0.00000  Uiso   1.00
C1856  C     0.92489   0.72117   0.79395   0.00000  Uiso   1.00
H1857  H     0.93192   0.75195   0.80862   0.00000  Uiso   1.00
H1858  H     0.93804   0.72338   0.75633   0.00000  Uiso   1.00
H1859  H     0.94472   0.69819   0.80747   0.00000  Uiso   1.00
O1860  O     0.78831   0.95501   0.69381   0.00000  Uiso   1.00
C1861  C     0.73983   0.94699   0.70927   0.00000  Uiso   1.00
H1862  H     0.72696   0.94607   0.74697   0.00000  Uiso   1.00
H1863  H     0.73163   0.91598   0.69588   0.00000  Uiso   1.00
H1864  H     0.72065   0.97001   0.69505   0.00000  Uiso   1.00
O1865  O     0.96610   0.78754   0.68666   0.00000  Uiso   1.00
H1866  H     0.99098   0.78557   0.65810   0.00000  Uiso   1.00
O1867  O     0.70162   0.88288   0.80986   0.00000  Uiso   1.00
H1868  H     0.68123   0.90698   0.81895   0.00000  Uiso   1.00
O1869  O     0.72990   0.78505   0.68947   0.00000  Uiso   1.00
H1870  H     0.71320   0.76078   0.67974   0.00000  Uiso   1.00
O1871  O     0.93562   0.87601   0.81553   0.00000  Uiso   1.00
H1872  H     0.94711   0.87834   0.84341   0.00000  Uiso   1.00
loop_
_geom_bond_atom_site_label_1
_geom_bond_atom_site_label_2
_geom_bond_distance
_geom_bond_site_symmetry_2
_ccdc_geom_bond_type
C1     O37     1.282   .     A
C1     C12     1.428   .     S
C1     O35     1.293   .     A
C2     C11     1.428   .     S
C2     O38     1.283   .     A
C2     O36     1.292   .     A
C3     C32     1.426   .     A
C3     O73     1.379   .     S
C3     C5      1.421   .     A
C4     O75     1.383   .     S
C4     C6      1.407   .     A
C4     C31     1.402   .     A
C5     O45     1.380   .     S
C5     C965    1.421   1_554 S
C6     O50     1.379   .     S
C6     C966    1.402   .     S
C7     O77     1.386   .     S
C7     C12     1.412   .     A
C7     C321    1.389   .     S
C8     O82     1.385   .     S
C8     C11     1.409   .     A
C8     C634    1.385   1_545 S
C9     C11     1.403   .     A
C9     O87     1.391   .     S
C9     C631    1.389   1_545 S
C10    O92     1.392   .     S
C10    C12     1.403   .     A
C10    C320    1.385   .     S
C13    N34     1.371   .     A
C13    O97     1.377   .     S
C13    C119    1.442   .     S
C14    N33     1.370   .     A
C14    O99     1.378   .     S
C14    C224    1.441   1_455 S
C15    O101    1.377   .     S
C15    N33     1.365   .     A
C15    C221    1.442   1_455 S
C16    N34     1.366   .     A
C16    O103    1.378   .     S
C16    C118    1.441   .     S
C17    O39     1.295   .     A
C17    C19     1.456   .     S
C17    O41     1.289   .     A
C18    O42     1.295   .     A
C18    O40     1.301   .     A
C18    C20     1.465   .     S
C19    C23     1.392   .     A
C19    C25     1.395   .     A
C20    C26     1.414   .     A
C20    C24     1.406   .     A
C21    C29     1.423   .     A
C21    C23     1.405   .     A
C21    O63     1.387   .     S
C22    C24     1.390   .     A
C22    O68     1.383   .     S
C22    C30     1.409   .     A
C23    O61     1.381   .     S
C24    O59     1.379   .     S
C25    O57     1.384   .     S
C25    C27     1.414   .     A
C26    O55     1.381   .     S
C26    C28     1.417   .     A
C27    C29     1.414   .     A
C27    C31     1.389   .     A
C28    C32     1.427   .     A
C28    C30     1.421   .     A
C29    C941    1.421   .     S
C30    C942    1.402   1_554 S
C31    C968    1.398   .     S
C32    C967    1.398   1_554 S
N33    Zn43    2.018   .     S
N34    Zn44    2.018   .     S
O35    Zn43    1.988   .     S
O36    Zn44    1.988   .     S
O37    Zn44    2.014   .     S
O38    Zn43    2.014   .     S
O39    Zn43    1.959   .     S
O40    Zn44    1.959   .     S
O41    Zn44    2.013   .     S
O42    Zn43    2.013   .     S
O45    C46     1.410   .     S
C46    H49     1.114   .     S
C46    H48     1.108   .     S
C46    H983    1.113   1_554 S
H47    C982    1.113   .     S
O50    C51     1.411   .     S
C51    H54     1.113   .     S
C51    H988    1.113   .     S
C51    H677    1.108   1_545 S
H52    C987    1.113   1_554 S
H53    C363    1.108   .     S
O55    H56     0.990   .     S
O57    H58     0.990   .     S
O59    H60     0.992   .     S
O61    H62     0.992   .     S
O63    C272    1.431   1_455 S
C64    H67     1.101   .     S
C64    H65     1.108   .     S
C64    O167    1.431   .     S
C64    H170    1.115   .     S
H66    C272    1.115   1_455 S
O68    C69     1.419   .     S
C69    H174    1.107   .     S
C69    H1007   1.115   1_554 S
C69    H1112   1.107   1_554 S
H70    C277    1.107   1_455 S
H71    C1005   1.115   .     S
H72    C1213   1.107   1_455 S
O73    H74     0.990   .     S
O75    H76     0.990   .     S
O77    C78     1.420   .     S
C78    H80     1.107   .     S
C78    H79     1.109   .     S
C78    H81     1.113   .     S
O82    C83     1.421   .     S
C83    H84     1.109   .     S
C83    H85     1.115   .     S
C83    H86     1.107   .     S
O87    C88     1.412   .     S
C88    H91     1.108   .     S
C88    H90     1.114   .     S
C88    H89     1.110   .     S
O92    C93     1.413   .     S
C93    H94     1.113   .     S
C93    H95     1.110   .     S
C93    H96     1.108   .     S
O97    H98     0.990   .     S
O99    H100    0.990   .     S
O101   H102    0.988   .     S
O103   H104    0.990   .     S
C105   O141    1.282   .     A
C105   C116    1.428   .     S
C105   O139    1.293   .     A
C106   C115    1.428   .     S
C106   O142    1.283   .     A
C106   O140    1.292   .     A
C107   C136    1.426   .     A
C107   O177    1.379   .     S
C107   C109    1.421   .     A
C108   O179    1.383   .     S
C108   C110    1.407   .     A
C108   C135    1.402   .     A
C109   O149    1.380   .     S
C109   C1069   1.421   1_554 S
C110   O154    1.379   .     S
C110   C1070   1.402   .     S
C111   O181    1.386   .     S
C111   C116    1.412   .     A
C111   C425    1.389   .     S
C112   O186    1.385   .     S
C112   C115    1.409   .     A
C112   C738    1.385   1_545 S
C113   C115    1.403   .     A
C113   O191    1.391   .     S
C113   C735    1.389   1_545 S
C114   O196    1.392   .     S
C114   C116    1.403   .     A
C114   C424    1.385   .     S
C117   N138    1.371   .     A
C117   O201    1.377   .     S
C117   C223    1.442   .     S
C118   N137    1.370   .     A
C118   O203    1.378   .     S
C119   O205    1.377   .     S
C119   N137    1.365   .     A
C120   N138    1.366   .     A
C120   O207    1.378   .     S
C120   C222    1.441   .     S
C121   O143    1.295   .     A
C121   C123    1.456   .     S
C121   O145    1.289   .     A
C122   O146    1.295   .     A
C122   O144    1.301   .     A
C122   C124    1.465   .     S
C123   C127    1.392   .     A
C123   C129    1.395   .     A
C124   C130    1.414   .     A
C124   C128    1.406   .     A
C125   C133    1.423   .     A
C125   C127    1.405   .     A
C125   O167    1.387   .     S
C126   C128    1.390   .     A
C126   O172    1.383   .     S
C126   C134    1.409   .     A
C127   O165    1.381   .     S
C128   O163    1.379   .     S
C129   O161    1.384   .     S
C129   C131    1.414   .     A
C130   O159    1.381   .     S
C130   C132    1.417   .     A
C131   C133    1.414   .     A
C131   C135    1.389   .     A
C132   C136    1.427   .     A
C132   C134    1.421   .     A
C133   C1045   1.421   .     S
C134   C1046   1.402   1_554 S
C135   C1072   1.398   .     S
C136   C1071   1.398   1_554 S
N137   Zn147   2.018   .     S
N138   Zn148   2.018   .     S
O139   Zn147   1.988   .     S
O140   Zn148   1.988   .     S
O141   Zn148   2.014   .     S
O142   Zn147   2.014   .     S
O143   Zn147   1.959   .     S
O144   Zn148   1.959   .     S
O145   Zn148   2.013   .     S
O146   Zn147   2.013   .     S
O149   C150    1.410   .     S
C150   H153    1.114   .     S
C150   H152    1.108   .     S
C150   H1087   1.113   1_554 S
H151   C1086   1.113   .     S
O154   C155    1.411   .     S
C155   H158    1.113   .     S
C155   H1092   1.113   .     S
C155   H781    1.108   1_545 S
H156   C1091   1.113   1_554 S
H157   C467    1.108   .     S
O159   H160    0.990   .     S
O161   H162    0.990   .     S
O163   H164    0.992   .     S
O165   H166    0.992   .     S
C168   H171    1.101   .     S
C168   H169    1.108   .     S
C168   O271    1.431   .     S
C168   H274    1.115   .     S
O172   C173    1.419   .     S
C173   H278    1.107   .     S
C173   H1111   1.115   1_554 S
C173   H1216   1.107   1_554 S
H175   C1109   1.115   .     S
H176   C1005   1.107   .     S
O177   H178    0.990   .     S
O179   H180    0.990   .     S
O181   C182    1.420   .     S
C182   H184    1.107   .     S
C182   H183    1.109   .     S
C182   H185    1.113   .     S
O186   C187    1.421   .     S
C187   H188    1.109   .     S
C187   H189    1.115   .     S
C187   H190    1.107   .     S
O191   C192    1.412   .     S
C192   H195    1.108   .     S
C192   H194    1.114   .     S
C192   H193    1.110   .     S
O196   C197    1.413   .     S
C197   H198    1.113   .     S
C197   H199    1.110   .     S
C197   H200    1.108   .     S
O201   H202    0.990   .     S
O203   H204    0.990   .     S
O205   H206    0.988   .     S
O207   H208    0.990   .     S
C209   O245    1.282   .     A
C209   C220    1.428   .     S
C209   O243    1.293   .     A
C210   C219    1.428   .     S
C210   O246    1.283   .     A
C210   O244    1.292   .     A
C211   C240    1.426   .     A
C211   O281    1.379   .     S
C211   C213    1.421   .     A
C212   O283    1.383   .     S
C212   C214    1.407   .     A
C212   C239    1.402   .     A
C213   O253    1.380   .     S
C213   C1173   1.421   1_554 S
C214   O258    1.379   .     S
C214   C1174   1.402   .     S
C215   O285    1.386   .     S
C215   C220    1.412   .     A
C215   C529    1.389   .     S
C216   O290    1.385   .     S
C216   C219    1.409   .     A
C216   C842    1.385   1_545 S
C217   C219    1.403   .     A
C217   O295    1.391   .     S
C217   C839    1.389   1_545 S
C218   O300    1.392   .     S
C218   C220    1.403   .     A
C218   C528    1.385   .     S
C221   N242    1.371   .     A
C221   O305    1.377   .     S
C221   C15     1.442   1_655 S
C222   N241    1.370   .     A
C222   O307    1.378   .     S
C223   O309    1.377   .     S
C223   N241    1.365   .     A
C224   N242    1.366   .     A
C224   O311    1.378   .     S
C224   C14     1.441   1_655 S
C225   O247    1.295   .     A
C225   C227    1.456   .     S
C225   O249    1.289   .     A
C226   O250    1.295   .     A
C226   O248    1.301   .     A
C226   C228    1.465   .     S
C227   C231    1.392   .     A
C227   C233    1.395   .     A
C228   C234    1.414   .     A
C228   C232    1.406   .     A
C229   C237    1.423   .     A
C229   C231    1.405   .     A
C229   O271    1.387   .     S
C230   C232    1.390   .     A
C230   O276    1.383   .     S
C230   C238    1.409   .     A
C231   O269    1.381   .     S
C232   O267    1.379   .     S
C233   O265    1.384   .     S
C233   C235    1.414   .     A
C234   O263    1.381   .     S
C234   C236    1.417   .     A
C235   C237    1.414   .     A
C235   C239    1.389   .     A
C236   C240    1.427   .     A
C236   C238    1.421   .     A
C237   C1149   1.421   .     S
C238   C1150   1.402   1_554 S
C239   C1176   1.398   .     S
C240   C1175   1.398   1_554 S
N241   Zn251   2.018   .     S
N242   Zn252   2.018   .     S
O243   Zn251   1.988   .     S
O244   Zn252   1.988   .     S
O245   Zn252   2.014   .     S
O246   Zn251   2.014   .     S
O247   Zn251   1.959   .     S
O248   Zn252   1.959   .     S
O249   Zn252   2.013   .     S
O250   Zn251   2.013   .     S
O253   C254    1.410   .     S
C254   H257    1.114   .     S
C254   H256    1.108   .     S
C254   H1191   1.113   1_554 S
H255   C1190   1.113   .     S
O258   C259    1.411   .     S
C259   H262    1.113   .     S
C259   H1196   1.113   .     S
C259   H885    1.108   1_545 S
H260   C1195   1.113   1_554 S
H261   C571    1.108   .     S
O263   H264    0.990   .     S
O265   H266    0.990   .     S
O267   H268    0.992   .     S
O269   H270    0.992   .     S
C272   H275    1.101   .     S
C272   H273    1.108   .     S
C272   O63     1.431   1_655 S
C272   H66     1.115   1_655 S
O276   C277    1.419   .     S
C277   H70     1.107   1_655 S
C277   H1215   1.115   1_554 S
C277   H1008   1.107   1_654 S
H279   C1213   1.115   .     S
H280   C1109   1.107   .     S
O281   H282    0.990   .     S
O283   H284    0.990   .     S
O285   C286    1.420   .     S
C286   H288    1.107   .     S
C286   H287    1.109   .     S
C286   H289    1.113   .     S
O290   C291    1.421   .     S
C291   H292    1.109   .     S
C291   H293    1.115   .     S
C291   H294    1.107   .     S
O295   C296    1.412   .     S
C296   H299    1.108   .     S
C296   H298    1.114   .     S
C296   H297    1.110   .     S
O300   C301    1.413   .     S
C301   H302    1.113   .     S
C301   H303    1.110   .     S
C301   H304    1.108   .     S
O305   H306    0.990   .     S
O307   H308    0.990   .     S
O309   H310    0.988   .     S
O311   H312    0.990   .     S
C313   O349    1.282   .     A
C313   C324    1.428   .     S
C313   O347    1.293   .     A
C314   C323    1.428   .     S
C314   O350    1.283   .     A
C314   O348    1.292   .     A
C315   C344    1.426   .     A
C315   O385    1.379   .     S
C315   C317    1.421   .     A
C316   O387    1.383   .     S
C316   C318    1.407   .     A
C316   C343    1.402   .     A
C317   O357    1.380   .     S
C317   C1277   1.421   1_554 S
C318   O362    1.379   .     S
C318   C1278   1.402   .     S
C319   O389    1.386   .     S
C319   C324    1.412   .     A
C319   C633    1.389   .     S
C320   O394    1.385   .     S
C320   C323    1.409   .     A
C321   C323    1.403   .     A
C321   O399    1.391   .     S
C322   O404    1.392   .     S
C322   C324    1.403   .     A
C322   C632    1.385   .     S
C325   N346    1.371   .     A
C325   O409    1.377   .     S
C325   C431    1.442   .     S
C326   N345    1.370   .     A
C326   O411    1.378   .     S
C326   C536    1.441   1_455 S
C327   O413    1.377   .     S
C327   N345    1.365   .     A
C327   C533    1.442   1_455 S
C328   N346    1.366   .     A
C328   O415    1.378   .     S
C328   C430    1.441   .     S
C329   O351    1.295   .     A
C329   C331    1.456   .     S
C329   O353    1.289   .     A
C330   O354    1.295   .     A
C330   O352    1.301   .     A
C330   C332    1.465   .     S
C331   C335    1.392   .     A
C331   C337    1.395   .     A
C332   C338    1.414   .     A
C332   C336    1.406   .     A
C333   C341    1.423   .     A
C333   C335    1.405   .     A
C333   O375    1.387   .     S
C334   C336    1.390   .     A
C334   O380    1.383   .     S
C334   C342    1.409   .     A
C335   O373    1.381   .     S
C336   O371    1.379   .     S
C337   O369    1.384   .     S
C337   C339    1.414   .     A
C338   O367    1.381   .     S
C338   C340    1.417   .     A
C339   C341    1.414   .     A
C339   C343    1.389   .     A
C340   C344    1.427   .     A
C340   C342    1.421   .     A
C341   C1253   1.421   .     S
C342   C1254   1.402   1_554 S
C343   C1280   1.398   .     S
C344   C1279   1.398   1_554 S
N345   Zn355   2.018   .     S
N346   Zn356   2.018   .     S
O347   Zn355   1.988   .     S
O348   Zn356   1.988   .     S
O349   Zn356   2.014   .     S
O350   Zn355   2.014   .     S
O351   Zn355   1.959   .     S
O352   Zn356   1.959   .     S
O353   Zn356   2.013   .     S
O354   Zn355   2.013   .     S
O357   C358    1.410   .     S
C358   H361    1.114   .     S
C358   H360    1.108   .     S
C358   H1295   1.113   1_554 S
H359   C1294   1.113   .     S
O362   C363    1.411   .     S
C363   H366    1.113   .     S
C363   H1300   1.113   .     S
H364   C1299   1.113   1_554 S
H365   C675    1.108   .     S
O367   H368    0.990   .     S
O369   H370    0.990   .     S
O371   H372    0.992   .     S
O373   H374    0.992   .     S
O375   C584    1.431   1_455 S
C376   H379    1.101   .     S
C376   H377    1.108   .     S
C376   O479    1.431   .     S
C376   H482    1.115   .     S
H378   C584    1.115   1_455 S
O380   C381    1.419   .     S
C381   H486    1.107   .     S
C381   H1319   1.115   1_554 S
C381   H1424   1.107   1_554 S
H382   C589    1.107   1_455 S
H383   C1317   1.115   .     S
H384   C1525   1.107   1_455 S
O385   H386    0.990   .     S
O387   H388    0.990   .     S
O389   C390    1.420   .     S
C390   H392    1.107   .     S
C390   H391    1.109   .     S
C390   H393    1.113   .     S
O394   C395    1.421   .     S
C395   H396    1.109   .     S
C395   H397    1.115   .     S
C395   H398    1.107   .     S
O399   C400    1.412   .     S
C400   H403    1.108   .     S
C400   H402    1.114   .     S
C400   H401    1.110   .     S
O404   C405    1.413   .     S
C405   H406    1.113   .     S
C405   H407    1.110   .     S
C405   H408    1.108   .     S
O409   H410    0.990   .     S
O411   H412    0.990   .     S
O413   H414    0.988   .     S
O415   H416    0.990   .     S
C417   O453    1.282   .     A
C417   C428    1.428   .     S
C417   O451    1.293   .     A
C418   C427    1.428   .     S
C418   O454    1.283   .     A
C418   O452    1.292   .     A
C419   C448    1.426   .     A
C419   O489    1.379   .     S
C419   C421    1.421   .     A
C420   O491    1.383   .     S
C420   C422    1.407   .     A
C420   C447    1.402   .     A
C421   O461    1.380   .     S
C421   C1381   1.421   1_554 S
C422   O466    1.379   .     S
C422   C1382   1.402   .     S
C423   O493    1.386   .     S
C423   C428    1.412   .     A
C423   C737    1.389   .     S
C424   O498    1.385   .     S
C424   C427    1.409   .     A
C425   C427    1.403   .     A
C425   O503    1.391   .     S
C426   O508    1.392   .     S
C426   C428    1.403   .     A
C426   C736    1.385   .     S
C429   N450    1.371   .     A
C429   O513    1.377   .     S
C429   C535    1.442   .     S
C430   N449    1.370   .     A
C430   O515    1.378   .     S
C431   O517    1.377   .     S
C431   N449    1.365   .     A
C432   N450    1.366   .     A
C432   O519    1.378   .     S
C432   C534    1.441   .     S
C433   O455    1.295   .     A
C433   C435    1.456   .     S
C433   O457    1.289   .     A
C434   O458    1.295   .     A
C434   O456    1.301   .     A
C434   C436    1.465   .     S
C435   C439    1.392   .     A
C435   C441    1.395   .     A
C436   C442    1.414   .     A
C436   C440    1.406   .     A
C437   C445    1.423   .     A
C437   C439    1.405   .     A
C437   O479    1.387   .     S
C438   C440    1.390   .     A
C438   O484    1.383   .     S
C438   C446    1.409   .     A
C439   O477    1.381   .     S
C440   O475    1.379   .     S
C441   O473    1.384   .     S
C441   C443    1.414   .     A
C442   O471    1.381   .     S
C442   C444    1.417   .     A
C443   C445    1.414   .     A
C443   C447    1.389   .     A
C444   C448    1.427   .     A
C444   C446    1.421   .     A
C445   C1357   1.421   .     S
C446   C1358   1.402   1_554 S
C447   C1384   1.398   .     S
C448   C1383   1.398   1_554 S
N449   Zn459   2.018   .     S
N450   Zn460   2.018   .     S
O451   Zn459   1.988   .     S
O452   Zn460   1.988   .     S
O453   Zn460   2.014   .     S
O454   Zn459   2.014   .     S
O455   Zn459   1.959   .     S
O456   Zn460   1.959   .     S
O457   Zn460   2.013   .     S
O458   Zn459   2.013   .     S
O461   C462    1.410   .     S
C462   H465    1.114   .     S
C462   H464    1.108   .     S
C462   H1399   1.113   1_554 S
H463   C1398   1.113   .     S
O466   C467    1.411   .     S
C467   H470    1.113   .     S
C467   H1404   1.113   .     S
H468   C1403   1.113   1_554 S
H469   C779    1.108   .     S
O471   H472    0.990   .     S
O473   H474    0.990   .     S
O475   H476    0.992   .     S
O477   H478    0.992   .     S
C480   H483    1.101   .     S
C480   H481    1.108   .     S
C480   O583    1.431   .     S
C480   H586    1.115   .     S
O484   C485    1.419   .     S
C485   H590    1.107   .     S
C485   H1423   1.115   1_554 S
C485   H1528   1.107   1_554 S
H487   C1421   1.115   .     S
H488   C1317   1.107   .     S
O489   H490    0.990   .     S
O491   H492    0.990   .     S
O493   C494    1.420   .     S
C494   H496    1.107   .     S
C494   H495    1.109   .     S
C494   H497    1.113   .     S
O498   C499    1.421   .     S
C499   H500    1.109   .     S
C499   H501    1.115   .     S
C499   H502    1.107   .     S
O503   C504    1.412   .     S
C504   H507    1.108   .     S
C504   H506    1.114   .     S
C504   H505    1.110   .     S
O508   C509    1.413   .     S
C509   H510    1.113   .     S
C509   H511    1.110   .     S
C509   H512    1.108   .     S
O513   H514    0.990   .     S
O515   H516    0.990   .     S
O517   H518    0.988   .     S
O519   H520    0.990   .     S
C521   O557    1.282   .     A
C521   C532    1.428   .     S
C521   O555    1.293   .     A
C522   C531    1.428   .     S
C522   O558    1.283   .     A
C522   O556    1.292   .     A
C523   C552    1.426   .     A
C523   O593    1.379   .     S
C523   C525    1.421   .     A
C524   O595    1.383   .     S
C524   C526    1.407   .     A
C524   C551    1.402   .     A
C525   O565    1.380   .     S
C525   C1485   1.421   1_554 S
C526   O570    1.379   .     S
C526   C1486   1.402   .     S
C527   O597    1.386   .     S
C527   C532    1.412   .     A
C527   C841    1.389   .     S
C528   O602    1.385   .     S
C528   C531    1.409   .     A
C529   C531    1.403   .     A
C529   O607    1.391   .     S
C530   O612    1.392   .     S
C530   C532    1.403   .     A
C530   C840    1.385   .     S
C533   N554    1.371   .     A
C533   O617    1.377   .     S
C533   C327    1.442   1_655 S
C534   N553    1.370   .     A
C534   O619    1.378   .     S
C535   O621    1.377   .     S
C535   N553    1.365   .     A
C536   N554    1.366   .     A
C536   O623    1.378   .     S
C536   C326    1.441   1_655 S
C537   O559    1.295   .     A
C537   C539    1.456   .     S
C537   O561    1.289   .     A
C538   O562    1.295   .     A
C538   O560    1.301   .     A
C538   C540    1.465   .     S
C539   C543    1.392   .     A
C539   C545    1.395   .     A
C540   C546    1.414   .     A
C540   C544    1.406   .     A
C541   C549    1.423   .     A
C541   C543    1.405   .     A
C541   O583    1.387   .     S
C542   C544    1.390   .     A
C542   O588    1.383   .     S
C542   C550    1.409   .     A
C543   O581    1.381   .     S
C544   O579    1.379   .     S
C545   O577    1.384   .     S
C545   C547    1.414   .     A
C546   O575    1.381   .     S
C546   C548    1.417   .     A
C547   C549    1.414   .     A
C547   C551    1.389   .     A
C548   C552    1.427   .     A
C548   C550    1.421   .     A
C549   C1461   1.421   .     S
C550   C1462   1.402   1_554 S
C551   C1488   1.398   .     S
C552   C1487   1.398   1_554 S
N553   Zn563   2.018   .     S
N554   Zn564   2.018   .     S
O555   Zn563   1.988   .     S
O556   Zn564   1.988   .     S
O557   Zn564   2.014   .     S
O558   Zn563   2.014   .     S
O559   Zn563   1.959   .     S
O560   Zn564   1.959   .     S
O561   Zn564   2.013   .     S
O562   Zn563   2.013   .     S
O565   C566    1.410   .     S
C566   H569    1.114   .     S
C566   H568    1.108   .     S
C566   H1503   1.113   1_554 S
H567   C1502   1.113   .     S
O570   C571    1.411   .     S
C571   H574    1.113   .     S
C571   H1508   1.113   .     S
H572   C1507   1.113   1_554 S
H573   C883    1.108   .     S
O575   H576    0.990   .     S
O577   H578    0.990   .     S
O579   H580    0.992   .     S
O581   H582    0.992   .     S
C584   H587    1.101   .     S
C584   H585    1.108   .     S
C584   O375    1.431   1_655 S
C584   H378    1.115   1_655 S
O588   C589    1.419   .     S
C589   H382    1.107   1_655 S
C589   H1527   1.115   1_554 S
C589   H1320   1.107   1_654 S
H591   C1525   1.115   .     S
H592   C1421   1.107   .     S
O593   H594    0.990   .     S
O595   H596    0.990   .     S
O597   C598    1.420   .     S
C598   H600    1.107   .     S
C598   H599    1.109   .     S
C598   H601    1.113   .     S
O602   C603    1.421   .     S
C603   H604    1.109   .     S
C603   H605    1.115   .     S
C603   H606    1.107   .     S
O607   C608    1.412   .     S
C608   H611    1.108   .     S
C608   H610    1.114   .     S
C608   H609    1.110   .     S
O612   C613    1.413   .     S
C613   H614    1.113   .     S
C613   H615    1.110   .     S
C613   H616    1.108   .     S
O617   H618    0.990   .     S
O619   H620    0.990   .     S
O621   H622    0.988   .     S
O623   H624    0.990   .     S
C625   O661    1.282   .     A
C625   C636    1.428   .     S
C625   O659    1.293   .     A
C626   C635    1.428   .     S
C626   O662    1.283   .     A
C626   O660    1.292   .     A
C627   C656    1.426   .     A
C627   O697    1.379   .     S
C627   C629    1.421   .     A
C628   O699    1.383   .     S
C628   C630    1.407   .     A
C628   C655    1.402   .     A
C629   O669    1.380   .     S
C629   C1589   1.421   1_554 S
C630   O674    1.379   .     S
C630   C1590   1.402   .     S
C631   O701    1.386   .     S
C631   C636    1.412   .     A
C631   C9      1.389   1_565 S
C632   O706    1.385   .     S
C632   C635    1.409   .     A
C633   C635    1.403   .     A
C633   O711    1.391   .     S
C634   O716    1.392   .     S
C634   C636    1.403   .     A
C634   C8      1.385   1_565 S
C637   N658    1.371   .     A
C637   O721    1.377   .     S
C637   C743    1.442   .     S
C638   N657    1.370   .     A
C638   O723    1.378   .     S
C638   C848    1.441   1_455 S
C639   O725    1.377   .     S
C639   N657    1.365   .     A
C639   C845    1.442   1_455 S
C640   N658    1.366   .     A
C640   O727    1.378   .     S
C640   C742    1.441   .     S
C641   O663    1.295   .     A
C641   C643    1.456   .     S
C641   O665    1.289   .     A
C642   O666    1.295   .     A
C642   O664    1.301   .     A
C642   C644    1.465   .     S
C643   C647    1.392   .     A
C643   C649    1.395   .     A
C644   C650    1.414   .     A
C644   C648    1.406   .     A
C645   C653    1.423   .     A
C645   C647    1.405   .     A
C645   O687    1.387   .     S
C646   C648    1.390   .     A
C646   O692    1.383   .     S
C646   C654    1.409   .     A
C647   O685    1.381   .     S
C648   O683    1.379   .     S
C649   O681    1.384   .     S
C649   C651    1.414   .     A
C650   O679    1.381   .     S
C650   C652    1.417   .     A
C651   C653    1.414   .     A
C651   C655    1.389   .     A
C652   C656    1.427   .     A
C652   C654    1.421   .     A
C653   C1565   1.421   .     S
C654   C1566   1.402   1_554 S
C655   C1592   1.398   .     S
C656   C1591   1.398   1_554 S
N657   Zn667   2.018   .     S
N658   Zn668   2.018   .     S
O659   Zn667   1.988   .     S
O660   Zn668   1.988   .     S
O661   Zn668   2.014   .     S
O662   Zn667   2.014   .     S
O663   Zn667   1.959   .     S
O664   Zn668   1.959   .     S
O665   Zn668   2.013   .     S
O666   Zn667   2.013   .     S
O669   C670    1.410   .     S
C670   H673    1.114   .     S
C670   H672    1.108   .     S
C670   H1607   1.113   1_554 S
H671   C1606   1.113   .     S
O674   C675    1.411   .     S
C675   H678    1.113   .     S
C675   H1612   1.113   .     S
H676   C1611   1.113   1_554 S
H677   C51     1.108   1_565 S
O679   H680    0.990   .     S
O681   H682    0.990   .     S
O683   H684    0.992   .     S
O685   H686    0.992   .     S
O687   C896    1.431   1_455 S
C688   H691    1.101   .     S
C688   H689    1.108   .     S
C688   O791    1.431   .     S
C688   H794    1.115   .     S
H690   C896    1.115   1_455 S
O692   C693    1.419   .     S
C693   H798    1.107   .     S
C693   H1631   1.115   1_554 S
C693   H1736   1.107   1_554 S
H694   C901    1.107   1_455 S
H695   C1629   1.115   .     S
H696   C1837   1.107   1_455 S
O697   H698    0.990   .     S
O699   H700    0.990   .     S
O701   C702    1.420   .     S
C702   H704    1.107   .     S
C702   H703    1.109   .     S
C702   H705    1.113   .     S
O706   C707    1.421   .     S
C707   H708    1.109   .     S
C707   H709    1.115   .     S
C707   H710    1.107   .     S
O711   C712    1.412   .     S
C712   H715    1.108   .     S
C712   H714    1.114   .     S
C712   H713    1.110   .     S
O716   C717    1.413   .     S
C717   H718    1.113   .     S
C717   H719    1.110   .     S
C717   H720    1.108   .     S
O721   H722    0.990   .     S
O723   H724    0.990   .     S
O725   H726    0.988   .     S
O727   H728    0.990   .     S
C729   O765    1.282   .     A
C729   C740    1.428   .     S
C729   O763    1.293   .     A
C730   C739    1.428   .     S
C730   O766    1.283   .     A
C730   O764    1.292   .     A
C731   C760    1.426   .     A
C731   O801    1.379   .     S
C731   C733    1.421   .     A
C732   O803    1.383   .     S
C732   C734    1.407   .     A
C732   C759    1.402   .     A
C733   O773    1.380   .     S
C733   C1693   1.421   1_554 S
C734   O778    1.379   .     S
C734   C1694   1.402   .     S
C735   O805    1.386   .     S
C735   C740    1.412   .     A
C735   C113    1.389   1_565 S
C736   O810    1.385   .     S
C736   C739    1.409   .     A
C737   C739    1.403   .     A
C737   O815    1.391   .     S
C738   O820    1.392   .     S
C738   C740    1.403   .     A
C738   C112    1.385   1_565 S
C741   N762    1.371   .     A
C741   O825    1.377   .     S
C741   C847    1.442   .     S
C742   N761    1.370   .     A
C742   O827    1.378   .     S
C743   O829    1.377   .     S
C743   N761    1.365   .     A
C744   N762    1.366   .     A
C744   O831    1.378   .     S
C744   C846    1.441   .     S
C745   O767    1.295   .     A
C745   C747    1.456   .     S
C745   O769    1.289   .     A
C746   O770    1.295   .     A
C746   O768    1.301   .     A
C746   C748    1.465   .     S
C747   C751    1.392   .     A
C747   C753    1.395   .     A
C748   C754    1.414   .     A
C748   C752    1.406   .     A
C749   C757    1.423   .     A
C749   C751    1.405   .     A
C749   O791    1.387   .     S
C750   C752    1.390   .     A
C750   O796    1.383   .     S
C750   C758    1.409   .     A
C751   O789    1.381   .     S
C752   O787    1.379   .     S
C753   O785    1.384   .     S
C753   C755    1.414   .     A
C754   O783    1.381   .     S
C754   C756    1.417   .     A
C755   C757    1.414   .     A
C755   C759    1.389   .     A
C756   C760    1.427   .     A
C756   C758    1.421   .     A
C757   C1669   1.421   .     S
C758   C1670   1.402   1_554 S
C759   C1696   1.398   .     S
C760   C1695   1.398   1_554 S
N761   Zn771   2.018   .     S
N762   Zn772   2.018   .     S
O763   Zn771   1.988   .     S
O764   Zn772   1.988   .     S
O765   Zn772   2.014   .     S
O766   Zn771   2.014   .     S
O767   Zn771   1.959   .     S
O768   Zn772   1.959   .     S
O769   Zn772   2.013   .     S
O770   Zn771   2.013   .     S
O773   C774    1.410   .     S
C774   H777    1.114   .     S
C774   H776    1.108   .     S
C774   H1711   1.113   1_554 S
H775   C1710   1.113   .     S
O778   C779    1.411   .     S
C779   H782    1.113   .     S
C779   H1716   1.113   .     S
H780   C1715   1.113   1_554 S
H781   C155    1.108   1_565 S
O783   H784    0.990   .     S
O785   H786    0.990   .     S
O787   H788    0.992   .     S
O789   H790    0.992   .     S
C792   H795    1.101   .     S
C792   H793    1.108   .     S
C792   O895    1.431   .     S
C792   H898    1.115   .     S
O796   C797    1.419   .     S
C797   H902    1.107   .     S
C797   H1735   1.115   1_554 S
C797   H1840   1.107   1_554 S
H799   C1733   1.115   .     S
H800   C1629   1.107   .     S
O801   H802    0.990   .     S
O803   H804    0.990   .     S
O805   C806    1.420   .     S
C806   H808    1.107   .     S
C806   H807    1.109   .     S
C806   H809    1.113   .     S
O810   C811    1.421   .     S
C811   H812    1.109   .     S
C811   H813    1.115   .     S
C811   H814    1.107   .     S
O815   C816    1.412   .     S
C816   H819    1.108   .     S
C816   H818    1.114   .     S
C816   H817    1.110   .     S
O820   C821    1.413   .     S
C821   H822    1.113   .     S
C821   H823    1.110   .     S
C821   H824    1.108   .     S
O825   H826    0.990   .     S
O827   H828    0.990   .     S
O829   H830    0.988   .     S
O831   H832    0.990   .     S
C833   O869    1.282   .     A
C833   C844    1.428   .     S
C833   O867    1.293   .     A
C834   C843    1.428   .     S
C834   O870    1.283   .     A
C834   O868    1.292   .     A
C835   C864    1.426   .     A
C835   O905    1.379   .     S
C835   C837    1.421   .     A
C836   O907    1.383   .     S
C836   C838    1.407   .     A
C836   C863    1.402   .     A
C837   O877    1.380   .     S
C837   C1797   1.421   1_554 S
C838   O882    1.379   .     S
C838   C1798   1.402   .     S
C839   O909    1.386   .     S
C839   C844    1.412   .     A
C839   C217    1.389   1_565 S
C840   O914    1.385   .     S
C840   C843    1.409   .     A
C841   C843    1.403   .     A
C841   O919    1.391   .     S
C842   O924    1.392   .     S
C842   C844    1.403   .     A
C842   C216    1.385   1_565 S
C845   N866    1.371   .     A
C845   O929    1.377   .     S
C845   C639    1.442   1_655 S
C846   N865    1.370   .     A
C846   O931    1.378   .     S
C847   O933    1.377   .     S
C847   N865    1.365   .     A
C848   N866    1.366   .     A
C848   O935    1.378   .     S
C848   C638    1.441   1_655 S
C849   O871    1.295   .     A
C849   C851    1.456   .     S
C849   O873    1.289   .     A
C850   O874    1.295   .     A
C850   O872    1.301   .     A
C850   C852    1.465   .     S
C851   C855    1.392   .     A
C851   C857    1.395   .     A
C852   C858    1.414   .     A
C852   C856    1.406   .     A
C853   C861    1.423   .     A
C853   C855    1.405   .     A
C853   O895    1.387   .     S
C854   C856    1.390   .     A
C854   O900    1.383   .     S
C854   C862    1.409   .     A
C855   O893    1.381   .     S
C856   O891    1.379   .     S
C857   O889    1.384   .     S
C857   C859    1.414   .     A
C858   O887    1.381   .     S
C858   C860    1.417   .     A
C859   C861    1.414   .     A
C859   C863    1.389   .     A
C860   C864    1.427   .     A
C860   C862    1.421   .     A
C861   C1773   1.421   .     S
C862   C1774   1.402   1_554 S
C863   C1800   1.398   .     S
C864   C1799   1.398   1_554 S
N865   Zn875   2.018   .     S
N866   Zn876   2.018   .     S
O867   Zn875   1.988   .     S
O868   Zn876   1.988   .     S
O869   Zn876   2.014   .     S
O870   Zn875   2.014   .     S
O871   Zn875   1.959   .     S
O872   Zn876   1.959   .     S
O873   Zn876   2.013   .     S
O874   Zn875   2.013   .     S
O877   C878    1.410   .     S
C878   H881    1.114   .     S
C878   H880    1.108   .     S
C878   H1815   1.113   1_554 S
H879   C1814   1.113   .     S
O882   C883    1.411   .     S
C883   H886    1.113   .     S
C883   H1820   1.113   .     S
H884   C1819   1.113   1_554 S
H885   C259    1.108   1_565 S
O887   H888    0.990   .     S
O889   H890    0.990   .     S
O891   H892    0.992   .     S
O893   H894    0.992   .     S
C896   H899    1.101   .     S
C896   H897    1.108   .     S
C896   O687    1.431   1_655 S
C896   H690    1.115   1_655 S
O900   C901    1.419   .     S
C901   H694    1.107   1_655 S
C901   H1839   1.115   1_554 S
C901   H1632   1.107   1_654 S
H903   C1837   1.115   .     S
H904   C1733   1.107   .     S
O905   H906    0.990   .     S
O907   H908    0.990   .     S
O909   C910    1.420   .     S
C910   H912    1.107   .     S
C910   H911    1.109   .     S
C910   H913    1.113   .     S
O914   C915    1.421   .     S
C915   H916    1.109   .     S
C915   H917    1.115   .     S
C915   H918    1.107   .     S
O919   C920    1.412   .     S
C920   H923    1.108   .     S
C920   H922    1.114   .     S
C920   H921    1.110   .     S
O924   C925    1.413   .     S
C925   H926    1.113   .     S
C925   H927    1.110   .     S
C925   H928    1.108   .     S
O929   H930    0.990   .     S
O931   H932    0.990   .     S
O933   H934    0.988   .     S
O935   H936    0.990   .     S
C937   O973    1.282   .     A
C937   C948    1.428   .     S
C937   O971    1.293   .     A
C938   C947    1.428   .     S
C938   O974    1.283   .     A
C938   O972    1.292   .     A
C939   C968    1.426   .     A
C939   O1009   1.379   .     S
C939   C941    1.421   .     A
C940   O1011   1.383   .     S
C940   C942    1.407   .     A
C940   C967    1.402   .     A
C941   O981    1.380   .     S
C942   O986    1.379   .     S
C942   C30     1.402   1_556 S
C943   O1013   1.386   .     S
C943   C948    1.412   .     A
C943   C1257   1.389   .     S
C944   O1018   1.385   .     S
C944   C947    1.409   .     A
C944   C1570   1.385   1_545 S
C945   C947    1.403   .     A
C945   O1023   1.391   .     S
C945   C1567   1.389   1_545 S
C946   O1028   1.392   .     S
C946   C948    1.403   .     A
C946   C1256   1.385   .     S
C949   N970    1.371   .     A
C949   O1033   1.377   .     S
C949   C1055   1.442   .     S
C950   N969    1.370   .     A
C950   O1035   1.378   .     S
C950   C1160   1.441   1_455 S
C951   O1037   1.377   .     S
C951   N969    1.365   .     A
C951   C1157   1.442   1_455 S
C952   N970    1.366   .     A
C952   O1039   1.378   .     S
C952   C1054   1.441   .     S
C953   O975    1.295   .     A
C953   C955    1.456   .     S
C953   O977    1.289   .     A
C954   O978    1.295   .     A
C954   O976    1.301   .     A
C954   C956    1.465   .     S
C955   C959    1.392   .     A
C955   C961    1.395   .     A
C956   C962    1.414   .     A
C956   C960    1.406   .     A
C957   C965    1.423   .     A
C957   C959    1.405   .     A
C957   O999    1.387   .     S
C958   C960    1.390   .     A
C958   O1004   1.383   .     S
C958   C966    1.409   .     A
C959   O997    1.381   .     S
C960   O995    1.379   .     S
C961   O993    1.384   .     S
C961   C963    1.414   .     A
C962   O991    1.381   .     S
C962   C964    1.417   .     A
C963   C965    1.414   .     A
C963   C967    1.389   .     A
C964   C968    1.427   .     A
C964   C966    1.421   .     A
C965   C5      1.421   1_556 S
C967   C32     1.398   1_556 S
N969   Zn979   2.018   .     S
N970   Zn980   2.018   .     S
O971   Zn979   1.988   .     S
O972   Zn980   1.988   .     S
O973   Zn980   2.014   .     S
O974   Zn979   2.014   .     S
O975   Zn979   1.959   .     S
O976   Zn980   1.959   .     S
O977   Zn980   2.013   .     S
O978   Zn979   2.013   .     S
O981   C982    1.410   .     S
C982   H985    1.114   .     S
C982   H984    1.108   .     S
H983   C46     1.113   1_556 S
O986   C987    1.411   .     S
C987   H990    1.113   .     S
C987   H52     1.113   1_556 S
C987   H1613   1.108   1_545 S
H989   C1299   1.108   .     S
O991   H992    0.990   .     S
O993   H994    0.990   .     S
O995   H996    0.992   .     S
O997   H998    0.992   .     S
O999   C1208   1.431   1_455 S
C1000  H1003   1.101   .     S
C1000  H1001   1.108   .     S
C1000  O1103   1.431   .     S
C1000  H1106   1.115   .     S
H1002  C1208   1.115   1_455 S
O1004  C1005   1.419   .     S
C1005  H1110   1.107   .     S
H1006  C1213   1.107   1_455 S
H1007  C69     1.115   1_556 S
H1008  C277    1.107   1_456 S
O1009  H1010   0.990   .     S
O1011  H1012   0.990   .     S
O1013  C1014   1.420   .     S
C1014  H1016   1.107   .     S
C1014  H1015   1.109   .     S
C1014  H1017   1.113   .     S
O1018  C1019   1.421   .     S
C1019  H1020   1.109   .     S
C1019  H1021   1.115   .     S
C1019  H1022   1.107   .     S
O1023  C1024   1.412   .     S
C1024  H1027   1.108   .     S
C1024  H1026   1.114   .     S
C1024  H1025   1.110   .     S
O1028  C1029   1.413   .     S
C1029  H1030   1.113   .     S
C1029  H1031   1.110   .     S
C1029  H1032   1.108   .     S
O1033  H1034   0.990   .     S
O1035  H1036   0.990   .     S
O1037  H1038   0.988   .     S
O1039  H1040   0.990   .     S
C1041  O1077   1.282   .     A
C1041  C1052   1.428   .     S
C1041  O1075   1.293   .     A
C1042  C1051   1.428   .     S
C1042  O1078   1.283   .     A
C1042  O1076   1.292   .     A
C1043  C1072   1.426   .     A
C1043  O1113   1.379   .     S
C1043  C1045   1.421   .     A
C1044  O1115   1.383   .     S
C1044  C1046   1.407   .     A
C1044  C1071   1.402   .     A
C1045  O1085   1.380   .     S
C1046  O1090   1.379   .     S
C1046  C134    1.402   1_556 S
C1047  O1117   1.386   .     S
C1047  C1052   1.412   .     A
C1047  C1361   1.389   .     S
C1048  O1122   1.385   .     S
C1048  C1051   1.409   .     A
C1048  C1674   1.385   1_545 S
C1049  C1051   1.403   .     A
C1049  O1127   1.391   .     S
C1049  C1671   1.389   1_545 S
C1050  O1132   1.392   .     S
C1050  C1052   1.403   .     A
C1050  C1360   1.385   .     S
C1053  N1074   1.371   .     A
C1053  O1137   1.377   .     S
C1053  C1159   1.442   .     S
C1054  N1073   1.370   .     A
C1054  O1139   1.378   .     S
C1055  O1141   1.377   .     S
C1055  N1073   1.365   .     A
C1056  N1074   1.366   .     A
C1056  O1143   1.378   .     S
C1056  C1158   1.441   .     S
C1057  O1079   1.295   .     A
C1057  C1059   1.456   .     S
C1057  O1081   1.289   .     A
C1058  O1082   1.295   .     A
C1058  O1080   1.301   .     A
C1058  C1060   1.465   .     S
C1059  C1063   1.392   .     A
C1059  C1065   1.395   .     A
C1060  C1066   1.414   .     A
C1060  C1064   1.406   .     A
C1061  C1069   1.423   .     A
C1061  C1063   1.405   .     A
C1061  O1103   1.387   .     S
C1062  C1064   1.390   .     A
C1062  O1108   1.383   .     S
C1062  C1070   1.409   .     A
C1063  O1101   1.381   .     S
C1064  O1099   1.379   .     S
C1065  O1097   1.384   .     S
C1065  C1067   1.414   .     A
C1066  O1095   1.381   .     S
C1066  C1068   1.417   .     A
C1067  C1069   1.414   .     A
C1067  C1071   1.389   .     A
C1068  C1072   1.427   .     A
C1068  C1070   1.421   .     A
C1069  C109    1.421   1_556 S
C1071  C136    1.398   1_556 S
N1073  Zn1083  2.018   .     S
N1074  Zn1084  2.018   .     S
O1075  Zn1083  1.988   .     S
O1076  Zn1084  1.988   .     S
O1077  Zn1084  2.014   .     S
O1078  Zn1083  2.014   .     S
O1079  Zn1083  1.959   .     S
O1080  Zn1084  1.959   .     S
O1081  Zn1084  2.013   .     S
O1082  Zn1083  2.013   .     S
O1085  C1086   1.410   .     S
C1086  H1089   1.114   .     S
C1086  H1088   1.108   .     S
H1087  C150    1.113   1_556 S
O1090  C1091   1.411   .     S
C1091  H1094   1.113   .     S
C1091  H156    1.113   1_556 S
C1091  H1717   1.108   1_545 S
H1093  C1403   1.108   .     S
O1095  H1096   0.990   .     S
O1097  H1098   0.990   .     S
O1099  H1100   0.992   .     S
O1101  H1102   0.992   .     S
C1104  H1107   1.101   .     S
C1104  H1105   1.108   .     S
C1104  O1207   1.431   .     S
C1104  H1210   1.115   .     S
O1108  C1109   1.419   .     S
C1109  H1214   1.107   .     S
H1111  C173    1.115   1_556 S
H1112  C69     1.107   1_556 S
O1113  H1114   0.990   .     S
O1115  H1116   0.990   .     S
O1117  C1118   1.420   .     S
C1118  H1120   1.107   .     S
C1118  H1119   1.109   .     S
C1118  H1121   1.113   .     S
O1122  C1123   1.421   .     S
C1123  H1124   1.109   .     S
C1123  H1125   1.115   .     S
C1123  H1126   1.107   .     S
O1127  C1128   1.412   .     S
C1128  H1131   1.108   .     S
C1128  H1130   1.114   .     S
C1128  H1129   1.110   .     S
O1132  C1133   1.413   .     S
C1133  H1134   1.113   .     S
C1133  H1135   1.110   .     S
C1133  H1136   1.108   .     S
O1137  H1138   0.990   .     S
O1139  H1140   0.990   .     S
O1141  H1142   0.988   .     S
O1143  H1144   0.990   .     S
C1145  O1181   1.282   .     A
C1145  C1156   1.428   .     S
C1145  O1179   1.293   .     A
C1146  C1155   1.428   .     S
C1146  O1182   1.283   .     A
C1146  O1180   1.292   .     A
C1147  C1176   1.426   .     A
C1147  O1217   1.379   .     S
C1147  C1149   1.421   .     A
C1148  O1219   1.383   .     S
C1148  C1150   1.407   .     A
C1148  C1175   1.402   .     A
C1149  O1189   1.380   .     S
C1150  O1194   1.379   .     S
C1150  C238    1.402   1_556 S
C1151  O1221   1.386   .     S
C1151  C1156   1.412   .     A
C1151  C1465   1.389   .     S
C1152  O1226   1.385   .     S
C1152  C1155   1.409   .     A
C1152  C1778   1.385   1_545 S
C1153  C1155   1.403   .     A
C1153  O1231   1.391   .     S
C1153  C1775   1.389   1_545 S
C1154  O1236   1.392   .     S
C1154  C1156   1.403   .     A
C1154  C1464   1.385   .     S
C1157  N1178   1.371   .     A
C1157  O1241   1.377   .     S
C1157  C951    1.442   1_655 S
C1158  N1177   1.370   .     A
C1158  O1243   1.378   .     S
C1159  O1245   1.377   .     S
C1159  N1177   1.365   .     A
C1160  N1178   1.366   .     A
C1160  O1247   1.378   .     S
C1160  C950    1.441   1_655 S
C1161  O1183   1.295   .     A
C1161  C1163   1.456   .     S
C1161  O1185   1.289   .     A
C1162  O1186   1.295   .     A
C1162  O1184   1.301   .     A
C1162  C1164   1.465   .     S
C1163  C1167   1.392   .     A
C1163  C1169   1.395   .     A
C1164  C1170   1.414   .     A
C1164  C1168   1.406   .     A
C1165  C1173   1.423   .     A
C1165  C1167   1.405   .     A
C1165  O1207   1.387   .     S
C1166  C1168   1.390   .     A
C1166  O1212   1.383   .     S
C1166  C1174   1.409   .     A
C1167  O1205   1.381   .     S
C1168  O1203   1.379   .     S
C1169  O1201   1.384   .     S
C1169  C1171   1.414   .     A
C1170  O1199   1.381   .     S
C1170  C1172   1.417   .     A
C1171  C1173   1.414   .     A
C1171  C1175   1.389   .     A
C1172  C1176   1.427   .     A
C1172  C1174   1.421   .     A
C1173  C213    1.421   1_556 S
C1175  C240    1.398   1_556 S
N1177  Zn1187  2.018   .     S
N1178  Zn1188  2.018   .     S
O1179  Zn1187  1.988   .     S
O1180  Zn1188  1.988   .     S
O1181  Zn1188  2.014   .     S
O1182  Zn1187  2.014   .     S
O1183  Zn1187  1.959   .     S
O1184  Zn1188  1.959   .     S
O1185  Zn1188  2.013   .     S
O1186  Zn1187  2.013   .     S
O1189  C1190   1.410   .     S
C1190  H1193   1.114   .     S
C1190  H1192   1.108   .     S
H1191  C254    1.113   1_556 S
O1194  C1195   1.411   .     S
C1195  H1198   1.113   .     S
C1195  H260    1.113   1_556 S
C1195  H1821   1.108   1_545 S
H1197  C1507   1.108   .     S
O1199  H1200   0.990   .     S
O1201  H1202   0.990   .     S
O1203  H1204   0.992   .     S
O1205  H1206   0.992   .     S
C1208  H1211   1.101   .     S
C1208  H1209   1.108   .     S
C1208  O999    1.431   1_655 S
C1208  H1002   1.115   1_655 S
O1212  C1213   1.419   .     S
C1213  H1006   1.107   1_655 S
C1213  H72     1.107   1_655 S
H1215  C277    1.115   1_556 S
H1216  C173    1.107   1_556 S
O1217  H1218   0.990   .     S
O1219  H1220   0.990   .     S
O1221  C1222   1.420   .     S
C1222  H1224   1.107   .     S
C1222  H1223   1.109   .     S
C1222  H1225   1.113   .     S
O1226  C1227   1.421   .     S
C1227  H1228   1.109   .     S
C1227  H1229   1.115   .     S
C1227  H1230   1.107   .     S
O1231  C1232   1.412   .     S
C1232  H1235   1.108   .     S
C1232  H1234   1.114   .     S
C1232  H1233   1.110   .     S
O1236  C1237   1.413   .     S
C1237  H1238   1.113   .     S
C1237  H1239   1.110   .     S
C1237  H1240   1.108   .     S
O1241  H1242   0.990   .     S
O1243  H1244   0.990   .     S
O1245  H1246   0.988   .     S
O1247  H1248   0.990   .     S
C1249  O1285   1.282   .     A
C1249  C1260   1.428   .     S
C1249  O1283   1.293   .     A
C1250  C1259   1.428   .     S
C1250  O1286   1.283   .     A
C1250  O1284   1.292   .     A
C1251  C1280   1.426   .     A
C1251  O1321   1.379   .     S
C1251  C1253   1.421   .     A
C1252  O1323   1.383   .     S
C1252  C1254   1.407   .     A
C1252  C1279   1.402   .     A
C1253  O1293   1.380   .     S
C1254  O1298   1.379   .     S
C1254  C342    1.402   1_556 S
C1255  O1325   1.386   .     S
C1255  C1260   1.412   .     A
C1255  C1569   1.389   .     S
C1256  O1330   1.385   .     S
C1256  C1259   1.409   .     A
C1257  C1259   1.403   .     A
C1257  O1335   1.391   .     S
C1258  O1340   1.392   .     S
C1258  C1260   1.403   .     A
C1258  C1568   1.385   .     S
C1261  N1282   1.371   .     A
C1261  O1345   1.377   .     S
C1261  C1367   1.442   .     S
C1262  N1281   1.370   .     A
C1262  O1347   1.378   .     S
C1262  C1472   1.441   1_455 S
C1263  O1349   1.377   .     S
C1263  N1281   1.365   .     A
C1263  C1469   1.442   1_455 S
C1264  N1282   1.366   .     A
C1264  O1351   1.378   .     S
C1264  C1366   1.441   .     S
C1265  O1287   1.295   .     A
C1265  C1267   1.456   .     S
C1265  O1289   1.289   .     A
C1266  O1290   1.295   .     A
C1266  O1288   1.301   .     A
C1266  C1268   1.465   .     S
C1267  C1271   1.392   .     A
C1267  C1273   1.395   .     A
C1268  C1274   1.414   .     A
C1268  C1272   1.406   .     A
C1269  C1277   1.423   .     A
C1269  C1271   1.405   .     A
C1269  O1311   1.387   .     S
C1270  C1272   1.390   .     A
C1270  O1316   1.383   .     S
C1270  C1278   1.409   .     A
C1271  O1309   1.381   .     S
C1272  O1307   1.379   .     S
C1273  O1305   1.384   .     S
C1273  C1275   1.414   .     A
C1274  O1303   1.381   .     S
C1274  C1276   1.417   .     A
C1275  C1277   1.414   .     A
C1275  C1279   1.389   .     A
C1276  C1280   1.427   .     A
C1276  C1278   1.421   .     A
C1277  C317    1.421   1_556 S
C1279  C344    1.398   1_556 S
N1281  Zn1291  2.018   .     S
N1282  Zn1292  2.018   .     S
O1283  Zn1291  1.988   .     S
O1284  Zn1292  1.988   .     S
O1285  Zn1292  2.014   .     S
O1286  Zn1291  2.014   .     S
O1287  Zn1291  1.959   .     S
O1288  Zn1292  1.959   .     S
O1289  Zn1292  2.013   .     S
O1290  Zn1291  2.013   .     S
O1293  C1294   1.410   .     S
C1294  H1297   1.114   .     S
C1294  H1296   1.108   .     S
H1295  C358    1.113   1_556 S
O1298  C1299   1.411   .     S
C1299  H1302   1.113   .     S
C1299  H364    1.113   1_556 S
H1301  C1611   1.108   .     S
O1303  H1304   0.990   .     S
O1305  H1306   0.990   .     S
O1307  H1308   0.992   .     S
O1309  H1310   0.992   .     S
O1311  C1520   1.431   1_455 S
C1312  H1315   1.101   .     S
C1312  H1313   1.108   .     S
C1312  O1415   1.431   .     S
C1312  H1418   1.115   .     S
H1314  C1520   1.115   1_455 S
O1316  C1317   1.419   .     S
C1317  H1422   1.107   .     S
H1318  C1525   1.107   1_455 S
H1319  C381    1.115   1_556 S
H1320  C589    1.107   1_456 S
O1321  H1322   0.990   .     S
O1323  H1324   0.990   .     S
O1325  C1326   1.420   .     S
C1326  H1328   1.107   .     S
C1326  H1327   1.109   .     S
C1326  H1329   1.113   .     S
O1330  C1331   1.421   .     S
C1331  H1332   1.109   .     S
C1331  H1333   1.115   .     S
C1331  H1334   1.107   .     S
O1335  C1336   1.412   .     S
C1336  H1339   1.108   .     S
C1336  H1338   1.114   .     S
C1336  H1337   1.110   .     S
O1340  C1341   1.413   .     S
C1341  H1342   1.113   .     S
C1341  H1343   1.110   .     S
C1341  H1344   1.108   .     S
O1345  H1346   0.990   .     S
O1347  H1348   0.990   .     S
O1349  H1350   0.988   .     S
O1351  H1352   0.990   .     S
C1353  O1389   1.282   .     A
C1353  C1364   1.428   .     S
C1353  O1387   1.293   .     A
C1354  C1363   1.428   .     S
C1354  O1390   1.283   .     A
C1354  O1388   1.292   .     A
C1355  C1384   1.426   .     A
C1355  O1425   1.379   .     S
C1355  C1357   1.421   .     A
C1356  O1427   1.383   .     S
C1356  C1358   1.407   .     A
C1356  C1383   1.402   .     A
C1357  O1397   1.380   .     S
C1358  O1402   1.379   .     S
C1358  C446    1.402   1_556 S
C1359  O1429   1.386   .     S
C1359  C1364   1.412   .     A
C1359  C1673   1.389   .     S
C1360  O1434   1.385   .     S
C1360  C1363   1.409   .     A
C1361  C1363   1.403   .     A
C1361  O1439   1.391   .     S
C1362  O1444   1.392   .     S
C1362  C1364   1.403   .     A
C1362  C1672   1.385   .     S
C1365  N1386   1.371   .     A
C1365  O1449   1.377   .     S
C1365  C1471   1.442   .     S
C1366  N1385   1.370   .     A
C1366  O1451   1.378   .     S
C1367  O1453   1.377   .     S
C1367  N1385   1.365   .     A
C1368  N1386   1.366   .     A
C1368  O1455   1.378   .     S
C1368  C1470   1.441   .     S
C1369  O1391   1.295   .     A
C1369  C1371   1.456   .     S
C1369  O1393   1.289   .     A
C1370  O1394   1.295   .     A
C1370  O1392   1.301   .     A
C1370  C1372   1.465   .     S
C1371  C1375   1.392   .     A
C1371  C1377   1.395   .     A
C1372  C1378   1.414   .     A
C1372  C1376   1.406   .     A
C1373  C1381   1.423   .     A
C1373  C1375   1.405   .     A
C1373  O1415   1.387   .     S
C1374  C1376   1.390   .     A
C1374  O1420   1.383   .     S
C1374  C1382   1.409   .     A
C1375  O1413   1.381   .     S
C1376  O1411   1.379   .     S
C1377  O1409   1.384   .     S
C1377  C1379   1.414   .     A
C1378  O1407   1.381   .     S
C1378  C1380   1.417   .     A
C1379  C1381   1.414   .     A
C1379  C1383   1.389   .     A
C1380  C1384   1.427   .     A
C1380  C1382   1.421   .     A
C1381  C421    1.421   1_556 S
C1383  C448    1.398   1_556 S
N1385  Zn1395  2.018   .     S
N1386  Zn1396  2.018   .     S
O1387  Zn1395  1.988   .     S
O1388  Zn1396  1.988   .     S
O1389  Zn1396  2.014   .     S
O1390  Zn1395  2.014   .     S
O1391  Zn1395  1.959   .     S
O1392  Zn1396  1.959   .     S
O1393  Zn1396  2.013   .     S
O1394  Zn1395  2.013   .     S
O1397  C1398   1.410   .     S
C1398  H1401   1.114   .     S
C1398  H1400   1.108   .     S
H1399  C462    1.113   1_556 S
O1402  C1403   1.411   .     S
C1403  H1406   1.113   .     S
C1403  H468    1.113   1_556 S
H1405  C1715   1.108   .     S
O1407  H1408   0.990   .     S
O1409  H1410   0.990   .     S
O1411  H1412   0.992   .     S
O1413  H1414   0.992   .     S
C1416  H1419   1.101   .     S
C1416  H1417   1.108   .     S
C1416  O1519   1.431   .     S
C1416  H1522   1.115   .     S
O1420  C1421   1.419   .     S
C1421  H1526   1.107   .     S
H1423  C485    1.115   1_556 S
H1424  C381    1.107   1_556 S
O1425  H1426   0.990   .     S
O1427  H1428   0.990   .     S
O1429  C1430   1.420   .     S
C1430  H1432   1.107   .     S
C1430  H1431   1.109   .     S
C1430  H1433   1.113   .     S
O1434  C1435   1.421   .     S
C1435  H1436   1.109   .     S
C1435  H1437   1.115   .     S
C1435  H1438   1.107   .     S
O1439  C1440   1.412   .     S
C1440  H1443   1.108   .     S
C1440  H1442   1.114   .     S
C1440  H1441   1.110   .     S
O1444  C1445   1.413   .     S
C1445  H1446   1.113   .     S
C1445  H1447   1.110   .     S
C1445  H1448   1.108   .     S
O1449  H1450   0.990   .     S
O1451  H1452   0.990   .     S
O1453  H1454   0.988   .     S
O1455  H1456   0.990   .     S
C1457  O1493   1.282   .     A
C1457  C1468   1.428   .     S
C1457  O1491   1.293   .     A
C1458  C1467   1.428   .     S
C1458  O1494   1.283   .     A
C1458  O1492   1.292   .     A
C1459  C1488   1.426   .     A
C1459  O1529   1.379   .     S
C1459  C1461   1.421   .     A
C1460  O1531   1.383   .     S
C1460  C1462   1.407   .     A
C1460  C1487   1.402   .     A
C1461  O1501   1.380   .     S
C1462  O1506   1.379   .     S
C1462  C550    1.402   1_556 S
C1463  O1533   1.386   .     S
C1463  C1468   1.412   .     A
C1463  C1777   1.389   .     S
C1464  O1538   1.385   .     S
C1464  C1467   1.409   .     A
C1465  C1467   1.403   .     A
C1465  O1543   1.391   .     S
C1466  O1548   1.392   .     S
C1466  C1468   1.403   .     A
C1466  C1776   1.385   .     S
C1469  N1490   1.371   .     A
C1469  O1553   1.377   .     S
C1469  C1263   1.442   1_655 S
C1470  N1489   1.370   .     A
C1470  O1555   1.378   .     S
C1471  O1557   1.377   .     S
C1471  N1489   1.365   .     A
C1472  N1490   1.366   .     A
C1472  O1559   1.378   .     S
C1472  C1262   1.441   1_655 S
C1473  O1495   1.295   .     A
C1473  C1475   1.456   .     S
C1473  O1497   1.289   .     A
C1474  O1498   1.295   .     A
C1474  O1496   1.301   .     A
C1474  C1476   1.465   .     S
C1475  C1479   1.392   .     A
C1475  C1481   1.395   .     A
C1476  C1482   1.414   .     A
C1476  C1480   1.406   .     A
C1477  C1485   1.423   .     A
C1477  C1479   1.405   .     A
C1477  O1519   1.387   .     S
C1478  C1480   1.390   .     A
C1478  O1524   1.383   .     S
C1478  C1486   1.409   .     A
C1479  O1517   1.381   .     S
C1480  O1515   1.379   .     S
C1481  O1513   1.384   .     S
C1481  C1483   1.414   .     A
C1482  O1511   1.381   .     S
C1482  C1484   1.417   .     A
C1483  C1485   1.414   .     A
C1483  C1487   1.389   .     A
C1484  C1488   1.427   .     A
C1484  C1486   1.421   .     A
C1485  C525    1.421   1_556 S
C1487  C552    1.398   1_556 S
N1489  Zn1499  2.018   .     S
N1490  Zn1500  2.018   .     S
O1491  Zn1499  1.988   .     S
O1492  Zn1500  1.988   .     S
O1493  Zn1500  2.014   .     S
O1494  Zn1499  2.014   .     S
O1495  Zn1499  1.959   .     S
O1496  Zn1500  1.959   .     S
O1497  Zn1500  2.013   .     S
O1498  Zn1499  2.013   .     S
O1501  C1502   1.410   .     S
C1502  H1505   1.114   .     S
C1502  H1504   1.108   .     S
H1503  C566    1.113   1_556 S
O1506  C1507   1.411   .     S
C1507  H1510   1.113   .     S
C1507  H572    1.113   1_556 S
H1509  C1819   1.108   .     S
O1511  H1512   0.990   .     S
O1513  H1514   0.990   .     S
O1515  H1516   0.992   .     S
O1517  H1518   0.992   .     S
C1520  H1523   1.101   .     S
C1520  H1521   1.108   .     S
C1520  O1311   1.431   1_655 S
C1520  H1314   1.115   1_655 S
O1524  C1525   1.419   .     S
C1525  H1318   1.107   1_655 S
C1525  H384    1.107   1_655 S
H1527  C589    1.115   1_556 S
H1528  C485    1.107   1_556 S
O1529  H1530   0.990   .     S
O1531  H1532   0.990   .     S
O1533  C1534   1.420   .     S
C1534  H1536   1.107   .     S
C1534  H1535   1.109   .     S
C1534  H1537   1.113   .     S
O1538  C1539   1.421   .     S
C1539  H1540   1.109   .     S
C1539  H1541   1.115   .     S
C1539  H1542   1.107   .     S
O1543  C1544   1.412   .     S
C1544  H1547   1.108   .     S
C1544  H1546   1.114   .     S
C1544  H1545   1.110   .     S
O1548  C1549   1.413   .     S
C1549  H1550   1.113   .     S
C1549  H1551   1.110   .     S
C1549  H1552   1.108   .     S
O1553  H1554   0.990   .     S
O1555  H1556   0.990   .     S
O1557  H1558   0.988   .     S
O1559  H1560   0.990   .     S
C1561  O1597   1.282   .     A
C1561  C1572   1.428   .     S
C1561  O1595   1.293   .     A
C1562  C1571   1.428   .     S
C1562  O1598   1.283   .     A
C1562  O1596   1.292   .     A
C1563  C1592   1.426   .     A
C1563  O1633   1.379   .     S
C1563  C1565   1.421   .     A
C1564  O1635   1.383   .     S
C1564  C1566   1.407   .     A
C1564  C1591   1.402   .     A
C1565  O1605   1.380   .     S
C1566  O1610   1.379   .     S
C1566  C654    1.402   1_556 S
C1567  O1637   1.386   .     S
C1567  C1572   1.412   .     A
C1567  C945    1.389   1_565 S
C1568  O1642   1.385   .     S
C1568  C1571   1.409   .     A
C1569  C1571   1.403   .     A
C1569  O1647   1.391   .     S
C1570  O1652   1.392   .     S
C1570  C1572   1.403   .     A
C1570  C944    1.385   1_565 S
C1573  N1594   1.371   .     A
C1573  O1657   1.377   .     S
C1573  C1679   1.442   .     S
C1574  N1593   1.370   .     A
C1574  O1659   1.378   .     S
C1574  C1784   1.441   1_455 S
C1575  O1661   1.377   .     S
C1575  N1593   1.365   .     A
C1575  C1781   1.442   1_455 S
C1576  N1594   1.366   .     A
C1576  O1663   1.378   .     S
C1576  C1678   1.441   .     S
C1577  O1599   1.295   .     A
C1577  C1579   1.456   .     S
C1577  O1601   1.289   .     A
C1578  O1602   1.295   .     A
C1578  O1600   1.301   .     A
C1578  C1580   1.465   .     S
C1579  C1583   1.392   .     A
C1579  C1585   1.395   .     A
C1580  C1586   1.414   .     A
C1580  C1584   1.406   .     A
C1581  C1589   1.423   .     A
C1581  C1583   1.405   .     A
C1581  O1623   1.387   .     S
C1582  C1584   1.390   .     A
C1582  O1628   1.383   .     S
C1582  C1590   1.409   .     A
C1583  O1621   1.381   .     S
C1584  O1619   1.379   .     S
C1585  O1617   1.384   .     S
C1585  C1587   1.414   .     A
C1586  O1615   1.381   .     S
C1586  C1588   1.417   .     A
C1587  C1589   1.414   .     A
C1587  C1591   1.389   .     A
C1588  C1592   1.427   .     A
C1588  C1590   1.421   .     A
C1589  C629    1.421   1_556 S
C1591  C656    1.398   1_556 S
N1593  Zn1603  2.018   .     S
N1594  Zn1604  2.018   .     S
O1595  Zn1603  1.988   .     S
O1596  Zn1604  1.988   .     S
O1597  Zn1604  2.014   .     S
O1598  Zn1603  2.014   .     S
O1599  Zn1603  1.959   .     S
O1600  Zn1604  1.959   .     S
O1601  Zn1604  2.013   .     S
O1602  Zn1603  2.013   .     S
O1605  C1606   1.410   .     S
C1606  H1609   1.114   .     S
C1606  H1608   1.108   .     S
H1607  C670    1.113   1_556 S
O1610  C1611   1.411   .     S
C1611  H1614   1.113   .     S
C1611  H676    1.113   1_556 S
H1613  C987    1.108   1_565 S
O1615  H1616   0.990   .     S
O1617  H1618   0.990   .     S
O1619  H1620   0.992   .     S
O1621  H1622   0.992   .     S
O1623  C1832   1.431   1_455 S
C1624  H1627   1.101   .     S
C1624  H1625   1.108   .     S
C1624  O1727   1.431   .     S
C1624  H1730   1.115   .     S
H1626  C1832   1.115   1_455 S
O1628  C1629   1.419   .     S
C1629  H1734   1.107   .     S
H1630  C1837   1.107   1_455 S
H1631  C693    1.115   1_556 S
H1632  C901    1.107   1_456 S
O1633  H1634   0.990   .     S
O1635  H1636   0.990   .     S
O1637  C1638   1.420   .     S
C1638  H1640   1.107   .     S
C1638  H1639   1.109   .     S
C1638  H1641   1.113   .     S
O1642  C1643   1.421   .     S
C1643  H1644   1.109   .     S
C1643  H1645   1.115   .     S
C1643  H1646   1.107   .     S
O1647  C1648   1.412   .     S
C1648  H1651   1.108   .     S
C1648  H1650   1.114   .     S
C1648  H1649   1.110   .     S
O1652  C1653   1.413   .     S
C1653  H1654   1.113   .     S
C1653  H1655   1.110   .     S
C1653  H1656   1.108   .     S
O1657  H1658   0.990   .     S
O1659  H1660   0.990   .     S
O1661  H1662   0.988   .     S
O1663  H1664   0.990   .     S
C1665  O1701   1.282   .     A
C1665  C1676   1.428   .     S
C1665  O1699   1.293   .     A
C1666  C1675   1.428   .     S
C1666  O1702   1.283   .     A
C1666  O1700   1.292   .     A
C1667  C1696   1.426   .     A
C1667  O1737   1.379   .     S
C1667  C1669   1.421   .     A
C1668  O1739   1.383   .     S
C1668  C1670   1.407   .     A
C1668  C1695   1.402   .     A
C1669  O1709   1.380   .     S
C1670  O1714   1.379   .     S
C1670  C758    1.402   1_556 S
C1671  O1741   1.386   .     S
C1671  C1676   1.412   .     A
C1671  C1049   1.389   1_565 S
C1672  O1746   1.385   .     S
C1672  C1675   1.409   .     A
C1673  C1675   1.403   .     A
C1673  O1751   1.391   .     S
C1674  O1756   1.392   .     S
C1674  C1676   1.403   .     A
C1674  C1048   1.385   1_565 S
C1677  N1698   1.371   .     A
C1677  O1761   1.377   .     S
C1677  C1783   1.442   .     S
C1678  N1697   1.370   .     A
C1678  O1763   1.378   .     S
C1679  O1765   1.377   .     S
C1679  N1697   1.365   .     A
C1680  N1698   1.366   .     A
C1680  O1767   1.378   .     S
C1680  C1782   1.441   .     S
C1681  O1703   1.295   .     A
C1681  C1683   1.456   .     S
C1681  O1705   1.289   .     A
C1682  O1706   1.295   .     A
C1682  O1704   1.301   .     A
C1682  C1684   1.465   .     S
C1683  C1687   1.392   .     A
C1683  C1689   1.395   .     A
C1684  C1690   1.414   .     A
C1684  C1688   1.406   .     A
C1685  C1693   1.423   .     A
C1685  C1687   1.405   .     A
C1685  O1727   1.387   .     S
C1686  C1688   1.390   .     A
C1686  O1732   1.383   .     S
C1686  C1694   1.409   .     A
C1687  O1725   1.381   .     S
C1688  O1723   1.379   .     S
C1689  O1721   1.384   .     S
C1689  C1691   1.414   .     A
C1690  O1719   1.381   .     S
C1690  C1692   1.417   .     A
C1691  C1693   1.414   .     A
C1691  C1695   1.389   .     A
C1692  C1696   1.427   .     A
C1692  C1694   1.421   .     A
C1693  C733    1.421   1_556 S
C1695  C760    1.398   1_556 S
N1697  Zn1707  2.018   .     S
N1698  Zn1708  2.018   .     S
O1699  Zn1707  1.988   .     S
O1700  Zn1708  1.988   .     S
O1701  Zn1708  2.014   .     S
O1702  Zn1707  2.014   .     S
O1703  Zn1707  1.959   .     S
O1704  Zn1708  1.959   .     S
O1705  Zn1708  2.013   .     S
O1706  Zn1707  2.013   .     S
O1709  C1710   1.410   .     S
C1710  H1713   1.114   .     S
C1710  H1712   1.108   .     S
H1711  C774    1.113   1_556 S
O1714  C1715   1.411   .     S
C1715  H1718   1.113   .     S
C1715  H780    1.113   1_556 S
H1717  C1091   1.108   1_565 S
O1719  H1720   0.990   .     S
O1721  H1722   0.990   .     S
O1723  H1724   0.992   .     S
O1725  H1726   0.992   .     S
C1728  H1731   1.101   .     S
C1728  H1729   1.108   .     S
C1728  O1831   1.431   .     S
C1728  H1834   1.115   .     S
O1732  C1733   1.419   .     S
C1733  H1838   1.107   .     S
H1735  C797    1.115   1_556 S
H1736  C693    1.107   1_556 S
O1737  H1738   0.990   .     S
O1739  H1740   0.990   .     S
O1741  C1742   1.420   .     S
C1742  H1744   1.107   .     S
C1742  H1743   1.109   .     S
C1742  H1745   1.113   .     S
O1746  C1747   1.421   .     S
C1747  H1748   1.109   .     S
C1747  H1749   1.115   .     S
C1747  H1750   1.107   .     S
O1751  C1752   1.412   .     S
C1752  H1755   1.108   .     S
C1752  H1754   1.114   .     S
C1752  H1753   1.110   .     S
O1756  C1757   1.413   .     S
C1757  H1758   1.113   .     S
C1757  H1759   1.110   .     S
C1757  H1760   1.108   .     S
O1761  H1762   0.990   .     S
O1763  H1764   0.990   .     S
O1765  H1766   0.988   .     S
O1767  H1768   0.990   .     S
C1769  O1805   1.282   .     A
C1769  C1780   1.428   .     S
C1769  O1803   1.293   .     A
C1770  C1779   1.428   .     S
C1770  O1806   1.283   .     A
C1770  O1804   1.292   .     A
C1771  C1800   1.426   .     A
C1771  O1841   1.379   .     S
C1771  C1773   1.421   .     A
C1772  O1843   1.383   .     S
C1772  C1774   1.407   .     A
C1772  C1799   1.402   .     A
C1773  O1813   1.380   .     S
C1774  O1818   1.379   .     S
C1774  C862    1.402   1_556 S
C1775  O1845   1.386   .     S
C1775  C1780   1.412   .     A
C1775  C1153   1.389   1_565 S
C1776  O1850   1.385   .     S
C1776  C1779   1.409   .     A
C1777  C1779   1.403   .     A
C1777  O1855   1.391   .     S
C1778  O1860   1.392   .     S
C1778  C1780   1.403   .     A
C1778  C1152   1.385   1_565 S
C1781  N1802   1.371   .     A
C1781  O1865   1.377   .     S
C1781  C1575   1.442   1_655 S
C1782  N1801   1.370   .     A
C1782  O1867   1.378   .     S
C1783  O1869   1.377   .     S
C1783  N1801   1.365   .     A
C1784  N1802   1.366   .     A
C1784  O1871   1.378   .     S
C1784  C1574   1.441   1_655 S
C1785  O1807   1.295   .     A
C1785  C1787   1.456   .     S
C1785  O1809   1.289   .     A
C1786  O1810   1.295   .     A
C1786  O1808   1.301   .     A
C1786  C1788   1.465   .     S
C1787  C1791   1.392   .     A
C1787  C1793   1.395   .     A
C1788  C1794   1.414   .     A
C1788  C1792   1.406   .     A
C1789  C1797   1.423   .     A
C1789  C1791   1.405   .     A
C1789  O1831   1.387   .     S
C1790  C1792   1.390   .     A
C1790  O1836   1.383   .     S
C1790  C1798   1.409   .     A
C1791  O1829   1.381   .     S
C1792  O1827   1.379   .     S
C1793  O1825   1.384   .     S
C1793  C1795   1.414   .     A
C1794  O1823   1.381   .     S
C1794  C1796   1.417   .     A
C1795  C1797   1.414   .     A
C1795  C1799   1.389   .     A
C1796  C1800   1.427   .     A
C1796  C1798   1.421   .     A
C1797  C837    1.421   1_556 S
C1799  C864    1.398   1_556 S
N1801  Zn1811  2.018   .     S
N1802  Zn1812  2.018   .     S
O1803  Zn1811  1.988   .     S
O1804  Zn1812  1.988   .     S
O1805  Zn1812  2.014   .     S
O1806  Zn1811  2.014   .     S
O1807  Zn1811  1.959   .     S
O1808  Zn1812  1.959   .     S
O1809  Zn1812  2.013   .     S
O1810  Zn1811  2.013   .     S
O1813  C1814   1.410   .     S
C1814  H1817   1.114   .     S
C1814  H1816   1.108   .     S
H1815  C878    1.113   1_556 S
O1818  C1819   1.411   .     S
C1819  H1822   1.113   .     S
C1819  H884    1.113   1_556 S
H1821  C1195   1.108   1_565 S
O1823  H1824   0.990   .     S
O1825  H1826   0.990   .     S
O1827  H1828   0.992   .     S
O1829  H1830   0.992   .     S
C1832  H1835   1.101   .     S
C1832  H1833   1.108   .     S
C1832  O1623   1.431   1_655 S
C1832  H1626   1.115   1_655 S
O1836  C1837   1.419   .     S
C1837  H1630   1.107   1_655 S
C1837  H696    1.107   1_655 S
H1839  C901    1.115   1_556 S
H1840  C797    1.107   1_556 S
O1841  H1842   0.990   .     S
O1843  H1844   0.990   .     S
O1845  C1846   1.420   .     S
C1846  H1848   1.107   .     S
C1846  H1847   1.109   .     S
C1846  H1849   1.113   .     S
O1850  C1851   1.421   .     S
C1851  H1852   1.109   .     S
C1851  H1853   1.115   .     S
C1851  H1854   1.107   .     S
O1855  C1856   1.412   .     S
C1856  H1859   1.108   .     S
C1856  H1858   1.114   .     S
C1856  H1857   1.110   .     S
O1860  C1861   1.413   .     S
C1861  H1862   1.113   .     S
C1861  H1863   1.110   .     S
C1861  H1864   1.108   .     S
O1865  H1866   0.990   .     S
O1867  H1868   0.990   .     S
O1869  H1870   0.988   .     S
O1871  H1872   0.990   .     S
