data_str_m3_o1_o18_pcu_sym.200
_audit_creation_date              2020-01-03
_audit_creation_method            'Materials Studio'
_symmetry_space_group_name_H-M    'P1'
_symmetry_Int_Tables_number       1
_symmetry_cell_setting            triclinic
loop_
_symmetry_equiv_pos_as_xyz
  x,y,z
_cell_length_a                    29.6797
_cell_length_b                    32.1296
_cell_length_c                    31.0343
_cell_angle_alpha                 90.7189
_cell_angle_beta                  67.9437
_cell_angle_gamma                 90.3591
loop_
_atom_site_label
_atom_site_type_symbol
_atom_site_fract_x
_atom_site_fract_y
_atom_site_fract_z
_atom_site_U_iso_or_equiv
_atom_site_adp_type
_atom_site_occupancy
O1     O     0.12846   0.22775   0.25000   0.00000  Uiso   1.00
O2     O     0.20488   0.10558   0.25000   0.00000  Uiso   1.00
O3     O     0.20490   0.22774   0.25000   0.00000  Uiso   1.00
O4     O     0.12843   0.10559   0.25000   0.00000  Uiso   1.00
C5     C     0.16671   0.24665   0.25015   0.00000  Uiso   1.00
C6     C     0.16662   0.08668   0.24987   0.00000  Uiso   1.00
O7     O     0.10661   0.16667   0.31613   0.00000  Uiso   1.00
O8     O     0.22672   0.16666   0.18387   0.00000  Uiso   1.00
O9     O     0.18305   0.16666   0.31612   0.00000  Uiso   1.00
O10    O     0.15028   0.16667   0.18388   0.00000  Uiso   1.00
C11    C     0.13628   0.16715   0.33788   0.00000  Uiso   1.00
C12    C     0.19709   0.16719   0.16210   0.00000  Uiso   1.00
Zn13   Zn    0.11562   0.16667   0.25000   0.00000  Uiso   1.00
Zn14   Zn    0.21771   0.16666   0.25000   0.00000  Uiso   1.00
C15    C     0.11798   0.17348   0.38803   0.00000  Uiso   1.00
C16    C     0.21624   0.16977   0.11156   0.00000  Uiso   1.00
C17    C     0.06234   0.20617   0.45816   0.00000  Uiso   1.00
C18    C     0.27978   0.15899   0.03617   0.00000  Uiso   1.00
C19    C     0.07371   0.19340   0.41216   0.00000  Uiso   1.00
C20    C     0.26453   0.15985   0.08444   0.00000  Uiso   1.00
C21    C     0.14995   0.16568   0.41011   0.00000  Uiso   1.00
C22    C     0.18442   0.18142   0.09043   0.00000  Uiso   1.00
C23    C     0.14197   0.18232   0.45404   0.00000  Uiso   1.00
C24    C     0.19887   0.18134   0.04217   0.00000  Uiso   1.00
C25    C     0.09639   0.20111   0.47928   0.00000  Uiso   1.00
C26    C     0.24688   0.16833   0.01483   0.00000  Uiso   1.00
C27    C     0.17813   0.18023   0.47340   0.00000  Uiso   1.00
C28    C     0.16544   0.19055   0.02086   0.00000  Uiso   1.00
C29    C     0.11973   0.20943   0.04541   0.00000  Uiso   1.00
C30    C     0.22681   0.16899   0.44653   0.00000  Uiso   1.00
C31    C     0.08603   0.21505   0.02472   0.00000  Uiso   1.00
C32    C     0.26072   0.16359   0.46688   0.00000  Uiso   1.00
H33    H     0.14735   0.18813   0.11251   0.00000  Uiso   1.00
H34    H     0.18177   0.14723   0.39163   0.00000  Uiso   1.00
H35    H     0.28981   0.15124   0.10047   0.00000  Uiso   1.00
H36    H     0.04885   0.20028   0.39509   0.00000  Uiso   1.00
H37    H     0.02777   0.22128   0.47651   0.00000  Uiso   1.00
H38    H     0.31674   0.14959   0.01576   0.00000  Uiso   1.00
H39    H     0.10968   0.22169   0.08027   0.00000  Uiso   1.00
H40    H     0.24013   0.16514   0.40925   0.00000  Uiso   1.00
C41    C     0.21056   0.31216   0.24007   0.00000  Uiso   1.00
C42    C     0.12275   0.02117   0.26000   0.00000  Uiso   1.00
H43    H     0.24478   0.29602   0.23196   0.00000  Uiso   1.00
H44    H     0.08854   0.03730   0.26810   0.00000  Uiso   1.00
C45    C     0.21053   0.02146   0.23980   0.00000  Uiso   1.00
C46    C     0.12279   0.31187   0.26027   0.00000  Uiso   1.00
H47    H     0.24475   0.03780   0.23152   0.00000  Uiso   1.00
H48    H     0.08856   0.29552   0.26855   0.00000  Uiso   1.00
C49    C     0.16661   0.04250   0.24979   0.00000  Uiso   1.00
C50    C     0.16671   0.29083   0.25026   0.00000  Uiso   1.00
C51    C     0.31990   0.14005   0.22187   0.00000  Uiso   1.00
C52    C     0.01342   0.19327   0.27816   0.00000  Uiso   1.00
H53    H     0.31020   0.11880   0.19941   0.00000  Uiso   1.00
H54    H     0.02312   0.21449   0.30064   0.00000  Uiso   1.00
C55    C     0.03431   0.13989   0.22175   0.00000  Uiso   1.00
C56    C     0.29901   0.19343   0.27828   0.00000  Uiso   1.00
N57    N     0.04759   0.16668   0.25001   0.00000  Uiso   1.00
N58    N     0.28574   0.16666   0.24999   0.00000  Uiso   1.00
F59    F     0.04295   0.23369   0.04957   0.00000  Uiso   1.00
F60    F     0.30642   0.15140   0.43978   0.00000  Uiso   1.00
Br61   Br    0.07890   0.10086   0.18080   0.00000  Uiso   1.00
Br62   Br    0.25442   0.23244   0.31927   0.00000  Uiso   1.00
O63    O     0.46179   0.22775   0.25000   0.00000  Uiso   1.00
O64    O     0.53821   0.10558   0.25000   0.00000  Uiso   1.00
O65    O     0.53823   0.22774   0.25000   0.00000  Uiso   1.00
O66    O     0.46177   0.10559   0.25000   0.00000  Uiso   1.00
C67    C     0.50004   0.24665   0.25015   0.00000  Uiso   1.00
C68    C     0.49995   0.08668   0.24987   0.00000  Uiso   1.00
O69    O     0.43994   0.16667   0.31613   0.00000  Uiso   1.00
O70    O     0.56006   0.16666   0.18387   0.00000  Uiso   1.00
O71    O     0.51639   0.16666   0.31612   0.00000  Uiso   1.00
O72    O     0.48361   0.16667   0.18388   0.00000  Uiso   1.00
C73    C     0.46961   0.16715   0.33788   0.00000  Uiso   1.00
C74    C     0.53042   0.16719   0.16210   0.00000  Uiso   1.00
Zn75   Zn    0.44896   0.16667   0.25000   0.00000  Uiso   1.00
Zn76   Zn    0.55104   0.16666   0.25000   0.00000  Uiso   1.00
C77    C     0.45132   0.17348   0.38803   0.00000  Uiso   1.00
C78    C     0.54958   0.16977   0.11156   0.00000  Uiso   1.00
C79    C     0.39567   0.20617   0.45816   0.00000  Uiso   1.00
C80    C     0.61311   0.15899   0.03617   0.00000  Uiso   1.00
C81    C     0.40704   0.19340   0.41216   0.00000  Uiso   1.00
C82    C     0.59786   0.15985   0.08444   0.00000  Uiso   1.00
C83    C     0.48328   0.16568   0.41011   0.00000  Uiso   1.00
C84    C     0.51775   0.18142   0.09043   0.00000  Uiso   1.00
C85    C     0.47531   0.18232   0.45404   0.00000  Uiso   1.00
C86    C     0.53220   0.18134   0.04217   0.00000  Uiso   1.00
C87    C     0.42972   0.20111   0.47928   0.00000  Uiso   1.00
C88    C     0.58021   0.16833   0.01483   0.00000  Uiso   1.00
C89    C     0.51146   0.18023   0.47340   0.00000  Uiso   1.00
C90    C     0.49877   0.19055   0.02086   0.00000  Uiso   1.00
C91    C     0.45307   0.20943   0.04541   0.00000  Uiso   1.00
C92    C     0.56014   0.16899   0.44653   0.00000  Uiso   1.00
C93    C     0.41937   0.21505   0.02472   0.00000  Uiso   1.00
C94    C     0.59405   0.16359   0.46688   0.00000  Uiso   1.00
H95    H     0.48069   0.18813   0.11251   0.00000  Uiso   1.00
H96    H     0.51510   0.14723   0.39163   0.00000  Uiso   1.00
H97    H     0.62314   0.15124   0.10047   0.00000  Uiso   1.00
H98    H     0.38218   0.20028   0.39509   0.00000  Uiso   1.00
H99    H     0.36110   0.22128   0.47651   0.00000  Uiso   1.00
H100   H     0.65007   0.14959   0.01576   0.00000  Uiso   1.00
H101   H     0.44301   0.22169   0.08027   0.00000  Uiso   1.00
H102   H     0.57346   0.16514   0.40925   0.00000  Uiso   1.00
C103   C     0.54390   0.31216   0.24007   0.00000  Uiso   1.00
C104   C     0.45608   0.02117   0.26000   0.00000  Uiso   1.00
H105   H     0.57811   0.29602   0.23196   0.00000  Uiso   1.00
H106   H     0.42187   0.03730   0.26810   0.00000  Uiso   1.00
C107   C     0.54386   0.02146   0.23980   0.00000  Uiso   1.00
C108   C     0.45612   0.31187   0.26027   0.00000  Uiso   1.00
H109   H     0.57808   0.03780   0.23152   0.00000  Uiso   1.00
H110   H     0.42189   0.29552   0.26855   0.00000  Uiso   1.00
C111   C     0.49994   0.04250   0.24979   0.00000  Uiso   1.00
C112   C     0.50004   0.29083   0.25026   0.00000  Uiso   1.00
C113   C     0.65324   0.14005   0.22187   0.00000  Uiso   1.00
C114   C     0.34675   0.19327   0.27816   0.00000  Uiso   1.00
H115   H     0.64353   0.11880   0.19941   0.00000  Uiso   1.00
H116   H     0.35645   0.21449   0.30064   0.00000  Uiso   1.00
C117   C     0.36764   0.13989   0.22175   0.00000  Uiso   1.00
C118   C     0.63235   0.19343   0.27828   0.00000  Uiso   1.00
N119   N     0.38093   0.16668   0.25001   0.00000  Uiso   1.00
N120   N     0.61907   0.16666   0.24999   0.00000  Uiso   1.00
F121   F     0.37629   0.23369   0.04957   0.00000  Uiso   1.00
F122   F     0.63975   0.15140   0.43978   0.00000  Uiso   1.00
Br123  Br    0.41224   0.10086   0.18080   0.00000  Uiso   1.00
Br124  Br    0.58776   0.23244   0.31927   0.00000  Uiso   1.00
O125   O     0.79512   0.22775   0.25000   0.00000  Uiso   1.00
O126   O     0.87154   0.10558   0.25000   0.00000  Uiso   1.00
O127   O     0.87157   0.22774   0.25000   0.00000  Uiso   1.00
O128   O     0.79510   0.10559   0.25000   0.00000  Uiso   1.00
C129   C     0.83338   0.24665   0.25015   0.00000  Uiso   1.00
C130   C     0.83328   0.08668   0.24987   0.00000  Uiso   1.00
O131   O     0.77328   0.16667   0.31613   0.00000  Uiso   1.00
O132   O     0.89339   0.16666   0.18387   0.00000  Uiso   1.00
O133   O     0.84972   0.16666   0.31612   0.00000  Uiso   1.00
O134   O     0.81695   0.16667   0.18388   0.00000  Uiso   1.00
C135   C     0.80294   0.16715   0.33788   0.00000  Uiso   1.00
C136   C     0.86376   0.16719   0.16210   0.00000  Uiso   1.00
Zn137  Zn    0.78229   0.16667   0.25000   0.00000  Uiso   1.00
Zn138  Zn    0.88438   0.16666   0.25000   0.00000  Uiso   1.00
C139   C     0.78465   0.17348   0.38803   0.00000  Uiso   1.00
C140   C     0.88291   0.16977   0.11156   0.00000  Uiso   1.00
C141   C     0.72901   0.20617   0.45816   0.00000  Uiso   1.00
C142   C     0.94645   0.15899   0.03617   0.00000  Uiso   1.00
C143   C     0.74038   0.19340   0.41216   0.00000  Uiso   1.00
C144   C     0.93119   0.15985   0.08444   0.00000  Uiso   1.00
C145   C     0.81661   0.16568   0.41011   0.00000  Uiso   1.00
C146   C     0.85108   0.18142   0.09043   0.00000  Uiso   1.00
C147   C     0.80864   0.18232   0.45404   0.00000  Uiso   1.00
C148   C     0.86553   0.18134   0.04217   0.00000  Uiso   1.00
C149   C     0.76306   0.20111   0.47928   0.00000  Uiso   1.00
C150   C     0.91355   0.16833   0.01483   0.00000  Uiso   1.00
C151   C     0.84480   0.18023   0.47340   0.00000  Uiso   1.00
C152   C     0.83210   0.19055   0.02086   0.00000  Uiso   1.00
C153   C     0.78640   0.20943   0.04541   0.00000  Uiso   1.00
C154   C     0.89347   0.16899   0.44653   0.00000  Uiso   1.00
C155   C     0.75270   0.21505   0.02472   0.00000  Uiso   1.00
C156   C     0.92738   0.16359   0.46688   0.00000  Uiso   1.00
H157   H     0.81402   0.18813   0.11251   0.00000  Uiso   1.00
H158   H     0.84844   0.14723   0.39163   0.00000  Uiso   1.00
H159   H     0.95647   0.15124   0.10047   0.00000  Uiso   1.00
H160   H     0.71551   0.20028   0.39509   0.00000  Uiso   1.00
H161   H     0.69443   0.22128   0.47651   0.00000  Uiso   1.00
H162   H     0.98340   0.14959   0.01576   0.00000  Uiso   1.00
H163   H     0.77634   0.22169   0.08027   0.00000  Uiso   1.00
H164   H     0.90679   0.16514   0.40925   0.00000  Uiso   1.00
C165   C     0.87723   0.31216   0.24007   0.00000  Uiso   1.00
C166   C     0.78941   0.02117   0.26000   0.00000  Uiso   1.00
H167   H     0.91144   0.29602   0.23196   0.00000  Uiso   1.00
H168   H     0.75520   0.03730   0.26810   0.00000  Uiso   1.00
C169   C     0.87719   0.02146   0.23980   0.00000  Uiso   1.00
C170   C     0.78945   0.31187   0.26027   0.00000  Uiso   1.00
H171   H     0.91142   0.03780   0.23152   0.00000  Uiso   1.00
H172   H     0.75523   0.29552   0.26855   0.00000  Uiso   1.00
C173   C     0.83327   0.04250   0.24979   0.00000  Uiso   1.00
C174   C     0.83337   0.29083   0.25026   0.00000  Uiso   1.00
C175   C     0.98657   0.14005   0.22187   0.00000  Uiso   1.00
C176   C     0.68009   0.19327   0.27816   0.00000  Uiso   1.00
H177   H     0.97687   0.11880   0.19941   0.00000  Uiso   1.00
H178   H     0.68978   0.21449   0.30064   0.00000  Uiso   1.00
C179   C     0.70098   0.13989   0.22175   0.00000  Uiso   1.00
C180   C     0.96568   0.19343   0.27828   0.00000  Uiso   1.00
N181   N     0.71426   0.16668   0.25001   0.00000  Uiso   1.00
N182   N     0.95241   0.16666   0.24999   0.00000  Uiso   1.00
F183   F     0.70962   0.23369   0.04957   0.00000  Uiso   1.00
F184   F     0.97309   0.15140   0.43978   0.00000  Uiso   1.00
Br185  Br    0.74557   0.10086   0.18080   0.00000  Uiso   1.00
Br186  Br    0.92109   0.23244   0.31927   0.00000  Uiso   1.00
O187   O     0.12846   0.56108   0.25000   0.00000  Uiso   1.00
O188   O     0.20488   0.43892   0.25000   0.00000  Uiso   1.00
O189   O     0.20490   0.56107   0.25000   0.00000  Uiso   1.00
O190   O     0.12843   0.43893   0.25000   0.00000  Uiso   1.00
C191   C     0.16671   0.57999   0.25015   0.00000  Uiso   1.00
C192   C     0.16662   0.42001   0.24987   0.00000  Uiso   1.00
O193   O     0.10661   0.50001   0.31613   0.00000  Uiso   1.00
O194   O     0.22672   0.49999   0.18387   0.00000  Uiso   1.00
O195   O     0.18305   0.50000   0.31612   0.00000  Uiso   1.00
O196   O     0.15028   0.50000   0.18388   0.00000  Uiso   1.00
C197   C     0.13628   0.50048   0.33788   0.00000  Uiso   1.00
C198   C     0.19709   0.50052   0.16210   0.00000  Uiso   1.00
Zn199  Zn    0.11562   0.50001   0.25000   0.00000  Uiso   1.00
Zn200  Zn    0.21771   0.49999   0.25000   0.00000  Uiso   1.00
C201   C     0.11798   0.50682   0.38803   0.00000  Uiso   1.00
C202   C     0.21624   0.50310   0.11156   0.00000  Uiso   1.00
C203   C     0.06234   0.53950   0.45816   0.00000  Uiso   1.00
C204   C     0.27978   0.49233   0.03617   0.00000  Uiso   1.00
C205   C     0.07371   0.52673   0.41216   0.00000  Uiso   1.00
C206   C     0.26453   0.49318   0.08444   0.00000  Uiso   1.00
C207   C     0.14995   0.49901   0.41011   0.00000  Uiso   1.00
C208   C     0.18442   0.51476   0.09043   0.00000  Uiso   1.00
C209   C     0.14197   0.51566   0.45404   0.00000  Uiso   1.00
C210   C     0.19887   0.51468   0.04217   0.00000  Uiso   1.00
C211   C     0.09639   0.53444   0.47928   0.00000  Uiso   1.00
C212   C     0.24688   0.50166   0.01483   0.00000  Uiso   1.00
C213   C     0.17813   0.51356   0.47340   0.00000  Uiso   1.00
C214   C     0.16544   0.52388   0.02086   0.00000  Uiso   1.00
C215   C     0.11973   0.54276   0.04541   0.00000  Uiso   1.00
C216   C     0.22681   0.50233   0.44653   0.00000  Uiso   1.00
C217   C     0.08603   0.54838   0.02472   0.00000  Uiso   1.00
C218   C     0.26072   0.49693   0.46688   0.00000  Uiso   1.00
H219   H     0.14735   0.52146   0.11251   0.00000  Uiso   1.00
H220   H     0.18177   0.48057   0.39163   0.00000  Uiso   1.00
H221   H     0.28981   0.48457   0.10047   0.00000  Uiso   1.00
H222   H     0.04885   0.53361   0.39509   0.00000  Uiso   1.00
H223   H     0.02777   0.55462   0.47651   0.00000  Uiso   1.00
H224   H     0.31674   0.48292   0.01576   0.00000  Uiso   1.00
H225   H     0.10968   0.55502   0.08027   0.00000  Uiso   1.00
H226   H     0.24013   0.49847   0.40925   0.00000  Uiso   1.00
C227   C     0.21056   0.64549   0.24007   0.00000  Uiso   1.00
C228   C     0.12275   0.35451   0.26000   0.00000  Uiso   1.00
H229   H     0.24478   0.62936   0.23196   0.00000  Uiso   1.00
H230   H     0.08854   0.37064   0.26810   0.00000  Uiso   1.00
C231   C     0.21053   0.35479   0.23980   0.00000  Uiso   1.00
C232   C     0.12279   0.64520   0.26027   0.00000  Uiso   1.00
H233   H     0.24475   0.37114   0.23152   0.00000  Uiso   1.00
H234   H     0.08856   0.62885   0.26855   0.00000  Uiso   1.00
C235   C     0.16661   0.37583   0.24979   0.00000  Uiso   1.00
C236   C     0.16671   0.62416   0.25026   0.00000  Uiso   1.00
C237   C     0.31990   0.47338   0.22187   0.00000  Uiso   1.00
C238   C     0.01342   0.52660   0.27816   0.00000  Uiso   1.00
H239   H     0.31020   0.45214   0.19941   0.00000  Uiso   1.00
H240   H     0.02312   0.54783   0.30064   0.00000  Uiso   1.00
C241   C     0.03431   0.47322   0.22175   0.00000  Uiso   1.00
C242   C     0.29901   0.52677   0.27828   0.00000  Uiso   1.00
N243   N     0.04759   0.50001   0.25001   0.00000  Uiso   1.00
N244   N     0.28574   0.49999   0.24999   0.00000  Uiso   1.00
F245   F     0.04295   0.56703   0.04957   0.00000  Uiso   1.00
F246   F     0.30642   0.48474   0.43978   0.00000  Uiso   1.00
Br247  Br    0.07890   0.43420   0.18080   0.00000  Uiso   1.00
Br248  Br    0.25442   0.56578   0.31927   0.00000  Uiso   1.00
O249   O     0.46179   0.56108   0.25000   0.00000  Uiso   1.00
O250   O     0.53821   0.43892   0.25000   0.00000  Uiso   1.00
O251   O     0.53823   0.56107   0.25000   0.00000  Uiso   1.00
O252   O     0.46177   0.43893   0.25000   0.00000  Uiso   1.00
C253   C     0.50004   0.57999   0.25015   0.00000  Uiso   1.00
C254   C     0.49995   0.42001   0.24987   0.00000  Uiso   1.00
O255   O     0.43994   0.50001   0.31613   0.00000  Uiso   1.00
O256   O     0.56006   0.49999   0.18387   0.00000  Uiso   1.00
O257   O     0.51639   0.50000   0.31612   0.00000  Uiso   1.00
O258   O     0.48361   0.50000   0.18388   0.00000  Uiso   1.00
C259   C     0.46961   0.50048   0.33788   0.00000  Uiso   1.00
C260   C     0.53042   0.50052   0.16210   0.00000  Uiso   1.00
Zn261  Zn    0.44896   0.50001   0.25000   0.00000  Uiso   1.00
Zn262  Zn    0.55104   0.49999   0.25000   0.00000  Uiso   1.00
C263   C     0.45132   0.50682   0.38803   0.00000  Uiso   1.00
C264   C     0.54958   0.50310   0.11156   0.00000  Uiso   1.00
C265   C     0.39567   0.53950   0.45816   0.00000  Uiso   1.00
C266   C     0.61311   0.49233   0.03617   0.00000  Uiso   1.00
C267   C     0.40704   0.52673   0.41216   0.00000  Uiso   1.00
C268   C     0.59786   0.49318   0.08444   0.00000  Uiso   1.00
C269   C     0.48328   0.49901   0.41011   0.00000  Uiso   1.00
C270   C     0.51775   0.51476   0.09043   0.00000  Uiso   1.00
C271   C     0.47531   0.51566   0.45404   0.00000  Uiso   1.00
C272   C     0.53220   0.51468   0.04217   0.00000  Uiso   1.00
C273   C     0.42972   0.53444   0.47928   0.00000  Uiso   1.00
C274   C     0.58021   0.50166   0.01483   0.00000  Uiso   1.00
C275   C     0.51146   0.51356   0.47340   0.00000  Uiso   1.00
C276   C     0.49877   0.52388   0.02086   0.00000  Uiso   1.00
C277   C     0.45307   0.54276   0.04541   0.00000  Uiso   1.00
C278   C     0.56014   0.50233   0.44653   0.00000  Uiso   1.00
C279   C     0.41937   0.54838   0.02472   0.00000  Uiso   1.00
C280   C     0.59405   0.49693   0.46688   0.00000  Uiso   1.00
H281   H     0.48069   0.52146   0.11251   0.00000  Uiso   1.00
H282   H     0.51510   0.48057   0.39163   0.00000  Uiso   1.00
H283   H     0.62314   0.48457   0.10047   0.00000  Uiso   1.00
H284   H     0.38218   0.53361   0.39509   0.00000  Uiso   1.00
H285   H     0.36110   0.55462   0.47651   0.00000  Uiso   1.00
H286   H     0.65007   0.48292   0.01576   0.00000  Uiso   1.00
H287   H     0.44301   0.55502   0.08027   0.00000  Uiso   1.00
H288   H     0.57346   0.49847   0.40925   0.00000  Uiso   1.00
C289   C     0.54390   0.64549   0.24007   0.00000  Uiso   1.00
C290   C     0.45608   0.35451   0.26000   0.00000  Uiso   1.00
H291   H     0.57811   0.62936   0.23196   0.00000  Uiso   1.00
H292   H     0.42187   0.37064   0.26810   0.00000  Uiso   1.00
C293   C     0.54386   0.35479   0.23980   0.00000  Uiso   1.00
C294   C     0.45612   0.64520   0.26027   0.00000  Uiso   1.00
H295   H     0.57808   0.37114   0.23152   0.00000  Uiso   1.00
H296   H     0.42189   0.62885   0.26855   0.00000  Uiso   1.00
C297   C     0.49994   0.37583   0.24979   0.00000  Uiso   1.00
C298   C     0.50004   0.62416   0.25026   0.00000  Uiso   1.00
C299   C     0.65324   0.47338   0.22187   0.00000  Uiso   1.00
C300   C     0.34675   0.52660   0.27816   0.00000  Uiso   1.00
H301   H     0.64353   0.45214   0.19941   0.00000  Uiso   1.00
H302   H     0.35645   0.54783   0.30064   0.00000  Uiso   1.00
C303   C     0.36764   0.47322   0.22175   0.00000  Uiso   1.00
C304   C     0.63235   0.52677   0.27828   0.00000  Uiso   1.00
N305   N     0.38093   0.50001   0.25001   0.00000  Uiso   1.00
N306   N     0.61907   0.49999   0.24999   0.00000  Uiso   1.00
F307   F     0.37629   0.56703   0.04957   0.00000  Uiso   1.00
F308   F     0.63975   0.48474   0.43978   0.00000  Uiso   1.00
Br309  Br    0.41224   0.43420   0.18080   0.00000  Uiso   1.00
Br310  Br    0.58776   0.56578   0.31927   0.00000  Uiso   1.00
O311   O     0.79512   0.56108   0.25000   0.00000  Uiso   1.00
O312   O     0.87154   0.43892   0.25000   0.00000  Uiso   1.00
O313   O     0.87157   0.56107   0.25000   0.00000  Uiso   1.00
O314   O     0.79510   0.43893   0.25000   0.00000  Uiso   1.00
C315   C     0.83338   0.57999   0.25015   0.00000  Uiso   1.00
C316   C     0.83328   0.42001   0.24987   0.00000  Uiso   1.00
O317   O     0.77328   0.50001   0.31613   0.00000  Uiso   1.00
O318   O     0.89339   0.49999   0.18387   0.00000  Uiso   1.00
O319   O     0.84972   0.50000   0.31612   0.00000  Uiso   1.00
O320   O     0.81695   0.50000   0.18388   0.00000  Uiso   1.00
C321   C     0.80294   0.50048   0.33788   0.00000  Uiso   1.00
C322   C     0.86376   0.50052   0.16210   0.00000  Uiso   1.00
Zn323  Zn    0.78229   0.50001   0.25000   0.00000  Uiso   1.00
Zn324  Zn    0.88438   0.49999   0.25000   0.00000  Uiso   1.00
C325   C     0.78465   0.50682   0.38803   0.00000  Uiso   1.00
C326   C     0.88291   0.50310   0.11156   0.00000  Uiso   1.00
C327   C     0.72901   0.53950   0.45816   0.00000  Uiso   1.00
C328   C     0.94645   0.49233   0.03617   0.00000  Uiso   1.00
C329   C     0.74038   0.52673   0.41216   0.00000  Uiso   1.00
C330   C     0.93119   0.49318   0.08444   0.00000  Uiso   1.00
C331   C     0.81661   0.49901   0.41011   0.00000  Uiso   1.00
C332   C     0.85108   0.51476   0.09043   0.00000  Uiso   1.00
C333   C     0.80864   0.51566   0.45404   0.00000  Uiso   1.00
C334   C     0.86553   0.51468   0.04217   0.00000  Uiso   1.00
C335   C     0.76306   0.53444   0.47928   0.00000  Uiso   1.00
C336   C     0.91355   0.50166   0.01483   0.00000  Uiso   1.00
C337   C     0.84480   0.51356   0.47340   0.00000  Uiso   1.00
C338   C     0.83210   0.52388   0.02086   0.00000  Uiso   1.00
C339   C     0.78640   0.54276   0.04541   0.00000  Uiso   1.00
C340   C     0.89347   0.50233   0.44653   0.00000  Uiso   1.00
C341   C     0.75270   0.54838   0.02472   0.00000  Uiso   1.00
C342   C     0.92738   0.49693   0.46688   0.00000  Uiso   1.00
H343   H     0.81402   0.52146   0.11251   0.00000  Uiso   1.00
H344   H     0.84844   0.48057   0.39163   0.00000  Uiso   1.00
H345   H     0.95647   0.48457   0.10047   0.00000  Uiso   1.00
H346   H     0.71551   0.53361   0.39509   0.00000  Uiso   1.00
H347   H     0.69443   0.55462   0.47651   0.00000  Uiso   1.00
H348   H     0.98340   0.48292   0.01576   0.00000  Uiso   1.00
H349   H     0.77634   0.55502   0.08027   0.00000  Uiso   1.00
H350   H     0.90679   0.49847   0.40925   0.00000  Uiso   1.00
C351   C     0.87723   0.64549   0.24007   0.00000  Uiso   1.00
C352   C     0.78941   0.35451   0.26000   0.00000  Uiso   1.00
H353   H     0.91144   0.62936   0.23196   0.00000  Uiso   1.00
H354   H     0.75520   0.37064   0.26810   0.00000  Uiso   1.00
C355   C     0.87719   0.35479   0.23980   0.00000  Uiso   1.00
C356   C     0.78945   0.64520   0.26027   0.00000  Uiso   1.00
H357   H     0.91142   0.37114   0.23152   0.00000  Uiso   1.00
H358   H     0.75523   0.62885   0.26855   0.00000  Uiso   1.00
C359   C     0.83327   0.37583   0.24979   0.00000  Uiso   1.00
C360   C     0.83337   0.62416   0.25026   0.00000  Uiso   1.00
C361   C     0.98657   0.47338   0.22187   0.00000  Uiso   1.00
C362   C     0.68009   0.52660   0.27816   0.00000  Uiso   1.00
H363   H     0.97687   0.45214   0.19941   0.00000  Uiso   1.00
H364   H     0.68978   0.54783   0.30064   0.00000  Uiso   1.00
C365   C     0.70098   0.47322   0.22175   0.00000  Uiso   1.00
C366   C     0.96568   0.52677   0.27828   0.00000  Uiso   1.00
N367   N     0.71426   0.50001   0.25001   0.00000  Uiso   1.00
N368   N     0.95241   0.49999   0.24999   0.00000  Uiso   1.00
F369   F     0.70962   0.56703   0.04957   0.00000  Uiso   1.00
F370   F     0.97309   0.48474   0.43978   0.00000  Uiso   1.00
Br371  Br    0.74557   0.43420   0.18080   0.00000  Uiso   1.00
Br372  Br    0.92109   0.56578   0.31927   0.00000  Uiso   1.00
O373   O     0.12846   0.89442   0.25000   0.00000  Uiso   1.00
O374   O     0.20488   0.77225   0.25000   0.00000  Uiso   1.00
O375   O     0.20490   0.89441   0.25000   0.00000  Uiso   1.00
O376   O     0.12843   0.77226   0.25000   0.00000  Uiso   1.00
C377   C     0.16671   0.91332   0.25015   0.00000  Uiso   1.00
C378   C     0.16662   0.75335   0.24987   0.00000  Uiso   1.00
O379   O     0.10661   0.83334   0.31613   0.00000  Uiso   1.00
O380   O     0.22672   0.83333   0.18387   0.00000  Uiso   1.00
O381   O     0.18305   0.83333   0.31612   0.00000  Uiso   1.00
O382   O     0.15028   0.83334   0.18388   0.00000  Uiso   1.00
C383   C     0.13628   0.83382   0.33788   0.00000  Uiso   1.00
C384   C     0.19709   0.83386   0.16210   0.00000  Uiso   1.00
Zn385  Zn    0.11562   0.83334   0.25000   0.00000  Uiso   1.00
Zn386  Zn    0.21771   0.83333   0.25000   0.00000  Uiso   1.00
C387   C     0.11798   0.84015   0.38803   0.00000  Uiso   1.00
C388   C     0.21624   0.83643   0.11156   0.00000  Uiso   1.00
C389   C     0.06234   0.87283   0.45816   0.00000  Uiso   1.00
C390   C     0.27978   0.82566   0.03617   0.00000  Uiso   1.00
C391   C     0.07371   0.86007   0.41216   0.00000  Uiso   1.00
C392   C     0.26453   0.82651   0.08444   0.00000  Uiso   1.00
C393   C     0.14995   0.83235   0.41011   0.00000  Uiso   1.00
C394   C     0.18442   0.84809   0.09043   0.00000  Uiso   1.00
C395   C     0.14197   0.84899   0.45404   0.00000  Uiso   1.00
C396   C     0.19887   0.84801   0.04217   0.00000  Uiso   1.00
C397   C     0.09639   0.86777   0.47928   0.00000  Uiso   1.00
C398   C     0.24688   0.83499   0.01483   0.00000  Uiso   1.00
C399   C     0.17813   0.84689   0.47340   0.00000  Uiso   1.00
C400   C     0.16544   0.85721   0.02086   0.00000  Uiso   1.00
C401   C     0.11973   0.87609   0.04541   0.00000  Uiso   1.00
C402   C     0.22681   0.83566   0.44653   0.00000  Uiso   1.00
C403   C     0.08603   0.88171   0.02472   0.00000  Uiso   1.00
C404   C     0.26072   0.83026   0.46688   0.00000  Uiso   1.00
H405   H     0.14735   0.85480   0.11251   0.00000  Uiso   1.00
H406   H     0.18177   0.81390   0.39163   0.00000  Uiso   1.00
H407   H     0.28981   0.81790   0.10047   0.00000  Uiso   1.00
H408   H     0.04885   0.86694   0.39509   0.00000  Uiso   1.00
H409   H     0.02777   0.88795   0.47651   0.00000  Uiso   1.00
H410   H     0.31674   0.81626   0.01576   0.00000  Uiso   1.00
H411   H     0.10968   0.88835   0.08027   0.00000  Uiso   1.00
H412   H     0.24013   0.83180   0.40925   0.00000  Uiso   1.00
C413   C     0.21056   0.97882   0.24007   0.00000  Uiso   1.00
C414   C     0.12275   0.68784   0.26000   0.00000  Uiso   1.00
H415   H     0.24478   0.96269   0.23196   0.00000  Uiso   1.00
H416   H     0.08854   0.70397   0.26810   0.00000  Uiso   1.00
C417   C     0.21053   0.68812   0.23980   0.00000  Uiso   1.00
C418   C     0.12279   0.97854   0.26027   0.00000  Uiso   1.00
H419   H     0.24475   0.70447   0.23152   0.00000  Uiso   1.00
H420   H     0.08856   0.96219   0.26855   0.00000  Uiso   1.00
C421   C     0.16661   0.70917   0.24979   0.00000  Uiso   1.00
C422   C     0.16671   0.95750   0.25026   0.00000  Uiso   1.00
C423   C     0.31990   0.80671   0.22187   0.00000  Uiso   1.00
C424   C     0.01342   0.85994   0.27816   0.00000  Uiso   1.00
H425   H     0.31020   0.78547   0.19941   0.00000  Uiso   1.00
H426   H     0.02312   0.88116   0.30064   0.00000  Uiso   1.00
C427   C     0.03431   0.80655   0.22175   0.00000  Uiso   1.00
C428   C     0.29901   0.86010   0.27828   0.00000  Uiso   1.00
N429   N     0.04759   0.83334   0.25001   0.00000  Uiso   1.00
N430   N     0.28574   0.83332   0.24999   0.00000  Uiso   1.00
F431   F     0.04295   0.90036   0.04957   0.00000  Uiso   1.00
F432   F     0.30642   0.81807   0.43978   0.00000  Uiso   1.00
Br433  Br    0.07890   0.76753   0.18080   0.00000  Uiso   1.00
Br434  Br    0.25442   0.89911   0.31927   0.00000  Uiso   1.00
O435   O     0.46179   0.89442   0.25000   0.00000  Uiso   1.00
O436   O     0.53821   0.77225   0.25000   0.00000  Uiso   1.00
O437   O     0.53823   0.89441   0.25000   0.00000  Uiso   1.00
O438   O     0.46177   0.77226   0.25000   0.00000  Uiso   1.00
C439   C     0.50004   0.91332   0.25015   0.00000  Uiso   1.00
C440   C     0.49995   0.75335   0.24987   0.00000  Uiso   1.00
O441   O     0.43994   0.83334   0.31613   0.00000  Uiso   1.00
O442   O     0.56006   0.83333   0.18387   0.00000  Uiso   1.00
O443   O     0.51639   0.83333   0.31612   0.00000  Uiso   1.00
O444   O     0.48361   0.83334   0.18388   0.00000  Uiso   1.00
C445   C     0.46961   0.83382   0.33788   0.00000  Uiso   1.00
C446   C     0.53042   0.83386   0.16210   0.00000  Uiso   1.00
Zn447  Zn    0.44896   0.83334   0.25000   0.00000  Uiso   1.00
Zn448  Zn    0.55104   0.83333   0.25000   0.00000  Uiso   1.00
C449   C     0.45132   0.84015   0.38803   0.00000  Uiso   1.00
C450   C     0.54958   0.83643   0.11156   0.00000  Uiso   1.00
C451   C     0.39567   0.87283   0.45816   0.00000  Uiso   1.00
C452   C     0.61311   0.82566   0.03617   0.00000  Uiso   1.00
C453   C     0.40704   0.86007   0.41216   0.00000  Uiso   1.00
C454   C     0.59786   0.82651   0.08444   0.00000  Uiso   1.00
C455   C     0.48328   0.83235   0.41011   0.00000  Uiso   1.00
C456   C     0.51775   0.84809   0.09043   0.00000  Uiso   1.00
C457   C     0.47531   0.84899   0.45404   0.00000  Uiso   1.00
C458   C     0.53220   0.84801   0.04217   0.00000  Uiso   1.00
C459   C     0.42972   0.86777   0.47928   0.00000  Uiso   1.00
C460   C     0.58021   0.83499   0.01483   0.00000  Uiso   1.00
C461   C     0.51146   0.84689   0.47340   0.00000  Uiso   1.00
C462   C     0.49877   0.85721   0.02086   0.00000  Uiso   1.00
C463   C     0.45307   0.87609   0.04541   0.00000  Uiso   1.00
C464   C     0.56014   0.83566   0.44653   0.00000  Uiso   1.00
C465   C     0.41937   0.88171   0.02472   0.00000  Uiso   1.00
C466   C     0.59405   0.83026   0.46688   0.00000  Uiso   1.00
H467   H     0.48069   0.85480   0.11251   0.00000  Uiso   1.00
H468   H     0.51510   0.81390   0.39163   0.00000  Uiso   1.00
H469   H     0.62314   0.81790   0.10047   0.00000  Uiso   1.00
H470   H     0.38218   0.86694   0.39509   0.00000  Uiso   1.00
H471   H     0.36110   0.88795   0.47651   0.00000  Uiso   1.00
H472   H     0.65007   0.81626   0.01576   0.00000  Uiso   1.00
H473   H     0.44301   0.88835   0.08027   0.00000  Uiso   1.00
H474   H     0.57346   0.83180   0.40925   0.00000  Uiso   1.00
C475   C     0.54390   0.97882   0.24007   0.00000  Uiso   1.00
C476   C     0.45608   0.68784   0.26000   0.00000  Uiso   1.00
H477   H     0.57811   0.96269   0.23196   0.00000  Uiso   1.00
H478   H     0.42187   0.70397   0.26810   0.00000  Uiso   1.00
C479   C     0.54386   0.68812   0.23980   0.00000  Uiso   1.00
C480   C     0.45612   0.97854   0.26027   0.00000  Uiso   1.00
H481   H     0.57808   0.70447   0.23152   0.00000  Uiso   1.00
H482   H     0.42189   0.96219   0.26855   0.00000  Uiso   1.00
C483   C     0.49994   0.70917   0.24979   0.00000  Uiso   1.00
C484   C     0.50004   0.95750   0.25026   0.00000  Uiso   1.00
C485   C     0.65324   0.80671   0.22187   0.00000  Uiso   1.00
C486   C     0.34675   0.85994   0.27816   0.00000  Uiso   1.00
H487   H     0.64353   0.78547   0.19941   0.00000  Uiso   1.00
H488   H     0.35645   0.88116   0.30064   0.00000  Uiso   1.00
C489   C     0.36764   0.80655   0.22175   0.00000  Uiso   1.00
C490   C     0.63235   0.86010   0.27828   0.00000  Uiso   1.00
N491   N     0.38093   0.83334   0.25001   0.00000  Uiso   1.00
N492   N     0.61907   0.83332   0.24999   0.00000  Uiso   1.00
F493   F     0.37629   0.90036   0.04957   0.00000  Uiso   1.00
F494   F     0.63975   0.81807   0.43978   0.00000  Uiso   1.00
Br495  Br    0.41224   0.76753   0.18080   0.00000  Uiso   1.00
Br496  Br    0.58776   0.89911   0.31927   0.00000  Uiso   1.00
O497   O     0.79512   0.89442   0.25000   0.00000  Uiso   1.00
O498   O     0.87154   0.77225   0.25000   0.00000  Uiso   1.00
O499   O     0.87157   0.89441   0.25000   0.00000  Uiso   1.00
O500   O     0.79510   0.77226   0.25000   0.00000  Uiso   1.00
C501   C     0.83338   0.91332   0.25015   0.00000  Uiso   1.00
C502   C     0.83328   0.75335   0.24987   0.00000  Uiso   1.00
O503   O     0.77328   0.83334   0.31613   0.00000  Uiso   1.00
O504   O     0.89339   0.83333   0.18387   0.00000  Uiso   1.00
O505   O     0.84972   0.83333   0.31612   0.00000  Uiso   1.00
O506   O     0.81695   0.83334   0.18388   0.00000  Uiso   1.00
C507   C     0.80294   0.83382   0.33788   0.00000  Uiso   1.00
C508   C     0.86376   0.83386   0.16210   0.00000  Uiso   1.00
Zn509  Zn    0.78229   0.83334   0.25000   0.00000  Uiso   1.00
Zn510  Zn    0.88438   0.83333   0.25000   0.00000  Uiso   1.00
C511   C     0.78465   0.84015   0.38803   0.00000  Uiso   1.00
C512   C     0.88291   0.83643   0.11156   0.00000  Uiso   1.00
C513   C     0.72901   0.87283   0.45816   0.00000  Uiso   1.00
C514   C     0.94645   0.82566   0.03617   0.00000  Uiso   1.00
C515   C     0.74038   0.86007   0.41216   0.00000  Uiso   1.00
C516   C     0.93119   0.82651   0.08444   0.00000  Uiso   1.00
C517   C     0.81661   0.83235   0.41011   0.00000  Uiso   1.00
C518   C     0.85108   0.84809   0.09043   0.00000  Uiso   1.00
C519   C     0.80864   0.84899   0.45404   0.00000  Uiso   1.00
C520   C     0.86553   0.84801   0.04217   0.00000  Uiso   1.00
C521   C     0.76306   0.86777   0.47928   0.00000  Uiso   1.00
C522   C     0.91355   0.83499   0.01483   0.00000  Uiso   1.00
C523   C     0.84480   0.84689   0.47340   0.00000  Uiso   1.00
C524   C     0.83210   0.85721   0.02086   0.00000  Uiso   1.00
C525   C     0.78640   0.87609   0.04541   0.00000  Uiso   1.00
C526   C     0.89347   0.83566   0.44653   0.00000  Uiso   1.00
C527   C     0.75270   0.88171   0.02472   0.00000  Uiso   1.00
C528   C     0.92738   0.83026   0.46688   0.00000  Uiso   1.00
H529   H     0.81402   0.85480   0.11251   0.00000  Uiso   1.00
H530   H     0.84844   0.81390   0.39163   0.00000  Uiso   1.00
H531   H     0.95647   0.81790   0.10047   0.00000  Uiso   1.00
H532   H     0.71551   0.86694   0.39509   0.00000  Uiso   1.00
H533   H     0.69443   0.88795   0.47651   0.00000  Uiso   1.00
H534   H     0.98340   0.81626   0.01576   0.00000  Uiso   1.00
H535   H     0.77634   0.88835   0.08027   0.00000  Uiso   1.00
H536   H     0.90679   0.83180   0.40925   0.00000  Uiso   1.00
C537   C     0.87723   0.97882   0.24007   0.00000  Uiso   1.00
C538   C     0.78941   0.68784   0.26000   0.00000  Uiso   1.00
H539   H     0.91144   0.96269   0.23196   0.00000  Uiso   1.00
H540   H     0.75520   0.70397   0.26810   0.00000  Uiso   1.00
C541   C     0.87719   0.68812   0.23980   0.00000  Uiso   1.00
C542   C     0.78945   0.97854   0.26027   0.00000  Uiso   1.00
H543   H     0.91142   0.70447   0.23152   0.00000  Uiso   1.00
H544   H     0.75523   0.96219   0.26855   0.00000  Uiso   1.00
C545   C     0.83327   0.70917   0.24979   0.00000  Uiso   1.00
C546   C     0.83337   0.95750   0.25026   0.00000  Uiso   1.00
C547   C     0.98657   0.80671   0.22187   0.00000  Uiso   1.00
C548   C     0.68009   0.85994   0.27816   0.00000  Uiso   1.00
H549   H     0.97687   0.78547   0.19941   0.00000  Uiso   1.00
H550   H     0.68978   0.88116   0.30064   0.00000  Uiso   1.00
C551   C     0.70098   0.80655   0.22175   0.00000  Uiso   1.00
C552   C     0.96568   0.86010   0.27828   0.00000  Uiso   1.00
N553   N     0.71426   0.83334   0.25001   0.00000  Uiso   1.00
N554   N     0.95241   0.83332   0.24999   0.00000  Uiso   1.00
F555   F     0.70962   0.90036   0.04957   0.00000  Uiso   1.00
F556   F     0.97309   0.81807   0.43978   0.00000  Uiso   1.00
Br557  Br    0.74557   0.76753   0.18080   0.00000  Uiso   1.00
Br558  Br    0.92109   0.89911   0.31927   0.00000  Uiso   1.00
O559   O     0.12846   0.22775   0.75000   0.00000  Uiso   1.00
O560   O     0.20488   0.10558   0.75000   0.00000  Uiso   1.00
O561   O     0.20490   0.22774   0.75000   0.00000  Uiso   1.00
O562   O     0.12843   0.10559   0.75000   0.00000  Uiso   1.00
C563   C     0.16671   0.24665   0.75015   0.00000  Uiso   1.00
C564   C     0.16662   0.08668   0.74987   0.00000  Uiso   1.00
O565   O     0.10661   0.16667   0.81613   0.00000  Uiso   1.00
O566   O     0.22672   0.16666   0.68387   0.00000  Uiso   1.00
O567   O     0.18305   0.16666   0.81612   0.00000  Uiso   1.00
O568   O     0.15028   0.16667   0.68388   0.00000  Uiso   1.00
C569   C     0.13628   0.16715   0.83788   0.00000  Uiso   1.00
C570   C     0.19709   0.16719   0.66210   0.00000  Uiso   1.00
Zn571  Zn    0.11562   0.16667   0.75000   0.00000  Uiso   1.00
Zn572  Zn    0.21771   0.16666   0.75000   0.00000  Uiso   1.00
C573   C     0.11798   0.17348   0.88803   0.00000  Uiso   1.00
C574   C     0.21624   0.16977   0.61156   0.00000  Uiso   1.00
C575   C     0.06234   0.20617   0.95816   0.00000  Uiso   1.00
C576   C     0.27978   0.15899   0.53617   0.00000  Uiso   1.00
C577   C     0.07371   0.19340   0.91216   0.00000  Uiso   1.00
C578   C     0.26453   0.15985   0.58444   0.00000  Uiso   1.00
C579   C     0.14995   0.16568   0.91011   0.00000  Uiso   1.00
C580   C     0.18442   0.18142   0.59043   0.00000  Uiso   1.00
C581   C     0.14197   0.18232   0.95404   0.00000  Uiso   1.00
C582   C     0.19887   0.18134   0.54217   0.00000  Uiso   1.00
C583   C     0.09639   0.20111   0.97928   0.00000  Uiso   1.00
C584   C     0.24688   0.16833   0.51483   0.00000  Uiso   1.00
C585   C     0.17813   0.18023   0.97340   0.00000  Uiso   1.00
C586   C     0.16544   0.19055   0.52086   0.00000  Uiso   1.00
C587   C     0.11973   0.20943   0.54541   0.00000  Uiso   1.00
C588   C     0.22681   0.16899   0.94653   0.00000  Uiso   1.00
C589   C     0.08603   0.21505   0.52472   0.00000  Uiso   1.00
C590   C     0.26072   0.16359   0.96688   0.00000  Uiso   1.00
H591   H     0.14735   0.18813   0.61251   0.00000  Uiso   1.00
H592   H     0.18177   0.14723   0.89163   0.00000  Uiso   1.00
H593   H     0.28981   0.15124   0.60047   0.00000  Uiso   1.00
H594   H     0.04885   0.20028   0.89509   0.00000  Uiso   1.00
H595   H     0.02777   0.22128   0.97651   0.00000  Uiso   1.00
H596   H     0.31674   0.14959   0.51576   0.00000  Uiso   1.00
H597   H     0.10968   0.22169   0.58027   0.00000  Uiso   1.00
H598   H     0.24013   0.16514   0.90925   0.00000  Uiso   1.00
C599   C     0.21056   0.31216   0.74007   0.00000  Uiso   1.00
C600   C     0.12275   0.02117   0.76000   0.00000  Uiso   1.00
H601   H     0.24478   0.29602   0.73196   0.00000  Uiso   1.00
H602   H     0.08854   0.03730   0.76810   0.00000  Uiso   1.00
C603   C     0.21053   0.02146   0.73980   0.00000  Uiso   1.00
C604   C     0.12279   0.31187   0.76027   0.00000  Uiso   1.00
H605   H     0.24475   0.03780   0.73152   0.00000  Uiso   1.00
H606   H     0.08856   0.29552   0.76855   0.00000  Uiso   1.00
C607   C     0.16661   0.04250   0.74979   0.00000  Uiso   1.00
C608   C     0.16671   0.29083   0.75026   0.00000  Uiso   1.00
C609   C     0.31990   0.14005   0.72187   0.00000  Uiso   1.00
C610   C     0.01342   0.19327   0.77816   0.00000  Uiso   1.00
H611   H     0.31020   0.11880   0.69941   0.00000  Uiso   1.00
H612   H     0.02312   0.21449   0.80064   0.00000  Uiso   1.00
C613   C     0.03431   0.13989   0.72175   0.00000  Uiso   1.00
C614   C     0.29901   0.19343   0.77828   0.00000  Uiso   1.00
N615   N     0.04759   0.16668   0.75001   0.00000  Uiso   1.00
N616   N     0.28574   0.16666   0.74999   0.00000  Uiso   1.00
F617   F     0.04295   0.23369   0.54957   0.00000  Uiso   1.00
F618   F     0.30642   0.15140   0.93978   0.00000  Uiso   1.00
Br619  Br    0.07890   0.10086   0.68080   0.00000  Uiso   1.00
Br620  Br    0.25442   0.23244   0.81927   0.00000  Uiso   1.00
O621   O     0.46179   0.22775   0.75000   0.00000  Uiso   1.00
O622   O     0.53821   0.10558   0.75000   0.00000  Uiso   1.00
O623   O     0.53823   0.22774   0.75000   0.00000  Uiso   1.00
O624   O     0.46177   0.10559   0.75000   0.00000  Uiso   1.00
C625   C     0.50004   0.24665   0.75015   0.00000  Uiso   1.00
C626   C     0.49995   0.08668   0.74987   0.00000  Uiso   1.00
O627   O     0.43994   0.16667   0.81613   0.00000  Uiso   1.00
O628   O     0.56006   0.16666   0.68387   0.00000  Uiso   1.00
O629   O     0.51639   0.16666   0.81612   0.00000  Uiso   1.00
O630   O     0.48361   0.16667   0.68388   0.00000  Uiso   1.00
C631   C     0.46961   0.16715   0.83788   0.00000  Uiso   1.00
C632   C     0.53042   0.16719   0.66210   0.00000  Uiso   1.00
Zn633  Zn    0.44896   0.16667   0.75000   0.00000  Uiso   1.00
Zn634  Zn    0.55104   0.16666   0.75000   0.00000  Uiso   1.00
C635   C     0.45132   0.17348   0.88803   0.00000  Uiso   1.00
C636   C     0.54958   0.16977   0.61156   0.00000  Uiso   1.00
C637   C     0.39567   0.20617   0.95816   0.00000  Uiso   1.00
C638   C     0.61311   0.15899   0.53617   0.00000  Uiso   1.00
C639   C     0.40704   0.19340   0.91216   0.00000  Uiso   1.00
C640   C     0.59786   0.15985   0.58444   0.00000  Uiso   1.00
C641   C     0.48328   0.16568   0.91011   0.00000  Uiso   1.00
C642   C     0.51775   0.18142   0.59043   0.00000  Uiso   1.00
C643   C     0.47531   0.18232   0.95404   0.00000  Uiso   1.00
C644   C     0.53220   0.18134   0.54217   0.00000  Uiso   1.00
C645   C     0.42972   0.20111   0.97928   0.00000  Uiso   1.00
C646   C     0.58021   0.16833   0.51483   0.00000  Uiso   1.00
C647   C     0.51146   0.18023   0.97340   0.00000  Uiso   1.00
C648   C     0.49877   0.19055   0.52086   0.00000  Uiso   1.00
C649   C     0.45307   0.20943   0.54541   0.00000  Uiso   1.00
C650   C     0.56014   0.16899   0.94653   0.00000  Uiso   1.00
C651   C     0.41937   0.21505   0.52472   0.00000  Uiso   1.00
C652   C     0.59405   0.16359   0.96688   0.00000  Uiso   1.00
H653   H     0.48069   0.18813   0.61251   0.00000  Uiso   1.00
H654   H     0.51510   0.14723   0.89163   0.00000  Uiso   1.00
H655   H     0.62314   0.15124   0.60047   0.00000  Uiso   1.00
H656   H     0.38218   0.20028   0.89509   0.00000  Uiso   1.00
H657   H     0.36110   0.22128   0.97651   0.00000  Uiso   1.00
H658   H     0.65007   0.14959   0.51576   0.00000  Uiso   1.00
H659   H     0.44301   0.22169   0.58027   0.00000  Uiso   1.00
H660   H     0.57346   0.16514   0.90925   0.00000  Uiso   1.00
C661   C     0.54390   0.31216   0.74007   0.00000  Uiso   1.00
C662   C     0.45608   0.02117   0.76000   0.00000  Uiso   1.00
H663   H     0.57811   0.29602   0.73196   0.00000  Uiso   1.00
H664   H     0.42187   0.03730   0.76810   0.00000  Uiso   1.00
C665   C     0.54386   0.02146   0.73980   0.00000  Uiso   1.00
C666   C     0.45612   0.31187   0.76027   0.00000  Uiso   1.00
H667   H     0.57808   0.03780   0.73152   0.00000  Uiso   1.00
H668   H     0.42189   0.29552   0.76855   0.00000  Uiso   1.00
C669   C     0.49994   0.04250   0.74979   0.00000  Uiso   1.00
C670   C     0.50004   0.29083   0.75026   0.00000  Uiso   1.00
C671   C     0.65324   0.14005   0.72187   0.00000  Uiso   1.00
C672   C     0.34675   0.19327   0.77816   0.00000  Uiso   1.00
H673   H     0.64353   0.11880   0.69941   0.00000  Uiso   1.00
H674   H     0.35645   0.21449   0.80064   0.00000  Uiso   1.00
C675   C     0.36764   0.13989   0.72175   0.00000  Uiso   1.00
C676   C     0.63235   0.19343   0.77828   0.00000  Uiso   1.00
N677   N     0.38093   0.16668   0.75001   0.00000  Uiso   1.00
N678   N     0.61907   0.16666   0.74999   0.00000  Uiso   1.00
F679   F     0.37629   0.23369   0.54957   0.00000  Uiso   1.00
F680   F     0.63975   0.15140   0.93978   0.00000  Uiso   1.00
Br681  Br    0.41224   0.10086   0.68080   0.00000  Uiso   1.00
Br682  Br    0.58776   0.23244   0.81927   0.00000  Uiso   1.00
O683   O     0.79512   0.22775   0.75000   0.00000  Uiso   1.00
O684   O     0.87154   0.10558   0.75000   0.00000  Uiso   1.00
O685   O     0.87157   0.22774   0.75000   0.00000  Uiso   1.00
O686   O     0.79510   0.10559   0.75000   0.00000  Uiso   1.00
C687   C     0.83338   0.24665   0.75015   0.00000  Uiso   1.00
C688   C     0.83328   0.08668   0.74987   0.00000  Uiso   1.00
O689   O     0.77328   0.16667   0.81613   0.00000  Uiso   1.00
O690   O     0.89339   0.16666   0.68387   0.00000  Uiso   1.00
O691   O     0.84972   0.16666   0.81612   0.00000  Uiso   1.00
O692   O     0.81695   0.16667   0.68388   0.00000  Uiso   1.00
C693   C     0.80294   0.16715   0.83788   0.00000  Uiso   1.00
C694   C     0.86376   0.16719   0.66210   0.00000  Uiso   1.00
Zn695  Zn    0.78229   0.16667   0.75000   0.00000  Uiso   1.00
Zn696  Zn    0.88438   0.16666   0.75000   0.00000  Uiso   1.00
C697   C     0.78465   0.17348   0.88803   0.00000  Uiso   1.00
C698   C     0.88291   0.16977   0.61156   0.00000  Uiso   1.00
C699   C     0.72901   0.20617   0.95816   0.00000  Uiso   1.00
C700   C     0.94645   0.15899   0.53617   0.00000  Uiso   1.00
C701   C     0.74038   0.19340   0.91216   0.00000  Uiso   1.00
C702   C     0.93119   0.15985   0.58444   0.00000  Uiso   1.00
C703   C     0.81661   0.16568   0.91011   0.00000  Uiso   1.00
C704   C     0.85108   0.18142   0.59043   0.00000  Uiso   1.00
C705   C     0.80864   0.18232   0.95404   0.00000  Uiso   1.00
C706   C     0.86553   0.18134   0.54217   0.00000  Uiso   1.00
C707   C     0.76306   0.20111   0.97928   0.00000  Uiso   1.00
C708   C     0.91355   0.16833   0.51483   0.00000  Uiso   1.00
C709   C     0.84480   0.18023   0.97340   0.00000  Uiso   1.00
C710   C     0.83210   0.19055   0.52086   0.00000  Uiso   1.00
C711   C     0.78640   0.20943   0.54541   0.00000  Uiso   1.00
C712   C     0.89347   0.16899   0.94653   0.00000  Uiso   1.00
C713   C     0.75270   0.21505   0.52472   0.00000  Uiso   1.00
C714   C     0.92738   0.16359   0.96688   0.00000  Uiso   1.00
H715   H     0.81402   0.18813   0.61251   0.00000  Uiso   1.00
H716   H     0.84844   0.14723   0.89163   0.00000  Uiso   1.00
H717   H     0.95647   0.15124   0.60047   0.00000  Uiso   1.00
H718   H     0.71551   0.20028   0.89509   0.00000  Uiso   1.00
H719   H     0.69443   0.22128   0.97651   0.00000  Uiso   1.00
H720   H     0.98340   0.14959   0.51576   0.00000  Uiso   1.00
H721   H     0.77634   0.22169   0.58027   0.00000  Uiso   1.00
H722   H     0.90679   0.16514   0.90925   0.00000  Uiso   1.00
C723   C     0.87723   0.31216   0.74007   0.00000  Uiso   1.00
C724   C     0.78941   0.02117   0.76000   0.00000  Uiso   1.00
H725   H     0.91144   0.29602   0.73196   0.00000  Uiso   1.00
H726   H     0.75520   0.03730   0.76810   0.00000  Uiso   1.00
C727   C     0.87719   0.02146   0.73980   0.00000  Uiso   1.00
C728   C     0.78945   0.31187   0.76027   0.00000  Uiso   1.00
H729   H     0.91142   0.03780   0.73152   0.00000  Uiso   1.00
H730   H     0.75523   0.29552   0.76855   0.00000  Uiso   1.00
C731   C     0.83327   0.04250   0.74979   0.00000  Uiso   1.00
C732   C     0.83337   0.29083   0.75026   0.00000  Uiso   1.00
C733   C     0.98657   0.14005   0.72187   0.00000  Uiso   1.00
C734   C     0.68009   0.19327   0.77816   0.00000  Uiso   1.00
H735   H     0.97687   0.11880   0.69941   0.00000  Uiso   1.00
H736   H     0.68978   0.21449   0.80064   0.00000  Uiso   1.00
C737   C     0.70098   0.13989   0.72175   0.00000  Uiso   1.00
C738   C     0.96568   0.19343   0.77828   0.00000  Uiso   1.00
N739   N     0.71426   0.16668   0.75001   0.00000  Uiso   1.00
N740   N     0.95241   0.16666   0.74999   0.00000  Uiso   1.00
F741   F     0.70962   0.23369   0.54957   0.00000  Uiso   1.00
F742   F     0.97309   0.15140   0.93978   0.00000  Uiso   1.00
Br743  Br    0.74557   0.10086   0.68080   0.00000  Uiso   1.00
Br744  Br    0.92109   0.23244   0.81927   0.00000  Uiso   1.00
O745   O     0.12846   0.56108   0.75000   0.00000  Uiso   1.00
O746   O     0.20488   0.43892   0.75000   0.00000  Uiso   1.00
O747   O     0.20490   0.56107   0.75000   0.00000  Uiso   1.00
O748   O     0.12843   0.43893   0.75000   0.00000  Uiso   1.00
C749   C     0.16671   0.57999   0.75015   0.00000  Uiso   1.00
C750   C     0.16662   0.42001   0.74987   0.00000  Uiso   1.00
O751   O     0.10661   0.50001   0.81613   0.00000  Uiso   1.00
O752   O     0.22672   0.49999   0.68387   0.00000  Uiso   1.00
O753   O     0.18305   0.50000   0.81612   0.00000  Uiso   1.00
O754   O     0.15028   0.50000   0.68388   0.00000  Uiso   1.00
C755   C     0.13628   0.50048   0.83788   0.00000  Uiso   1.00
C756   C     0.19709   0.50052   0.66210   0.00000  Uiso   1.00
Zn757  Zn    0.11562   0.50001   0.75000   0.00000  Uiso   1.00
Zn758  Zn    0.21771   0.49999   0.75000   0.00000  Uiso   1.00
C759   C     0.11798   0.50682   0.88803   0.00000  Uiso   1.00
C760   C     0.21624   0.50310   0.61156   0.00000  Uiso   1.00
C761   C     0.06234   0.53950   0.95816   0.00000  Uiso   1.00
C762   C     0.27978   0.49233   0.53617   0.00000  Uiso   1.00
C763   C     0.07371   0.52673   0.91216   0.00000  Uiso   1.00
C764   C     0.26453   0.49318   0.58444   0.00000  Uiso   1.00
C765   C     0.14995   0.49901   0.91011   0.00000  Uiso   1.00
C766   C     0.18442   0.51476   0.59043   0.00000  Uiso   1.00
C767   C     0.14197   0.51566   0.95404   0.00000  Uiso   1.00
C768   C     0.19887   0.51468   0.54217   0.00000  Uiso   1.00
C769   C     0.09639   0.53444   0.97928   0.00000  Uiso   1.00
C770   C     0.24688   0.50166   0.51483   0.00000  Uiso   1.00
C771   C     0.17813   0.51356   0.97340   0.00000  Uiso   1.00
C772   C     0.16544   0.52388   0.52086   0.00000  Uiso   1.00
C773   C     0.11973   0.54276   0.54541   0.00000  Uiso   1.00
C774   C     0.22681   0.50233   0.94653   0.00000  Uiso   1.00
C775   C     0.08603   0.54838   0.52472   0.00000  Uiso   1.00
C776   C     0.26072   0.49693   0.96688   0.00000  Uiso   1.00
H777   H     0.14735   0.52146   0.61251   0.00000  Uiso   1.00
H778   H     0.18177   0.48057   0.89163   0.00000  Uiso   1.00
H779   H     0.28981   0.48457   0.60047   0.00000  Uiso   1.00
H780   H     0.04885   0.53361   0.89509   0.00000  Uiso   1.00
H781   H     0.02777   0.55462   0.97651   0.00000  Uiso   1.00
H782   H     0.31674   0.48292   0.51576   0.00000  Uiso   1.00
H783   H     0.10968   0.55502   0.58027   0.00000  Uiso   1.00
H784   H     0.24013   0.49847   0.90925   0.00000  Uiso   1.00
C785   C     0.21056   0.64549   0.74007   0.00000  Uiso   1.00
C786   C     0.12275   0.35451   0.76000   0.00000  Uiso   1.00
H787   H     0.24478   0.62936   0.73196   0.00000  Uiso   1.00
H788   H     0.08854   0.37064   0.76810   0.00000  Uiso   1.00
C789   C     0.21053   0.35479   0.73980   0.00000  Uiso   1.00
C790   C     0.12279   0.64520   0.76027   0.00000  Uiso   1.00
H791   H     0.24475   0.37114   0.73152   0.00000  Uiso   1.00
H792   H     0.08856   0.62885   0.76855   0.00000  Uiso   1.00
C793   C     0.16661   0.37583   0.74979   0.00000  Uiso   1.00
C794   C     0.16671   0.62416   0.75026   0.00000  Uiso   1.00
C795   C     0.31990   0.47338   0.72187   0.00000  Uiso   1.00
C796   C     0.01342   0.52660   0.77816   0.00000  Uiso   1.00
H797   H     0.31020   0.45214   0.69941   0.00000  Uiso   1.00
H798   H     0.02312   0.54783   0.80064   0.00000  Uiso   1.00
C799   C     0.03431   0.47322   0.72175   0.00000  Uiso   1.00
C800   C     0.29901   0.52677   0.77828   0.00000  Uiso   1.00
N801   N     0.04759   0.50001   0.75001   0.00000  Uiso   1.00
N802   N     0.28574   0.49999   0.74999   0.00000  Uiso   1.00
F803   F     0.04295   0.56703   0.54957   0.00000  Uiso   1.00
F804   F     0.30642   0.48474   0.93978   0.00000  Uiso   1.00
Br805  Br    0.07890   0.43420   0.68080   0.00000  Uiso   1.00
Br806  Br    0.25442   0.56578   0.81927   0.00000  Uiso   1.00
O807   O     0.46179   0.56108   0.75000   0.00000  Uiso   1.00
O808   O     0.53821   0.43892   0.75000   0.00000  Uiso   1.00
O809   O     0.53823   0.56107   0.75000   0.00000  Uiso   1.00
O810   O     0.46177   0.43893   0.75000   0.00000  Uiso   1.00
C811   C     0.50004   0.57999   0.75015   0.00000  Uiso   1.00
C812   C     0.49995   0.42001   0.74987   0.00000  Uiso   1.00
O813   O     0.43994   0.50001   0.81613   0.00000  Uiso   1.00
O814   O     0.56006   0.49999   0.68387   0.00000  Uiso   1.00
O815   O     0.51639   0.50000   0.81612   0.00000  Uiso   1.00
O816   O     0.48361   0.50000   0.68388   0.00000  Uiso   1.00
C817   C     0.46961   0.50048   0.83788   0.00000  Uiso   1.00
C818   C     0.53042   0.50052   0.66210   0.00000  Uiso   1.00
Zn819  Zn    0.44896   0.50001   0.75000   0.00000  Uiso   1.00
Zn820  Zn    0.55104   0.49999   0.75000   0.00000  Uiso   1.00
C821   C     0.45132   0.50682   0.88803   0.00000  Uiso   1.00
C822   C     0.54958   0.50310   0.61156   0.00000  Uiso   1.00
C823   C     0.39567   0.53950   0.95816   0.00000  Uiso   1.00
C824   C     0.61311   0.49233   0.53617   0.00000  Uiso   1.00
C825   C     0.40704   0.52673   0.91216   0.00000  Uiso   1.00
C826   C     0.59786   0.49318   0.58444   0.00000  Uiso   1.00
C827   C     0.48328   0.49901   0.91011   0.00000  Uiso   1.00
C828   C     0.51775   0.51476   0.59043   0.00000  Uiso   1.00
C829   C     0.47531   0.51566   0.95404   0.00000  Uiso   1.00
C830   C     0.53220   0.51468   0.54217   0.00000  Uiso   1.00
C831   C     0.42972   0.53444   0.97928   0.00000  Uiso   1.00
C832   C     0.58021   0.50166   0.51483   0.00000  Uiso   1.00
C833   C     0.51146   0.51356   0.97340   0.00000  Uiso   1.00
C834   C     0.49877   0.52388   0.52086   0.00000  Uiso   1.00
C835   C     0.45307   0.54276   0.54541   0.00000  Uiso   1.00
C836   C     0.56014   0.50233   0.94653   0.00000  Uiso   1.00
C837   C     0.41937   0.54838   0.52472   0.00000  Uiso   1.00
C838   C     0.59405   0.49693   0.96688   0.00000  Uiso   1.00
H839   H     0.48069   0.52146   0.61251   0.00000  Uiso   1.00
H840   H     0.51510   0.48057   0.89163   0.00000  Uiso   1.00
H841   H     0.62314   0.48457   0.60047   0.00000  Uiso   1.00
H842   H     0.38218   0.53361   0.89509   0.00000  Uiso   1.00
H843   H     0.36110   0.55462   0.97651   0.00000  Uiso   1.00
H844   H     0.65007   0.48292   0.51576   0.00000  Uiso   1.00
H845   H     0.44301   0.55502   0.58027   0.00000  Uiso   1.00
H846   H     0.57346   0.49847   0.90925   0.00000  Uiso   1.00
C847   C     0.54390   0.64549   0.74007   0.00000  Uiso   1.00
C848   C     0.45608   0.35451   0.76000   0.00000  Uiso   1.00
H849   H     0.57811   0.62936   0.73196   0.00000  Uiso   1.00
H850   H     0.42187   0.37064   0.76810   0.00000  Uiso   1.00
C851   C     0.54386   0.35479   0.73980   0.00000  Uiso   1.00
C852   C     0.45612   0.64520   0.76027   0.00000  Uiso   1.00
H853   H     0.57808   0.37114   0.73152   0.00000  Uiso   1.00
H854   H     0.42189   0.62885   0.76855   0.00000  Uiso   1.00
C855   C     0.49994   0.37583   0.74979   0.00000  Uiso   1.00
C856   C     0.50004   0.62416   0.75026   0.00000  Uiso   1.00
C857   C     0.65324   0.47338   0.72187   0.00000  Uiso   1.00
C858   C     0.34675   0.52660   0.77816   0.00000  Uiso   1.00
H859   H     0.64353   0.45214   0.69941   0.00000  Uiso   1.00
H860   H     0.35645   0.54783   0.80064   0.00000  Uiso   1.00
C861   C     0.36764   0.47322   0.72175   0.00000  Uiso   1.00
C862   C     0.63235   0.52677   0.77828   0.00000  Uiso   1.00
N863   N     0.38093   0.50001   0.75001   0.00000  Uiso   1.00
N864   N     0.61907   0.49999   0.74999   0.00000  Uiso   1.00
F865   F     0.37629   0.56703   0.54957   0.00000  Uiso   1.00
F866   F     0.63975   0.48474   0.93978   0.00000  Uiso   1.00
Br867  Br    0.41224   0.43420   0.68080   0.00000  Uiso   1.00
Br868  Br    0.58776   0.56578   0.81927   0.00000  Uiso   1.00
O869   O     0.79512   0.56108   0.75000   0.00000  Uiso   1.00
O870   O     0.87154   0.43892   0.75000   0.00000  Uiso   1.00
O871   O     0.87157   0.56107   0.75000   0.00000  Uiso   1.00
O872   O     0.79510   0.43893   0.75000   0.00000  Uiso   1.00
C873   C     0.83338   0.57999   0.75015   0.00000  Uiso   1.00
C874   C     0.83328   0.42001   0.74987   0.00000  Uiso   1.00
O875   O     0.77328   0.50001   0.81613   0.00000  Uiso   1.00
O876   O     0.89339   0.49999   0.68387   0.00000  Uiso   1.00
O877   O     0.84972   0.50000   0.81612   0.00000  Uiso   1.00
O878   O     0.81695   0.50000   0.68388   0.00000  Uiso   1.00
C879   C     0.80294   0.50048   0.83788   0.00000  Uiso   1.00
C880   C     0.86376   0.50052   0.66210   0.00000  Uiso   1.00
Zn881  Zn    0.78229   0.50001   0.75000   0.00000  Uiso   1.00
Zn882  Zn    0.88438   0.49999   0.75000   0.00000  Uiso   1.00
C883   C     0.78465   0.50682   0.88803   0.00000  Uiso   1.00
C884   C     0.88291   0.50310   0.61156   0.00000  Uiso   1.00
C885   C     0.72901   0.53950   0.95816   0.00000  Uiso   1.00
C886   C     0.94645   0.49233   0.53617   0.00000  Uiso   1.00
C887   C     0.74038   0.52673   0.91216   0.00000  Uiso   1.00
C888   C     0.93119   0.49318   0.58444   0.00000  Uiso   1.00
C889   C     0.81661   0.49901   0.91011   0.00000  Uiso   1.00
C890   C     0.85108   0.51476   0.59043   0.00000  Uiso   1.00
C891   C     0.80864   0.51566   0.95404   0.00000  Uiso   1.00
C892   C     0.86553   0.51468   0.54217   0.00000  Uiso   1.00
C893   C     0.76306   0.53444   0.97928   0.00000  Uiso   1.00
C894   C     0.91355   0.50166   0.51483   0.00000  Uiso   1.00
C895   C     0.84480   0.51356   0.97340   0.00000  Uiso   1.00
C896   C     0.83210   0.52388   0.52086   0.00000  Uiso   1.00
C897   C     0.78640   0.54276   0.54541   0.00000  Uiso   1.00
C898   C     0.89347   0.50233   0.94653   0.00000  Uiso   1.00
C899   C     0.75270   0.54838   0.52472   0.00000  Uiso   1.00
C900   C     0.92738   0.49693   0.96688   0.00000  Uiso   1.00
H901   H     0.81402   0.52146   0.61251   0.00000  Uiso   1.00
H902   H     0.84844   0.48057   0.89163   0.00000  Uiso   1.00
H903   H     0.95647   0.48457   0.60047   0.00000  Uiso   1.00
H904   H     0.71551   0.53361   0.89509   0.00000  Uiso   1.00
H905   H     0.69443   0.55462   0.97651   0.00000  Uiso   1.00
H906   H     0.98340   0.48292   0.51576   0.00000  Uiso   1.00
H907   H     0.77634   0.55502   0.58027   0.00000  Uiso   1.00
H908   H     0.90679   0.49847   0.90925   0.00000  Uiso   1.00
C909   C     0.87723   0.64549   0.74007   0.00000  Uiso   1.00
C910   C     0.78941   0.35451   0.76000   0.00000  Uiso   1.00
H911   H     0.91144   0.62936   0.73196   0.00000  Uiso   1.00
H912   H     0.75520   0.37064   0.76810   0.00000  Uiso   1.00
C913   C     0.87719   0.35479   0.73980   0.00000  Uiso   1.00
C914   C     0.78945   0.64520   0.76027   0.00000  Uiso   1.00
H915   H     0.91142   0.37114   0.73152   0.00000  Uiso   1.00
H916   H     0.75523   0.62885   0.76855   0.00000  Uiso   1.00
C917   C     0.83327   0.37583   0.74979   0.00000  Uiso   1.00
C918   C     0.83337   0.62416   0.75026   0.00000  Uiso   1.00
C919   C     0.98657   0.47338   0.72187   0.00000  Uiso   1.00
C920   C     0.68009   0.52660   0.77816   0.00000  Uiso   1.00
H921   H     0.97687   0.45214   0.69941   0.00000  Uiso   1.00
H922   H     0.68978   0.54783   0.80064   0.00000  Uiso   1.00
C923   C     0.70098   0.47322   0.72175   0.00000  Uiso   1.00
C924   C     0.96568   0.52677   0.77828   0.00000  Uiso   1.00
N925   N     0.71426   0.50001   0.75001   0.00000  Uiso   1.00
N926   N     0.95241   0.49999   0.74999   0.00000  Uiso   1.00
F927   F     0.70962   0.56703   0.54957   0.00000  Uiso   1.00
F928   F     0.97309   0.48474   0.93978   0.00000  Uiso   1.00
Br929  Br    0.74557   0.43420   0.68080   0.00000  Uiso   1.00
Br930  Br    0.92109   0.56578   0.81927   0.00000  Uiso   1.00
O931   O     0.12846   0.89442   0.75000   0.00000  Uiso   1.00
O932   O     0.20488   0.77225   0.75000   0.00000  Uiso   1.00
O933   O     0.20490   0.89441   0.75000   0.00000  Uiso   1.00
O934   O     0.12843   0.77226   0.75000   0.00000  Uiso   1.00
C935   C     0.16671   0.91332   0.75015   0.00000  Uiso   1.00
C936   C     0.16662   0.75335   0.74987   0.00000  Uiso   1.00
O937   O     0.10661   0.83334   0.81613   0.00000  Uiso   1.00
O938   O     0.22672   0.83333   0.68387   0.00000  Uiso   1.00
O939   O     0.18305   0.83333   0.81612   0.00000  Uiso   1.00
O940   O     0.15028   0.83334   0.68388   0.00000  Uiso   1.00
C941   C     0.13628   0.83382   0.83788   0.00000  Uiso   1.00
C942   C     0.19709   0.83386   0.66210   0.00000  Uiso   1.00
Zn943  Zn    0.11562   0.83334   0.75000   0.00000  Uiso   1.00
Zn944  Zn    0.21771   0.83333   0.75000   0.00000  Uiso   1.00
C945   C     0.11798   0.84015   0.88803   0.00000  Uiso   1.00
C946   C     0.21624   0.83643   0.61156   0.00000  Uiso   1.00
C947   C     0.06234   0.87283   0.95816   0.00000  Uiso   1.00
C948   C     0.27978   0.82566   0.53617   0.00000  Uiso   1.00
C949   C     0.07371   0.86007   0.91216   0.00000  Uiso   1.00
C950   C     0.26453   0.82651   0.58444   0.00000  Uiso   1.00
C951   C     0.14995   0.83235   0.91011   0.00000  Uiso   1.00
C952   C     0.18442   0.84809   0.59043   0.00000  Uiso   1.00
C953   C     0.14197   0.84899   0.95404   0.00000  Uiso   1.00
C954   C     0.19887   0.84801   0.54217   0.00000  Uiso   1.00
C955   C     0.09639   0.86777   0.97928   0.00000  Uiso   1.00
C956   C     0.24688   0.83499   0.51483   0.00000  Uiso   1.00
C957   C     0.17813   0.84689   0.97340   0.00000  Uiso   1.00
C958   C     0.16544   0.85721   0.52086   0.00000  Uiso   1.00
C959   C     0.11973   0.87609   0.54541   0.00000  Uiso   1.00
C960   C     0.22681   0.83566   0.94653   0.00000  Uiso   1.00
C961   C     0.08603   0.88171   0.52472   0.00000  Uiso   1.00
C962   C     0.26072   0.83026   0.96688   0.00000  Uiso   1.00
H963   H     0.14735   0.85480   0.61251   0.00000  Uiso   1.00
H964   H     0.18177   0.81390   0.89163   0.00000  Uiso   1.00
H965   H     0.28981   0.81790   0.60047   0.00000  Uiso   1.00
H966   H     0.04885   0.86694   0.89509   0.00000  Uiso   1.00
H967   H     0.02777   0.88795   0.97651   0.00000  Uiso   1.00
H968   H     0.31674   0.81626   0.51576   0.00000  Uiso   1.00
H969   H     0.10968   0.88835   0.58027   0.00000  Uiso   1.00
H970   H     0.24013   0.83180   0.90925   0.00000  Uiso   1.00
C971   C     0.21056   0.97882   0.74007   0.00000  Uiso   1.00
C972   C     0.12275   0.68784   0.76000   0.00000  Uiso   1.00
H973   H     0.24478   0.96269   0.73196   0.00000  Uiso   1.00
H974   H     0.08854   0.70397   0.76810   0.00000  Uiso   1.00
C975   C     0.21053   0.68812   0.73980   0.00000  Uiso   1.00
C976   C     0.12279   0.97854   0.76027   0.00000  Uiso   1.00
H977   H     0.24475   0.70447   0.73152   0.00000  Uiso   1.00
H978   H     0.08856   0.96219   0.76855   0.00000  Uiso   1.00
C979   C     0.16661   0.70917   0.74979   0.00000  Uiso   1.00
C980   C     0.16671   0.95750   0.75026   0.00000  Uiso   1.00
C981   C     0.31990   0.80671   0.72187   0.00000  Uiso   1.00
C982   C     0.01342   0.85994   0.77816   0.00000  Uiso   1.00
H983   H     0.31020   0.78547   0.69941   0.00000  Uiso   1.00
H984   H     0.02312   0.88116   0.80064   0.00000  Uiso   1.00
C985   C     0.03431   0.80655   0.72175   0.00000  Uiso   1.00
C986   C     0.29901   0.86010   0.77828   0.00000  Uiso   1.00
N987   N     0.04759   0.83334   0.75001   0.00000  Uiso   1.00
N988   N     0.28574   0.83332   0.74999   0.00000  Uiso   1.00
F989   F     0.04295   0.90036   0.54957   0.00000  Uiso   1.00
F990   F     0.30642   0.81807   0.93978   0.00000  Uiso   1.00
Br991  Br    0.07890   0.76753   0.68080   0.00000  Uiso   1.00
Br992  Br    0.25442   0.89911   0.81927   0.00000  Uiso   1.00
O993   O     0.46179   0.89442   0.75000   0.00000  Uiso   1.00
O994   O     0.53821   0.77225   0.75000   0.00000  Uiso   1.00
O995   O     0.53823   0.89441   0.75000   0.00000  Uiso   1.00
O996   O     0.46177   0.77226   0.75000   0.00000  Uiso   1.00
C997   C     0.50004   0.91332   0.75015   0.00000  Uiso   1.00
C998   C     0.49995   0.75335   0.74987   0.00000  Uiso   1.00
O999   O     0.43994   0.83334   0.81613   0.00000  Uiso   1.00
O1000  O     0.56006   0.83333   0.68387   0.00000  Uiso   1.00
O1001  O     0.51639   0.83333   0.81612   0.00000  Uiso   1.00
O1002  O     0.48361   0.83334   0.68388   0.00000  Uiso   1.00
C1003  C     0.46961   0.83382   0.83788   0.00000  Uiso   1.00
C1004  C     0.53042   0.83386   0.66210   0.00000  Uiso   1.00
Zn1005 Zn    0.44896   0.83334   0.75000   0.00000  Uiso   1.00
Zn1006 Zn    0.55104   0.83333   0.75000   0.00000  Uiso   1.00
C1007  C     0.45132   0.84015   0.88803   0.00000  Uiso   1.00
C1008  C     0.54958   0.83643   0.61156   0.00000  Uiso   1.00
C1009  C     0.39567   0.87283   0.95816   0.00000  Uiso   1.00
C1010  C     0.61311   0.82566   0.53617   0.00000  Uiso   1.00
C1011  C     0.40704   0.86007   0.91216   0.00000  Uiso   1.00
C1012  C     0.59786   0.82651   0.58444   0.00000  Uiso   1.00
C1013  C     0.48328   0.83235   0.91011   0.00000  Uiso   1.00
C1014  C     0.51775   0.84809   0.59043   0.00000  Uiso   1.00
C1015  C     0.47531   0.84899   0.95404   0.00000  Uiso   1.00
C1016  C     0.53220   0.84801   0.54217   0.00000  Uiso   1.00
C1017  C     0.42972   0.86777   0.97928   0.00000  Uiso   1.00
C1018  C     0.58021   0.83499   0.51483   0.00000  Uiso   1.00
C1019  C     0.51146   0.84689   0.97340   0.00000  Uiso   1.00
C1020  C     0.49877   0.85721   0.52086   0.00000  Uiso   1.00
C1021  C     0.45307   0.87609   0.54541   0.00000  Uiso   1.00
C1022  C     0.56014   0.83566   0.94653   0.00000  Uiso   1.00
C1023  C     0.41937   0.88171   0.52472   0.00000  Uiso   1.00
C1024  C     0.59405   0.83026   0.96688   0.00000  Uiso   1.00
H1025  H     0.48069   0.85480   0.61251   0.00000  Uiso   1.00
H1026  H     0.51510   0.81390   0.89163   0.00000  Uiso   1.00
H1027  H     0.62314   0.81790   0.60047   0.00000  Uiso   1.00
H1028  H     0.38218   0.86694   0.89509   0.00000  Uiso   1.00
H1029  H     0.36110   0.88795   0.97651   0.00000  Uiso   1.00
H1030  H     0.65007   0.81626   0.51576   0.00000  Uiso   1.00
H1031  H     0.44301   0.88835   0.58027   0.00000  Uiso   1.00
H1032  H     0.57346   0.83180   0.90925   0.00000  Uiso   1.00
C1033  C     0.54390   0.97882   0.74007   0.00000  Uiso   1.00
C1034  C     0.45608   0.68784   0.76000   0.00000  Uiso   1.00
H1035  H     0.57811   0.96269   0.73196   0.00000  Uiso   1.00
H1036  H     0.42187   0.70397   0.76810   0.00000  Uiso   1.00
C1037  C     0.54386   0.68812   0.73980   0.00000  Uiso   1.00
C1038  C     0.45612   0.97854   0.76027   0.00000  Uiso   1.00
H1039  H     0.57808   0.70447   0.73152   0.00000  Uiso   1.00
H1040  H     0.42189   0.96219   0.76855   0.00000  Uiso   1.00
C1041  C     0.49994   0.70917   0.74979   0.00000  Uiso   1.00
C1042  C     0.50004   0.95750   0.75026   0.00000  Uiso   1.00
C1043  C     0.65324   0.80671   0.72187   0.00000  Uiso   1.00
C1044  C     0.34675   0.85994   0.77816   0.00000  Uiso   1.00
H1045  H     0.64353   0.78547   0.69941   0.00000  Uiso   1.00
H1046  H     0.35645   0.88116   0.80064   0.00000  Uiso   1.00
C1047  C     0.36764   0.80655   0.72175   0.00000  Uiso   1.00
C1048  C     0.63235   0.86010   0.77828   0.00000  Uiso   1.00
N1049  N     0.38093   0.83334   0.75001   0.00000  Uiso   1.00
N1050  N     0.61907   0.83332   0.74999   0.00000  Uiso   1.00
F1051  F     0.37629   0.90036   0.54957   0.00000  Uiso   1.00
F1052  F     0.63975   0.81807   0.93978   0.00000  Uiso   1.00
Br1053 Br    0.41224   0.76753   0.68080   0.00000  Uiso   1.00
Br1054 Br    0.58776   0.89911   0.81927   0.00000  Uiso   1.00
O1055  O     0.79512   0.89442   0.75000   0.00000  Uiso   1.00
O1056  O     0.87154   0.77225   0.75000   0.00000  Uiso   1.00
O1057  O     0.87157   0.89441   0.75000   0.00000  Uiso   1.00
O1058  O     0.79510   0.77226   0.75000   0.00000  Uiso   1.00
C1059  C     0.83338   0.91332   0.75015   0.00000  Uiso   1.00
C1060  C     0.83328   0.75335   0.74987   0.00000  Uiso   1.00
O1061  O     0.77328   0.83334   0.81613   0.00000  Uiso   1.00
O1062  O     0.89339   0.83333   0.68387   0.00000  Uiso   1.00
O1063  O     0.84972   0.83333   0.81612   0.00000  Uiso   1.00
O1064  O     0.81695   0.83334   0.68388   0.00000  Uiso   1.00
C1065  C     0.80294   0.83382   0.83788   0.00000  Uiso   1.00
C1066  C     0.86376   0.83386   0.66210   0.00000  Uiso   1.00
Zn1067 Zn    0.78229   0.83334   0.75000   0.00000  Uiso   1.00
Zn1068 Zn    0.88438   0.83333   0.75000   0.00000  Uiso   1.00
C1069  C     0.78465   0.84015   0.88803   0.00000  Uiso   1.00
C1070  C     0.88291   0.83643   0.61156   0.00000  Uiso   1.00
C1071  C     0.72901   0.87283   0.95816   0.00000  Uiso   1.00
C1072  C     0.94645   0.82566   0.53617   0.00000  Uiso   1.00
C1073  C     0.74038   0.86007   0.91216   0.00000  Uiso   1.00
C1074  C     0.93119   0.82651   0.58444   0.00000  Uiso   1.00
C1075  C     0.81661   0.83235   0.91011   0.00000  Uiso   1.00
C1076  C     0.85108   0.84809   0.59043   0.00000  Uiso   1.00
C1077  C     0.80864   0.84899   0.95404   0.00000  Uiso   1.00
C1078  C     0.86553   0.84801   0.54217   0.00000  Uiso   1.00
C1079  C     0.76306   0.86777   0.97928   0.00000  Uiso   1.00
C1080  C     0.91355   0.83499   0.51483   0.00000  Uiso   1.00
C1081  C     0.84480   0.84689   0.97340   0.00000  Uiso   1.00
C1082  C     0.83210   0.85721   0.52086   0.00000  Uiso   1.00
C1083  C     0.78640   0.87609   0.54541   0.00000  Uiso   1.00
C1084  C     0.89347   0.83566   0.94653   0.00000  Uiso   1.00
C1085  C     0.75270   0.88171   0.52472   0.00000  Uiso   1.00
C1086  C     0.92738   0.83026   0.96688   0.00000  Uiso   1.00
H1087  H     0.81402   0.85480   0.61251   0.00000  Uiso   1.00
H1088  H     0.84844   0.81390   0.89163   0.00000  Uiso   1.00
H1089  H     0.95647   0.81790   0.60047   0.00000  Uiso   1.00
H1090  H     0.71551   0.86694   0.89509   0.00000  Uiso   1.00
H1091  H     0.69443   0.88795   0.97651   0.00000  Uiso   1.00
H1092  H     0.98340   0.81626   0.51576   0.00000  Uiso   1.00
H1093  H     0.77634   0.88835   0.58027   0.00000  Uiso   1.00
H1094  H     0.90679   0.83180   0.90925   0.00000  Uiso   1.00
C1095  C     0.87723   0.97882   0.74007   0.00000  Uiso   1.00
C1096  C     0.78941   0.68784   0.76000   0.00000  Uiso   1.00
H1097  H     0.91144   0.96269   0.73196   0.00000  Uiso   1.00
H1098  H     0.75520   0.70397   0.76810   0.00000  Uiso   1.00
C1099  C     0.87719   0.68812   0.73980   0.00000  Uiso   1.00
C1100  C     0.78945   0.97854   0.76027   0.00000  Uiso   1.00
H1101  H     0.91142   0.70447   0.73152   0.00000  Uiso   1.00
H1102  H     0.75523   0.96219   0.76855   0.00000  Uiso   1.00
C1103  C     0.83327   0.70917   0.74979   0.00000  Uiso   1.00
C1104  C     0.83337   0.95750   0.75026   0.00000  Uiso   1.00
C1105  C     0.98657   0.80671   0.72187   0.00000  Uiso   1.00
C1106  C     0.68009   0.85994   0.77816   0.00000  Uiso   1.00
H1107  H     0.97687   0.78547   0.69941   0.00000  Uiso   1.00
H1108  H     0.68978   0.88116   0.80064   0.00000  Uiso   1.00
C1109  C     0.70098   0.80655   0.72175   0.00000  Uiso   1.00
C1110  C     0.96568   0.86010   0.77828   0.00000  Uiso   1.00
N1111  N     0.71426   0.83334   0.75001   0.00000  Uiso   1.00
N1112  N     0.95241   0.83332   0.74999   0.00000  Uiso   1.00
F1113  F     0.70962   0.90036   0.54957   0.00000  Uiso   1.00
F1114  F     0.97309   0.81807   0.93978   0.00000  Uiso   1.00
Br1115 Br    0.74557   0.76753   0.68080   0.00000  Uiso   1.00
Br1116 Br    0.92109   0.89911   0.81927   0.00000  Uiso   1.00
loop_
_geom_bond_atom_site_label_1
_geom_bond_atom_site_label_2
_geom_bond_distance
_geom_bond_site_symmetry_2
_ccdc_geom_bond_type
O1     C5      1.286   .     A
O1     Zn13    1.997   .     S
O2     Zn14    1.997   .     S
O2     C6      1.286   .     A
O3     Zn14    2.001   .     S
O3     C5      1.288   .     A
O4     C6      1.288   .     A
O4     Zn13    2.001   .     S
C5     C50     1.419   .     S
C6     C49     1.419   .     S
O7     Zn13    1.967   .     S
O7     C11     1.295   .     A
O8     C12     1.295   .     A
O8     Zn14    1.967   .     S
O9     Zn14    1.919   .     S
O9     C11     1.296   .     A
O10    C12     1.297   .     A
O10    Zn13    1.919   .     S
C11    C15     1.455   .     S
C12    C16     1.457   .     S
Zn13   N57     2.019   .     S
Zn14   N58     2.019   .     S
C15    C21     1.389   .     A
C15    C19     1.399   .     A
C16    C20     1.399   .     A
C16    C22     1.392   .     A
C17    C25     1.407   .     A
C17    H37     1.083   .     S
C17    C19     1.395   .     A
C18    C20     1.393   .     A
C18    C26     1.406   .     A
C18    H38     1.083   .     S
C19    H36     1.083   .     S
C20    H35     1.083   .     S
C21    C23     1.393   .     A
C21    H34     1.079   .     S
C22    C24     1.395   .     A
C22    H33     1.077   .     S
C23    C27     1.415   .     A
C23    C25     1.418   .     A
C24    C28     1.418   .     A
C24    C26     1.420   .     A
C25    C589    1.395   .     S
C26    C590    1.394   1_554 S
C27    C30     1.417   .     A
C27    C586    1.412   .     S
C28    C29     1.418   .     A
C28    C585    1.412   1_554 S
C29    H39     1.078   .     S
C29    C31     1.390   .     A
C30    C32     1.387   .     A
C30    H40     1.079   .     S
C31    F59     1.359   .     S
C31    C583    1.395   1_554 S
C32    F60     1.357   .     S
C32    C584    1.394   .     S
C41    H43     1.084   .     S
C41    C50     1.396   .     A
C41    C231    1.370   .     S
C42    H44     1.084   .     S
C42    C49     1.396   .     A
C42    C418    1.370   1_545 S
C45    C49     1.398   .     A
C45    H47     1.084   .     S
C45    C413    1.370   1_545 S
C46    C50     1.398   .     A
C46    H48     1.084   .     S
C46    C228    1.370   .     S
C51    N58     1.360   .     A
C51    H53     1.082   .     S
C51    C117    1.416   .     S
C52    H54     1.082   .     S
C52    N57     1.360   .     A
C52    C180    1.416   1_455 S
C55    Br61    1.912   .     S
C55    N57     1.379   .     A
C55    C175    1.416   1_455 S
C56    N58     1.379   .     A
C56    Br62    1.912   .     S
C56    C114    1.416   .     S
O63    C67     1.286   .     A
O63    Zn75    1.997   .     S
O64    Zn76    1.997   .     S
O64    C68     1.286   .     A
O65    Zn76    2.001   .     S
O65    C67     1.288   .     A
O66    C68     1.288   .     A
O66    Zn75    2.001   .     S
C67    C112    1.419   .     S
C68    C111    1.419   .     S
O69    Zn75    1.967   .     S
O69    C73     1.295   .     A
O70    C74     1.295   .     A
O70    Zn76    1.967   .     S
O71    Zn76    1.919   .     S
O71    C73     1.296   .     A
O72    C74     1.297   .     A
O72    Zn75    1.919   .     S
C73    C77     1.455   .     S
C74    C78     1.457   .     S
Zn75   N119    2.019   .     S
Zn76   N120    2.019   .     S
C77    C83     1.389   .     A
C77    C81     1.399   .     A
C78    C82     1.399   .     A
C78    C84     1.392   .     A
C79    C87     1.407   .     A
C79    H99     1.083   .     S
C79    C81     1.395   .     A
C80    C82     1.393   .     A
C80    C88     1.406   .     A
C80    H100    1.083   .     S
C81    H98     1.083   .     S
C82    H97     1.083   .     S
C83    C85     1.393   .     A
C83    H96     1.079   .     S
C84    C86     1.395   .     A
C84    H95     1.077   .     S
C85    C89     1.415   .     A
C85    C87     1.418   .     A
C86    C90     1.418   .     A
C86    C88     1.420   .     A
C87    C651    1.395   .     S
C88    C652    1.394   1_554 S
C89    C92     1.417   .     A
C89    C648    1.412   .     S
C90    C91     1.418   .     A
C90    C647    1.412   1_554 S
C91    H101    1.078   .     S
C91    C93     1.390   .     A
C92    C94     1.387   .     A
C92    H102    1.079   .     S
C93    F121    1.359   .     S
C93    C645    1.395   1_554 S
C94    F122    1.357   .     S
C94    C646    1.394   .     S
C103   H105    1.084   .     S
C103   C112    1.396   .     A
C103   C293    1.370   .     S
C104   H106    1.084   .     S
C104   C111    1.396   .     A
C104   C480    1.370   1_545 S
C107   C111    1.398   .     A
C107   H109    1.084   .     S
C107   C475    1.370   1_545 S
C108   C112    1.398   .     A
C108   H110    1.084   .     S
C108   C290    1.370   .     S
C113   N120    1.360   .     A
C113   H115    1.082   .     S
C113   C179    1.416   .     S
C114   H116    1.082   .     S
C114   N119    1.360   .     A
C117   Br123   1.912   .     S
C117   N119    1.379   .     A
C118   N120    1.379   .     A
C118   Br124   1.912   .     S
C118   C176    1.416   .     S
O125   C129    1.286   .     A
O125   Zn137   1.997   .     S
O126   Zn138   1.997   .     S
O126   C130    1.286   .     A
O127   Zn138   2.001   .     S
O127   C129    1.288   .     A
O128   C130    1.288   .     A
O128   Zn137   2.001   .     S
C129   C174    1.419   .     S
C130   C173    1.419   .     S
O131   Zn137   1.967   .     S
O131   C135    1.295   .     A
O132   C136    1.295   .     A
O132   Zn138   1.967   .     S
O133   Zn138   1.919   .     S
O133   C135    1.296   .     A
O134   C136    1.297   .     A
O134   Zn137   1.919   .     S
C135   C139    1.455   .     S
C136   C140    1.457   .     S
Zn137  N181    2.019   .     S
Zn138  N182    2.019   .     S
C139   C145    1.389   .     A
C139   C143    1.399   .     A
C140   C144    1.399   .     A
C140   C146    1.392   .     A
C141   C149    1.407   .     A
C141   H161    1.083   .     S
C141   C143    1.395   .     A
C142   C144    1.393   .     A
C142   C150    1.406   .     A
C142   H162    1.083   .     S
C143   H160    1.083   .     S
C144   H159    1.083   .     S
C145   C147    1.393   .     A
C145   H158    1.079   .     S
C146   C148    1.395   .     A
C146   H157    1.077   .     S
C147   C151    1.415   .     A
C147   C149    1.418   .     A
C148   C152    1.418   .     A
C148   C150    1.420   .     A
C149   C713    1.395   .     S
C150   C714    1.394   1_554 S
C151   C154    1.417   .     A
C151   C710    1.412   .     S
C152   C153    1.418   .     A
C152   C709    1.412   1_554 S
C153   H163    1.078   .     S
C153   C155    1.390   .     A
C154   C156    1.387   .     A
C154   H164    1.079   .     S
C155   F183    1.359   .     S
C155   C707    1.395   1_554 S
C156   F184    1.357   .     S
C156   C708    1.394   .     S
C165   H167    1.084   .     S
C165   C174    1.396   .     A
C165   C355    1.370   .     S
C166   H168    1.084   .     S
C166   C173    1.396   .     A
C166   C542    1.370   1_545 S
C169   C173    1.398   .     A
C169   H171    1.084   .     S
C169   C537    1.370   1_545 S
C170   C174    1.398   .     A
C170   H172    1.084   .     S
C170   C352    1.370   .     S
C175   N182    1.360   .     A
C175   H177    1.082   .     S
C175   C55     1.416   1_655 S
C176   H178    1.082   .     S
C176   N181    1.360   .     A
C179   Br185   1.912   .     S
C179   N181    1.379   .     A
C180   N182    1.379   .     A
C180   Br186   1.912   .     S
C180   C52     1.416   1_655 S
O187   C191    1.286   .     A
O187   Zn199   1.997   .     S
O188   Zn200   1.997   .     S
O188   C192    1.286   .     A
O189   Zn200   2.001   .     S
O189   C191    1.288   .     A
O190   C192    1.288   .     A
O190   Zn199   2.001   .     S
C191   C236    1.419   .     S
C192   C235    1.419   .     S
O193   Zn199   1.967   .     S
O193   C197    1.295   .     A
O194   C198    1.295   .     A
O194   Zn200   1.967   .     S
O195   Zn200   1.919   .     S
O195   C197    1.296   .     A
O196   C198    1.297   .     A
O196   Zn199   1.919   .     S
C197   C201    1.455   .     S
C198   C202    1.457   .     S
Zn199  N243    2.019   .     S
Zn200  N244    2.019   .     S
C201   C207    1.389   .     A
C201   C205    1.399   .     A
C202   C206    1.399   .     A
C202   C208    1.392   .     A
C203   C211    1.407   .     A
C203   H223    1.083   .     S
C203   C205    1.395   .     A
C204   C206    1.393   .     A
C204   C212    1.406   .     A
C204   H224    1.083   .     S
C205   H222    1.083   .     S
C206   H221    1.083   .     S
C207   C209    1.393   .     A
C207   H220    1.079   .     S
C208   C210    1.395   .     A
C208   H219    1.077   .     S
C209   C213    1.415   .     A
C209   C211    1.418   .     A
C210   C214    1.418   .     A
C210   C212    1.420   .     A
C211   C775    1.395   .     S
C212   C776    1.394   1_554 S
C213   C216    1.417   .     A
C213   C772    1.412   .     S
C214   C215    1.418   .     A
C214   C771    1.412   1_554 S
C215   H225    1.078   .     S
C215   C217    1.390   .     A
C216   C218    1.387   .     A
C216   H226    1.079   .     S
C217   F245    1.359   .     S
C217   C769    1.395   1_554 S
C218   F246    1.357   .     S
C218   C770    1.394   .     S
C227   H229    1.084   .     S
C227   C236    1.396   .     A
C227   C417    1.370   .     S
C228   H230    1.084   .     S
C228   C235    1.396   .     A
C231   C235    1.398   .     A
C231   H233    1.084   .     S
C232   C236    1.398   .     A
C232   H234    1.084   .     S
C232   C414    1.370   .     S
C237   N244    1.360   .     A
C237   H239    1.082   .     S
C237   C303    1.416   .     S
C238   H240    1.082   .     S
C238   N243    1.360   .     A
C238   C366    1.416   1_455 S
C241   Br247   1.912   .     S
C241   N243    1.379   .     A
C241   C361    1.416   1_455 S
C242   N244    1.379   .     A
C242   Br248   1.912   .     S
C242   C300    1.416   .     S
O249   C253    1.286   .     A
O249   Zn261   1.997   .     S
O250   Zn262   1.997   .     S
O250   C254    1.286   .     A
O251   Zn262   2.001   .     S
O251   C253    1.288   .     A
O252   C254    1.288   .     A
O252   Zn261   2.001   .     S
C253   C298    1.419   .     S
C254   C297    1.419   .     S
O255   Zn261   1.967   .     S
O255   C259    1.295   .     A
O256   C260    1.295   .     A
O256   Zn262   1.967   .     S
O257   Zn262   1.919   .     S
O257   C259    1.296   .     A
O258   C260    1.297   .     A
O258   Zn261   1.919   .     S
C259   C263    1.455   .     S
C260   C264    1.457   .     S
Zn261  N305    2.019   .     S
Zn262  N306    2.019   .     S
C263   C269    1.389   .     A
C263   C267    1.399   .     A
C264   C268    1.399   .     A
C264   C270    1.392   .     A
C265   C273    1.407   .     A
C265   H285    1.083   .     S
C265   C267    1.395   .     A
C266   C268    1.393   .     A
C266   C274    1.406   .     A
C266   H286    1.083   .     S
C267   H284    1.083   .     S
C268   H283    1.083   .     S
C269   C271    1.393   .     A
C269   H282    1.079   .     S
C270   C272    1.395   .     A
C270   H281    1.077   .     S
C271   C275    1.415   .     A
C271   C273    1.418   .     A
C272   C276    1.418   .     A
C272   C274    1.420   .     A
C273   C837    1.395   .     S
C274   C838    1.394   1_554 S
C275   C278    1.417   .     A
C275   C834    1.412   .     S
C276   C277    1.418   .     A
C276   C833    1.412   1_554 S
C277   H287    1.078   .     S
C277   C279    1.390   .     A
C278   C280    1.387   .     A
C278   H288    1.079   .     S
C279   F307    1.359   .     S
C279   C831    1.395   1_554 S
C280   F308    1.357   .     S
C280   C832    1.394   .     S
C289   H291    1.084   .     S
C289   C298    1.396   .     A
C289   C479    1.370   .     S
C290   H292    1.084   .     S
C290   C297    1.396   .     A
C293   C297    1.398   .     A
C293   H295    1.084   .     S
C294   C298    1.398   .     A
C294   H296    1.084   .     S
C294   C476    1.370   .     S
C299   N306    1.360   .     A
C299   H301    1.082   .     S
C299   C365    1.416   .     S
C300   H302    1.082   .     S
C300   N305    1.360   .     A
C303   Br309   1.912   .     S
C303   N305    1.379   .     A
C304   N306    1.379   .     A
C304   Br310   1.912   .     S
C304   C362    1.416   .     S
O311   C315    1.286   .     A
O311   Zn323   1.997   .     S
O312   Zn324   1.997   .     S
O312   C316    1.286   .     A
O313   Zn324   2.001   .     S
O313   C315    1.288   .     A
O314   C316    1.288   .     A
O314   Zn323   2.001   .     S
C315   C360    1.419   .     S
C316   C359    1.419   .     S
O317   Zn323   1.967   .     S
O317   C321    1.295   .     A
O318   C322    1.295   .     A
O318   Zn324   1.967   .     S
O319   Zn324   1.919   .     S
O319   C321    1.296   .     A
O320   C322    1.297   .     A
O320   Zn323   1.919   .     S
C321   C325    1.455   .     S
C322   C326    1.457   .     S
Zn323  N367    2.019   .     S
Zn324  N368    2.019   .     S
C325   C331    1.389   .     A
C325   C329    1.399   .     A
C326   C330    1.399   .     A
C326   C332    1.392   .     A
C327   C335    1.407   .     A
C327   H347    1.083   .     S
C327   C329    1.395   .     A
C328   C330    1.393   .     A
C328   C336    1.406   .     A
C328   H348    1.083   .     S
C329   H346    1.083   .     S
C330   H345    1.083   .     S
C331   C333    1.393   .     A
C331   H344    1.079   .     S
C332   C334    1.395   .     A
C332   H343    1.077   .     S
C333   C337    1.415   .     A
C333   C335    1.418   .     A
C334   C338    1.418   .     A
C334   C336    1.420   .     A
C335   C899    1.395   .     S
C336   C900    1.394   1_554 S
C337   C340    1.417   .     A
C337   C896    1.412   .     S
C338   C339    1.418   .     A
C338   C895    1.412   1_554 S
C339   H349    1.078   .     S
C339   C341    1.390   .     A
C340   C342    1.387   .     A
C340   H350    1.079   .     S
C341   F369    1.359   .     S
C341   C893    1.395   1_554 S
C342   F370    1.357   .     S
C342   C894    1.394   .     S
C351   H353    1.084   .     S
C351   C360    1.396   .     A
C351   C541    1.370   .     S
C352   H354    1.084   .     S
C352   C359    1.396   .     A
C355   C359    1.398   .     A
C355   H357    1.084   .     S
C356   C360    1.398   .     A
C356   H358    1.084   .     S
C356   C538    1.370   .     S
C361   N368    1.360   .     A
C361   H363    1.082   .     S
C361   C241    1.416   1_655 S
C362   H364    1.082   .     S
C362   N367    1.360   .     A
C365   Br371   1.912   .     S
C365   N367    1.379   .     A
C366   N368    1.379   .     A
C366   Br372   1.912   .     S
C366   C238    1.416   1_655 S
O373   C377    1.286   .     A
O373   Zn385   1.997   .     S
O374   Zn386   1.997   .     S
O374   C378    1.286   .     A
O375   Zn386   2.001   .     S
O375   C377    1.288   .     A
O376   C378    1.288   .     A
O376   Zn385   2.001   .     S
C377   C422    1.419   .     S
C378   C421    1.419   .     S
O379   Zn385   1.967   .     S
O379   C383    1.295   .     A
O380   C384    1.295   .     A
O380   Zn386   1.967   .     S
O381   Zn386   1.919   .     S
O381   C383    1.296   .     A
O382   C384    1.297   .     A
O382   Zn385   1.919   .     S
C383   C387    1.455   .     S
C384   C388    1.457   .     S
Zn385  N429    2.019   .     S
Zn386  N430    2.019   .     S
C387   C393    1.389   .     A
C387   C391    1.399   .     A
C388   C392    1.399   .     A
C388   C394    1.392   .     A
C389   C397    1.407   .     A
C389   H409    1.083   .     S
C389   C391    1.395   .     A
C390   C392    1.393   .     A
C390   C398    1.406   .     A
C390   H410    1.083   .     S
C391   H408    1.083   .     S
C392   H407    1.083   .     S
C393   C395    1.393   .     A
C393   H406    1.079   .     S
C394   C396    1.395   .     A
C394   H405    1.077   .     S
C395   C399    1.415   .     A
C395   C397    1.418   .     A
C396   C400    1.418   .     A
C396   C398    1.420   .     A
C397   C961    1.395   .     S
C398   C962    1.394   1_554 S
C399   C402    1.417   .     A
C399   C958    1.412   .     S
C400   C401    1.418   .     A
C400   C957    1.412   1_554 S
C401   H411    1.078   .     S
C401   C403    1.390   .     A
C402   C404    1.387   .     A
C402   H412    1.079   .     S
C403   F431    1.359   .     S
C403   C955    1.395   1_554 S
C404   F432    1.357   .     S
C404   C956    1.394   .     S
C413   H415    1.084   .     S
C413   C422    1.396   .     A
C413   C45     1.370   1_565 S
C414   H416    1.084   .     S
C414   C421    1.396   .     A
C417   C421    1.398   .     A
C417   H419    1.084   .     S
C418   C422    1.398   .     A
C418   H420    1.084   .     S
C418   C42     1.370   1_565 S
C423   N430    1.360   .     A
C423   H425    1.082   .     S
C423   C489    1.416   .     S
C424   H426    1.082   .     S
C424   N429    1.360   .     A
C424   C552    1.416   1_455 S
C427   Br433   1.912   .     S
C427   N429    1.379   .     A
C427   C547    1.416   1_455 S
C428   N430    1.379   .     A
C428   Br434   1.912   .     S
C428   C486    1.416   .     S
O435   C439    1.286   .     A
O435   Zn447   1.997   .     S
O436   Zn448   1.997   .     S
O436   C440    1.286   .     A
O437   Zn448   2.001   .     S
O437   C439    1.288   .     A
O438   C440    1.288   .     A
O438   Zn447   2.001   .     S
C439   C484    1.419   .     S
C440   C483    1.419   .     S
O441   Zn447   1.967   .     S
O441   C445    1.295   .     A
O442   C446    1.295   .     A
O442   Zn448   1.967   .     S
O443   Zn448   1.919   .     S
O443   C445    1.296   .     A
O444   C446    1.297   .     A
O444   Zn447   1.919   .     S
C445   C449    1.455   .     S
C446   C450    1.457   .     S
Zn447  N491    2.019   .     S
Zn448  N492    2.019   .     S
C449   C455    1.389   .     A
C449   C453    1.399   .     A
C450   C454    1.399   .     A
C450   C456    1.392   .     A
C451   C459    1.407   .     A
C451   H471    1.083   .     S
C451   C453    1.395   .     A
C452   C454    1.393   .     A
C452   C460    1.406   .     A
C452   H472    1.083   .     S
C453   H470    1.083   .     S
C454   H469    1.083   .     S
C455   C457    1.393   .     A
C455   H468    1.079   .     S
C456   C458    1.395   .     A
C456   H467    1.077   .     S
C457   C461    1.415   .     A
C457   C459    1.418   .     A
C458   C462    1.418   .     A
C458   C460    1.420   .     A
C459   C1023   1.395   .     S
C460   C1024   1.394   1_554 S
C461   C464    1.417   .     A
C461   C1020   1.412   .     S
C462   C463    1.418   .     A
C462   C1019   1.412   1_554 S
C463   H473    1.078   .     S
C463   C465    1.390   .     A
C464   C466    1.387   .     A
C464   H474    1.079   .     S
C465   F493    1.359   .     S
C465   C1017   1.395   1_554 S
C466   F494    1.357   .     S
C466   C1018   1.394   .     S
C475   H477    1.084   .     S
C475   C484    1.396   .     A
C475   C107    1.370   1_565 S
C476   H478    1.084   .     S
C476   C483    1.396   .     A
C479   C483    1.398   .     A
C479   H481    1.084   .     S
C480   C484    1.398   .     A
C480   H482    1.084   .     S
C480   C104    1.370   1_565 S
C485   N492    1.360   .     A
C485   H487    1.082   .     S
C485   C551    1.416   .     S
C486   H488    1.082   .     S
C486   N491    1.360   .     A
C489   Br495   1.912   .     S
C489   N491    1.379   .     A
C490   N492    1.379   .     A
C490   Br496   1.912   .     S
C490   C548    1.416   .     S
O497   C501    1.286   .     A
O497   Zn509   1.997   .     S
O498   Zn510   1.997   .     S
O498   C502    1.286   .     A
O499   Zn510   2.001   .     S
O499   C501    1.288   .     A
O500   C502    1.288   .     A
O500   Zn509   2.001   .     S
C501   C546    1.419   .     S
C502   C545    1.419   .     S
O503   Zn509   1.967   .     S
O503   C507    1.295   .     A
O504   C508    1.295   .     A
O504   Zn510   1.967   .     S
O505   Zn510   1.919   .     S
O505   C507    1.296   .     A
O506   C508    1.297   .     A
O506   Zn509   1.919   .     S
C507   C511    1.455   .     S
C508   C512    1.457   .     S
Zn509  N553    2.019   .     S
Zn510  N554    2.019   .     S
C511   C517    1.389   .     A
C511   C515    1.399   .     A
C512   C516    1.399   .     A
C512   C518    1.392   .     A
C513   C521    1.407   .     A
C513   H533    1.083   .     S
C513   C515    1.395   .     A
C514   C516    1.393   .     A
C514   C522    1.406   .     A
C514   H534    1.083   .     S
C515   H532    1.083   .     S
C516   H531    1.083   .     S
C517   C519    1.393   .     A
C517   H530    1.079   .     S
C518   C520    1.395   .     A
C518   H529    1.077   .     S
C519   C523    1.415   .     A
C519   C521    1.418   .     A
C520   C524    1.418   .     A
C520   C522    1.420   .     A
C521   C1085   1.395   .     S
C522   C1086   1.394   1_554 S
C523   C526    1.417   .     A
C523   C1082   1.412   .     S
C524   C525    1.418   .     A
C524   C1081   1.412   1_554 S
C525   H535    1.078   .     S
C525   C527    1.390   .     A
C526   C528    1.387   .     A
C526   H536    1.079   .     S
C527   F555    1.359   .     S
C527   C1079   1.395   1_554 S
C528   F556    1.357   .     S
C528   C1080   1.394   .     S
C537   H539    1.084   .     S
C537   C546    1.396   .     A
C537   C169    1.370   1_565 S
C538   H540    1.084   .     S
C538   C545    1.396   .     A
C541   C545    1.398   .     A
C541   H543    1.084   .     S
C542   C546    1.398   .     A
C542   H544    1.084   .     S
C542   C166    1.370   1_565 S
C547   N554    1.360   .     A
C547   H549    1.082   .     S
C547   C427    1.416   1_655 S
C548   H550    1.082   .     S
C548   N553    1.360   .     A
C551   Br557   1.912   .     S
C551   N553    1.379   .     A
C552   N554    1.379   .     A
C552   Br558   1.912   .     S
C552   C424    1.416   1_655 S
O559   C563    1.286   .     A
O559   Zn571   1.997   .     S
O560   Zn572   1.997   .     S
O560   C564    1.286   .     A
O561   Zn572   2.001   .     S
O561   C563    1.288   .     A
O562   C564    1.288   .     A
O562   Zn571   2.001   .     S
C563   C608    1.419   .     S
C564   C607    1.419   .     S
O565   Zn571   1.967   .     S
O565   C569    1.295   .     A
O566   C570    1.295   .     A
O566   Zn572   1.967   .     S
O567   Zn572   1.919   .     S
O567   C569    1.296   .     A
O568   C570    1.297   .     A
O568   Zn571   1.919   .     S
C569   C573    1.455   .     S
C570   C574    1.457   .     S
Zn571  N615    2.019   .     S
Zn572  N616    2.019   .     S
C573   C579    1.389   .     A
C573   C577    1.399   .     A
C574   C578    1.399   .     A
C574   C580    1.392   .     A
C575   C583    1.407   .     A
C575   H595    1.083   .     S
C575   C577    1.395   .     A
C576   C578    1.393   .     A
C576   C584    1.406   .     A
C576   H596    1.083   .     S
C577   H594    1.083   .     S
C578   H593    1.083   .     S
C579   C581    1.393   .     A
C579   H592    1.079   .     S
C580   C582    1.395   .     A
C580   H591    1.077   .     S
C581   C585    1.415   .     A
C581   C583    1.418   .     A
C582   C586    1.418   .     A
C582   C584    1.420   .     A
C583   C31     1.395   1_556 S
C585   C588    1.417   .     A
C585   C28     1.412   1_556 S
C586   C587    1.418   .     A
C587   H597    1.078   .     S
C587   C589    1.390   .     A
C588   C590    1.387   .     A
C588   H598    1.079   .     S
C589   F617    1.359   .     S
C590   F618    1.357   .     S
C590   C26     1.394   1_556 S
C599   H601    1.084   .     S
C599   C608    1.396   .     A
C599   C789    1.370   .     S
C600   H602    1.084   .     S
C600   C607    1.396   .     A
C600   C976    1.370   1_545 S
C603   C607    1.398   .     A
C603   H605    1.084   .     S
C603   C971    1.370   1_545 S
C604   C608    1.398   .     A
C604   H606    1.084   .     S
C604   C786    1.370   .     S
C609   N616    1.360   .     A
C609   H611    1.082   .     S
C609   C675    1.416   .     S
C610   H612    1.082   .     S
C610   N615    1.360   .     A
C610   C738    1.416   1_455 S
C613   Br619   1.912   .     S
C613   N615    1.379   .     A
C613   C733    1.416   1_455 S
C614   N616    1.379   .     A
C614   Br620   1.912   .     S
C614   C672    1.416   .     S
O621   C625    1.286   .     A
O621   Zn633   1.997   .     S
O622   Zn634   1.997   .     S
O622   C626    1.286   .     A
O623   Zn634   2.001   .     S
O623   C625    1.288   .     A
O624   C626    1.288   .     A
O624   Zn633   2.001   .     S
C625   C670    1.419   .     S
C626   C669    1.419   .     S
O627   Zn633   1.967   .     S
O627   C631    1.295   .     A
O628   C632    1.295   .     A
O628   Zn634   1.967   .     S
O629   Zn634   1.919   .     S
O629   C631    1.296   .     A
O630   C632    1.297   .     A
O630   Zn633   1.919   .     S
C631   C635    1.455   .     S
C632   C636    1.457   .     S
Zn633  N677    2.019   .     S
Zn634  N678    2.019   .     S
C635   C641    1.389   .     A
C635   C639    1.399   .     A
C636   C640    1.399   .     A
C636   C642    1.392   .     A
C637   C645    1.407   .     A
C637   H657    1.083   .     S
C637   C639    1.395   .     A
C638   C640    1.393   .     A
C638   C646    1.406   .     A
C638   H658    1.083   .     S
C639   H656    1.083   .     S
C640   H655    1.083   .     S
C641   C643    1.393   .     A
C641   H654    1.079   .     S
C642   C644    1.395   .     A
C642   H653    1.077   .     S
C643   C647    1.415   .     A
C643   C645    1.418   .     A
C644   C648    1.418   .     A
C644   C646    1.420   .     A
C645   C93     1.395   1_556 S
C647   C650    1.417   .     A
C647   C90     1.412   1_556 S
C648   C649    1.418   .     A
C649   H659    1.078   .     S
C649   C651    1.390   .     A
C650   C652    1.387   .     A
C650   H660    1.079   .     S
C651   F679    1.359   .     S
C652   F680    1.357   .     S
C652   C88     1.394   1_556 S
C661   H663    1.084   .     S
C661   C670    1.396   .     A
C661   C851    1.370   .     S
C662   H664    1.084   .     S
C662   C669    1.396   .     A
C662   C1038   1.370   1_545 S
C665   C669    1.398   .     A
C665   H667    1.084   .     S
C665   C1033   1.370   1_545 S
C666   C670    1.398   .     A
C666   H668    1.084   .     S
C666   C848    1.370   .     S
C671   N678    1.360   .     A
C671   H673    1.082   .     S
C671   C737    1.416   .     S
C672   H674    1.082   .     S
C672   N677    1.360   .     A
C675   Br681   1.912   .     S
C675   N677    1.379   .     A
C676   N678    1.379   .     A
C676   Br682   1.912   .     S
C676   C734    1.416   .     S
O683   C687    1.286   .     A
O683   Zn695   1.997   .     S
O684   Zn696   1.997   .     S
O684   C688    1.286   .     A
O685   Zn696   2.001   .     S
O685   C687    1.288   .     A
O686   C688    1.288   .     A
O686   Zn695   2.001   .     S
C687   C732    1.419   .     S
C688   C731    1.419   .     S
O689   Zn695   1.967   .     S
O689   C693    1.295   .     A
O690   C694    1.295   .     A
O690   Zn696   1.967   .     S
O691   Zn696   1.919   .     S
O691   C693    1.296   .     A
O692   C694    1.297   .     A
O692   Zn695   1.919   .     S
C693   C697    1.455   .     S
C694   C698    1.457   .     S
Zn695  N739    2.019   .     S
Zn696  N740    2.019   .     S
C697   C703    1.389   .     A
C697   C701    1.399   .     A
C698   C702    1.399   .     A
C698   C704    1.392   .     A
C699   C707    1.407   .     A
C699   H719    1.083   .     S
C699   C701    1.395   .     A
C700   C702    1.393   .     A
C700   C708    1.406   .     A
C700   H720    1.083   .     S
C701   H718    1.083   .     S
C702   H717    1.083   .     S
C703   C705    1.393   .     A
C703   H716    1.079   .     S
C704   C706    1.395   .     A
C704   H715    1.077   .     S
C705   C709    1.415   .     A
C705   C707    1.418   .     A
C706   C710    1.418   .     A
C706   C708    1.420   .     A
C707   C155    1.395   1_556 S
C709   C712    1.417   .     A
C709   C152    1.412   1_556 S
C710   C711    1.418   .     A
C711   H721    1.078   .     S
C711   C713    1.390   .     A
C712   C714    1.387   .     A
C712   H722    1.079   .     S
C713   F741    1.359   .     S
C714   F742    1.357   .     S
C714   C150    1.394   1_556 S
C723   H725    1.084   .     S
C723   C732    1.396   .     A
C723   C913    1.370   .     S
C724   H726    1.084   .     S
C724   C731    1.396   .     A
C724   C1100   1.370   1_545 S
C727   C731    1.398   .     A
C727   H729    1.084   .     S
C727   C1095   1.370   1_545 S
C728   C732    1.398   .     A
C728   H730    1.084   .     S
C728   C910    1.370   .     S
C733   N740    1.360   .     A
C733   H735    1.082   .     S
C733   C613    1.416   1_655 S
C734   H736    1.082   .     S
C734   N739    1.360   .     A
C737   Br743   1.912   .     S
C737   N739    1.379   .     A
C738   N740    1.379   .     A
C738   Br744   1.912   .     S
C738   C610    1.416   1_655 S
O745   C749    1.286   .     A
O745   Zn757   1.997   .     S
O746   Zn758   1.997   .     S
O746   C750    1.286   .     A
O747   Zn758   2.001   .     S
O747   C749    1.288   .     A
O748   C750    1.288   .     A
O748   Zn757   2.001   .     S
C749   C794    1.419   .     S
C750   C793    1.419   .     S
O751   Zn757   1.967   .     S
O751   C755    1.295   .     A
O752   C756    1.295   .     A
O752   Zn758   1.967   .     S
O753   Zn758   1.919   .     S
O753   C755    1.296   .     A
O754   C756    1.297   .     A
O754   Zn757   1.919   .     S
C755   C759    1.455   .     S
C756   C760    1.457   .     S
Zn757  N801    2.019   .     S
Zn758  N802    2.019   .     S
C759   C765    1.389   .     A
C759   C763    1.399   .     A
C760   C764    1.399   .     A
C760   C766    1.392   .     A
C761   C769    1.407   .     A
C761   H781    1.083   .     S
C761   C763    1.395   .     A
C762   C764    1.393   .     A
C762   C770    1.406   .     A
C762   H782    1.083   .     S
C763   H780    1.083   .     S
C764   H779    1.083   .     S
C765   C767    1.393   .     A
C765   H778    1.079   .     S
C766   C768    1.395   .     A
C766   H777    1.077   .     S
C767   C771    1.415   .     A
C767   C769    1.418   .     A
C768   C772    1.418   .     A
C768   C770    1.420   .     A
C769   C217    1.395   1_556 S
C771   C774    1.417   .     A
C771   C214    1.412   1_556 S
C772   C773    1.418   .     A
C773   H783    1.078   .     S
C773   C775    1.390   .     A
C774   C776    1.387   .     A
C774   H784    1.079   .     S
C775   F803    1.359   .     S
C776   F804    1.357   .     S
C776   C212    1.394   1_556 S
C785   H787    1.084   .     S
C785   C794    1.396   .     A
C785   C975    1.370   .     S
C786   H788    1.084   .     S
C786   C793    1.396   .     A
C789   C793    1.398   .     A
C789   H791    1.084   .     S
C790   C794    1.398   .     A
C790   H792    1.084   .     S
C790   C972    1.370   .     S
C795   N802    1.360   .     A
C795   H797    1.082   .     S
C795   C861    1.416   .     S
C796   H798    1.082   .     S
C796   N801    1.360   .     A
C796   C924    1.416   1_455 S
C799   Br805   1.912   .     S
C799   N801    1.379   .     A
C799   C919    1.416   1_455 S
C800   N802    1.379   .     A
C800   Br806   1.912   .     S
C800   C858    1.416   .     S
O807   C811    1.286   .     A
O807   Zn819   1.997   .     S
O808   Zn820   1.997   .     S
O808   C812    1.286   .     A
O809   Zn820   2.001   .     S
O809   C811    1.288   .     A
O810   C812    1.288   .     A
O810   Zn819   2.001   .     S
C811   C856    1.419   .     S
C812   C855    1.419   .     S
O813   Zn819   1.967   .     S
O813   C817    1.295   .     A
O814   C818    1.295   .     A
O814   Zn820   1.967   .     S
O815   Zn820   1.919   .     S
O815   C817    1.296   .     A
O816   C818    1.297   .     A
O816   Zn819   1.919   .     S
C817   C821    1.455   .     S
C818   C822    1.457   .     S
Zn819  N863    2.019   .     S
Zn820  N864    2.019   .     S
C821   C827    1.389   .     A
C821   C825    1.399   .     A
C822   C826    1.399   .     A
C822   C828    1.392   .     A
C823   C831    1.407   .     A
C823   H843    1.083   .     S
C823   C825    1.395   .     A
C824   C826    1.393   .     A
C824   C832    1.406   .     A
C824   H844    1.083   .     S
C825   H842    1.083   .     S
C826   H841    1.083   .     S
C827   C829    1.393   .     A
C827   H840    1.079   .     S
C828   C830    1.395   .     A
C828   H839    1.077   .     S
C829   C833    1.415   .     A
C829   C831    1.418   .     A
C830   C834    1.418   .     A
C830   C832    1.420   .     A
C831   C279    1.395   1_556 S
C833   C836    1.417   .     A
C833   C276    1.412   1_556 S
C834   C835    1.418   .     A
C835   H845    1.078   .     S
C835   C837    1.390   .     A
C836   C838    1.387   .     A
C836   H846    1.079   .     S
C837   F865    1.359   .     S
C838   F866    1.357   .     S
C838   C274    1.394   1_556 S
C847   H849    1.084   .     S
C847   C856    1.396   .     A
C847   C1037   1.370   .     S
C848   H850    1.084   .     S
C848   C855    1.396   .     A
C851   C855    1.398   .     A
C851   H853    1.084   .     S
C852   C856    1.398   .     A
C852   H854    1.084   .     S
C852   C1034   1.370   .     S
C857   N864    1.360   .     A
C857   H859    1.082   .     S
C857   C923    1.416   .     S
C858   H860    1.082   .     S
C858   N863    1.360   .     A
C861   Br867   1.912   .     S
C861   N863    1.379   .     A
C862   N864    1.379   .     A
C862   Br868   1.912   .     S
C862   C920    1.416   .     S
O869   C873    1.286   .     A
O869   Zn881   1.997   .     S
O870   Zn882   1.997   .     S
O870   C874    1.286   .     A
O871   Zn882   2.001   .     S
O871   C873    1.288   .     A
O872   C874    1.288   .     A
O872   Zn881   2.001   .     S
C873   C918    1.419   .     S
C874   C917    1.419   .     S
O875   Zn881   1.967   .     S
O875   C879    1.295   .     A
O876   C880    1.295   .     A
O876   Zn882   1.967   .     S
O877   Zn882   1.919   .     S
O877   C879    1.296   .     A
O878   C880    1.297   .     A
O878   Zn881   1.919   .     S
C879   C883    1.455   .     S
C880   C884    1.457   .     S
Zn881  N925    2.019   .     S
Zn882  N926    2.019   .     S
C883   C889    1.389   .     A
C883   C887    1.399   .     A
C884   C888    1.399   .     A
C884   C890    1.392   .     A
C885   C893    1.407   .     A
C885   H905    1.083   .     S
C885   C887    1.395   .     A
C886   C888    1.393   .     A
C886   C894    1.406   .     A
C886   H906    1.083   .     S
C887   H904    1.083   .     S
C888   H903    1.083   .     S
C889   C891    1.393   .     A
C889   H902    1.079   .     S
C890   C892    1.395   .     A
C890   H901    1.077   .     S
C891   C895    1.415   .     A
C891   C893    1.418   .     A
C892   C896    1.418   .     A
C892   C894    1.420   .     A
C893   C341    1.395   1_556 S
C895   C898    1.417   .     A
C895   C338    1.412   1_556 S
C896   C897    1.418   .     A
C897   H907    1.078   .     S
C897   C899    1.390   .     A
C898   C900    1.387   .     A
C898   H908    1.079   .     S
C899   F927    1.359   .     S
C900   F928    1.357   .     S
C900   C336    1.394   1_556 S
C909   H911    1.084   .     S
C909   C918    1.396   .     A
C909   C1099   1.370   .     S
C910   H912    1.084   .     S
C910   C917    1.396   .     A
C913   C917    1.398   .     A
C913   H915    1.084   .     S
C914   C918    1.398   .     A
C914   H916    1.084   .     S
C914   C1096   1.370   .     S
C919   N926    1.360   .     A
C919   H921    1.082   .     S
C919   C799    1.416   1_655 S
C920   H922    1.082   .     S
C920   N925    1.360   .     A
C923   Br929   1.912   .     S
C923   N925    1.379   .     A
C924   N926    1.379   .     A
C924   Br930   1.912   .     S
C924   C796    1.416   1_655 S
O931   C935    1.286   .     A
O931   Zn943   1.997   .     S
O932   Zn944   1.997   .     S
O932   C936    1.286   .     A
O933   Zn944   2.001   .     S
O933   C935    1.288   .     A
O934   C936    1.288   .     A
O934   Zn943   2.001   .     S
C935   C980    1.419   .     S
C936   C979    1.419   .     S
O937   Zn943   1.967   .     S
O937   C941    1.295   .     A
O938   C942    1.295   .     A
O938   Zn944   1.967   .     S
O939   Zn944   1.919   .     S
O939   C941    1.296   .     A
O940   C942    1.297   .     A
O940   Zn943   1.919   .     S
C941   C945    1.455   .     S
C942   C946    1.457   .     S
Zn943  N987    2.019   .     S
Zn944  N988    2.019   .     S
C945   C951    1.389   .     A
C945   C949    1.399   .     A
C946   C950    1.399   .     A
C946   C952    1.392   .     A
C947   C955    1.407   .     A
C947   H967    1.083   .     S
C947   C949    1.395   .     A
C948   C950    1.393   .     A
C948   C956    1.406   .     A
C948   H968    1.083   .     S
C949   H966    1.083   .     S
C950   H965    1.083   .     S
C951   C953    1.393   .     A
C951   H964    1.079   .     S
C952   C954    1.395   .     A
C952   H963    1.077   .     S
C953   C957    1.415   .     A
C953   C955    1.418   .     A
C954   C958    1.418   .     A
C954   C956    1.420   .     A
C955   C403    1.395   1_556 S
C957   C960    1.417   .     A
C957   C400    1.412   1_556 S
C958   C959    1.418   .     A
C959   H969    1.078   .     S
C959   C961    1.390   .     A
C960   C962    1.387   .     A
C960   H970    1.079   .     S
C961   F989    1.359   .     S
C962   F990    1.357   .     S
C962   C398    1.394   1_556 S
C971   H973    1.084   .     S
C971   C980    1.396   .     A
C971   C603    1.370   1_565 S
C972   H974    1.084   .     S
C972   C979    1.396   .     A
C975   C979    1.398   .     A
C975   H977    1.084   .     S
C976   C980    1.398   .     A
C976   H978    1.084   .     S
C976   C600    1.370   1_565 S
C981   N988    1.360   .     A
C981   H983    1.082   .     S
C981   C1047   1.416   .     S
C982   H984    1.082   .     S
C982   N987    1.360   .     A
C982   C1110   1.416   1_455 S
C985   Br991   1.912   .     S
C985   N987    1.379   .     A
C985   C1105   1.416   1_455 S
C986   N988    1.379   .     A
C986   Br992   1.912   .     S
C986   C1044   1.416   .     S
O993   C997    1.286   .     A
O993   Zn1005  1.997   .     S
O994   Zn1006  1.997   .     S
O994   C998    1.286   .     A
O995   Zn1006  2.001   .     S
O995   C997    1.288   .     A
O996   C998    1.288   .     A
O996   Zn1005  2.001   .     S
C997   C1042   1.419   .     S
C998   C1041   1.419   .     S
O999   Zn1005  1.967   .     S
O999   C1003   1.295   .     A
O1000  C1004   1.295   .     A
O1000  Zn1006  1.967   .     S
O1001  Zn1006  1.919   .     S
O1001  C1003   1.296   .     A
O1002  C1004   1.297   .     A
O1002  Zn1005  1.919   .     S
C1003  C1007   1.455   .     S
C1004  C1008   1.457   .     S
Zn1005 N1049   2.019   .     S
Zn1006 N1050   2.019   .     S
C1007  C1013   1.389   .     A
C1007  C1011   1.399   .     A
C1008  C1012   1.399   .     A
C1008  C1014   1.392   .     A
C1009  C1017   1.407   .     A
C1009  H1029   1.083   .     S
C1009  C1011   1.395   .     A
C1010  C1012   1.393   .     A
C1010  C1018   1.406   .     A
C1010  H1030   1.083   .     S
C1011  H1028   1.083   .     S
C1012  H1027   1.083   .     S
C1013  C1015   1.393   .     A
C1013  H1026   1.079   .     S
C1014  C1016   1.395   .     A
C1014  H1025   1.077   .     S
C1015  C1019   1.415   .     A
C1015  C1017   1.418   .     A
C1016  C1020   1.418   .     A
C1016  C1018   1.420   .     A
C1017  C465    1.395   1_556 S
C1019  C1022   1.417   .     A
C1019  C462    1.412   1_556 S
C1020  C1021   1.418   .     A
C1021  H1031   1.078   .     S
C1021  C1023   1.390   .     A
C1022  C1024   1.387   .     A
C1022  H1032   1.079   .     S
C1023  F1051   1.359   .     S
C1024  F1052   1.357   .     S
C1024  C460    1.394   1_556 S
C1033  H1035   1.084   .     S
C1033  C1042   1.396   .     A
C1033  C665    1.370   1_565 S
C1034  H1036   1.084   .     S
C1034  C1041   1.396   .     A
C1037  C1041   1.398   .     A
C1037  H1039   1.084   .     S
C1038  C1042   1.398   .     A
C1038  H1040   1.084   .     S
C1038  C662    1.370   1_565 S
C1043  N1050   1.360   .     A
C1043  H1045   1.082   .     S
C1043  C1109   1.416   .     S
C1044  H1046   1.082   .     S
C1044  N1049   1.360   .     A
C1047  Br1053  1.912   .     S
C1047  N1049   1.379   .     A
C1048  N1050   1.379   .     A
C1048  Br1054  1.912   .     S
C1048  C1106   1.416   .     S
O1055  C1059   1.286   .     A
O1055  Zn1067  1.997   .     S
O1056  Zn1068  1.997   .     S
O1056  C1060   1.286   .     A
O1057  Zn1068  2.001   .     S
O1057  C1059   1.288   .     A
O1058  C1060   1.288   .     A
O1058  Zn1067  2.001   .     S
C1059  C1104   1.419   .     S
C1060  C1103   1.419   .     S
O1061  Zn1067  1.967   .     S
O1061  C1065   1.295   .     A
O1062  C1066   1.295   .     A
O1062  Zn1068  1.967   .     S
O1063  Zn1068  1.919   .     S
O1063  C1065   1.296   .     A
O1064  C1066   1.297   .     A
O1064  Zn1067  1.919   .     S
C1065  C1069   1.455   .     S
C1066  C1070   1.457   .     S
Zn1067 N1111   2.019   .     S
Zn1068 N1112   2.019   .     S
C1069  C1075   1.389   .     A
C1069  C1073   1.399   .     A
C1070  C1074   1.399   .     A
C1070  C1076   1.392   .     A
C1071  C1079   1.407   .     A
C1071  H1091   1.083   .     S
C1071  C1073   1.395   .     A
C1072  C1074   1.393   .     A
C1072  C1080   1.406   .     A
C1072  H1092   1.083   .     S
C1073  H1090   1.083   .     S
C1074  H1089   1.083   .     S
C1075  C1077   1.393   .     A
C1075  H1088   1.079   .     S
C1076  C1078   1.395   .     A
C1076  H1087   1.077   .     S
C1077  C1081   1.415   .     A
C1077  C1079   1.418   .     A
C1078  C1082   1.418   .     A
C1078  C1080   1.420   .     A
C1079  C527    1.395   1_556 S
C1081  C1084   1.417   .     A
C1081  C524    1.412   1_556 S
C1082  C1083   1.418   .     A
C1083  H1093   1.078   .     S
C1083  C1085   1.390   .     A
C1084  C1086   1.387   .     A
C1084  H1094   1.079   .     S
C1085  F1113   1.359   .     S
C1086  F1114   1.357   .     S
C1086  C522    1.394   1_556 S
C1095  H1097   1.084   .     S
C1095  C1104   1.396   .     A
C1095  C727    1.370   1_565 S
C1096  H1098   1.084   .     S
C1096  C1103   1.396   .     A
C1099  C1103   1.398   .     A
C1099  H1101   1.084   .     S
C1100  C1104   1.398   .     A
C1100  H1102   1.084   .     S
C1100  C724    1.370   1_565 S
C1105  N1112   1.360   .     A
C1105  H1107   1.082   .     S
C1105  C985    1.416   1_655 S
C1106  H1108   1.082   .     S
C1106  N1111   1.360   .     A
C1109  Br1115  1.912   .     S
C1109  N1111   1.379   .     A
C1110  N1112   1.379   .     A
C1110  Br1116  1.912   .     S
C1110  C982    1.416   1_655 S
