data_str_m3_o1_o18_pcu_sym.97
_audit_creation_date              2020-01-03
_audit_creation_method            'Materials Studio'
_symmetry_space_group_name_H-M    'P1'
_symmetry_Int_Tables_number       1
_symmetry_cell_setting            triclinic
loop_
_symmetry_equiv_pos_as_xyz
  x,y,z
_cell_length_a                    29.7245
_cell_length_b                    32.0736
_cell_length_c                    30.0453
_cell_angle_alpha                 90.0506
_cell_angle_beta                  71.5228
_cell_angle_gamma                 90.0011
loop_
_atom_site_label
_atom_site_type_symbol
_atom_site_fract_x
_atom_site_fract_y
_atom_site_fract_z
_atom_site_U_iso_or_equiv
_atom_site_adp_type
_atom_site_occupancy
C1     C     0.16668   0.24663   0.25001   0.00000  Uiso   1.00
C2     C     0.16665   0.08671   0.25000   0.00000  Uiso   1.00
C3     C     0.11279   0.09740   0.04684   0.00000  Uiso   1.00
C4     C     0.22481   0.10339   0.44976   0.00000  Uiso   1.00
C5     C     0.08064   0.09803   0.02110   0.00000  Uiso   1.00
C6     C     0.25721   0.11026   0.47382   0.00000  Uiso   1.00
C7     C     0.20066   0.31201   0.26452   0.00000  Uiso   1.00
C8     C     0.13268   0.02136   0.23550   0.00000  Uiso   1.00
C9     C     0.20063   0.02140   0.26455   0.00000  Uiso   1.00
C10    C     0.13268   0.31197   0.23551   0.00000  Uiso   1.00
C11    C     0.16665   0.04254   0.25002   0.00000  Uiso   1.00
C12    C     0.16668   0.29081   0.25000   0.00000  Uiso   1.00
C13    C     0.31494   0.13340   0.23289   0.00000  Uiso   1.00
C14    C     0.01839   0.19993   0.26710   0.00000  Uiso   1.00
C15    C     0.02942   0.13344   0.23280   0.00000  Uiso   1.00
C16    C     0.30392   0.19988   0.26720   0.00000  Uiso   1.00
C17    C     0.13755   0.16613   0.33839   0.00000  Uiso   1.00
C18    C     0.19570   0.16657   0.16169   0.00000  Uiso   1.00
C19    C     0.12119   0.15505   0.38853   0.00000  Uiso   1.00
C20    C     0.21203   0.15837   0.11098   0.00000  Uiso   1.00
C21    C     0.06104   0.12360   0.45366   0.00000  Uiso   1.00
C22    C     0.27444   0.14396   0.03891   0.00000  Uiso   1.00
C23    C     0.07276   0.14831   0.41333   0.00000  Uiso   1.00
C24    C     0.26024   0.16127   0.08353   0.00000  Uiso   1.00
C25    C     0.15542   0.14297   0.40903   0.00000  Uiso   1.00
C26    C     0.17894   0.14239   0.09076   0.00000  Uiso   1.00
C27    C     0.14279   0.12120   0.45162   0.00000  Uiso   1.00
C28    C     0.19333   0.12445   0.04591   0.00000  Uiso   1.00
C29    C     0.09470   0.11347   0.47518   0.00000  Uiso   1.00
C30    C     0.24202   0.12558   0.01979   0.00000  Uiso   1.00
C31    C     0.17627   0.11118   0.47397   0.00000  Uiso   1.00
C32    C     0.16052   0.11043   0.02364   0.00000  Uiso   1.00
H33    H     0.04384   0.08954   0.03800   0.00000  Uiso   1.00
H34    H     0.29424   0.10581   0.45540   0.00000  Uiso   1.00
H35    H     0.14189   0.14618   0.10948   0.00000  Uiso   1.00
H36    H     0.19154   0.15310   0.39295   0.00000  Uiso   1.00
H37    H     0.02570   0.11292   0.46921   0.00000  Uiso   1.00
H38    H     0.31071   0.14764   0.01852   0.00000  Uiso   1.00
H39    H     0.22679   0.29568   0.27621   0.00000  Uiso   1.00
H40    H     0.10655   0.03770   0.22381   0.00000  Uiso   1.00
H41    H     0.22674   0.03777   0.27627   0.00000  Uiso   1.00
H42    H     0.10655   0.29561   0.22383   0.00000  Uiso   1.00
H43    H     0.30153   0.10674   0.21897   0.00000  Uiso   1.00
H44    H     0.03189   0.22668   0.28073   0.00000  Uiso   1.00
H45    H     0.05179   0.10683   0.21883   0.00000  Uiso   1.00
H46    H     0.28158   0.22653   0.28110   0.00000  Uiso   1.00
N47    N     0.04759   0.16668   0.25001   0.00000  Uiso   1.00
N48    N     0.28574   0.16666   0.24999   0.00000  Uiso   1.00
O49    O     0.12846   0.22775   0.25001   0.00000  Uiso   1.00
O50    O     0.20488   0.10558   0.25000   0.00000  Uiso   1.00
O51    O     0.20490   0.22774   0.25000   0.00000  Uiso   1.00
O52    O     0.12843   0.10559   0.25000   0.00000  Uiso   1.00
O53    O     0.10661   0.16667   0.31613   0.00000  Uiso   1.00
O54    O     0.22672   0.16666   0.18388   0.00000  Uiso   1.00
O55    O     0.18305   0.16666   0.31612   0.00000  Uiso   1.00
O56    O     0.15028   0.16667   0.18388   0.00000  Uiso   1.00
Zn57   Zn    0.11562   0.16667   0.25000   0.00000  Uiso   1.00
Zn58   Zn    0.21771   0.16666   0.25000   0.00000  Uiso   1.00
S59    S     0.30380   0.18850   0.10129   0.00000  Uiso   1.00
O60    O     0.32377   0.15960   0.12963   0.00000  Uiso   1.00
O61    O     0.01011   0.20280   0.05907   0.00000  Uiso   1.00
O62    O     0.27957   0.23046   0.13373   0.00000  Uiso   1.00
H63    H     0.30223   0.23831   0.15039   0.00000  Uiso   1.00
S64    S     0.02651   0.17450   0.39885   0.00000  Uiso   1.00
O65    O     0.00856   0.14713   0.36752   0.00000  Uiso   1.00
O66    O     0.31980   0.18442   0.44255   0.00000  Uiso   1.00
O67    O     0.04640   0.21980   0.37144   0.00000  Uiso   1.00
H68    H     0.01781   0.23391   0.36857   0.00000  Uiso   1.00
C69    C     0.09624   0.07695   0.09512   0.00000  Uiso   1.00
C70    C     0.12924   0.04182   0.09973   0.00000  Uiso   1.00
H71    H     0.13479   0.01924   0.07042   0.00000  Uiso   1.00
H72    H     0.16403   0.05428   0.09976   0.00000  Uiso   1.00
H73    H     0.11306   0.02509   0.13336   0.00000  Uiso   1.00
H74    H     0.09081   0.09957   0.12405   0.00000  Uiso   1.00
H75    H     0.06064   0.06272   0.10138   0.00000  Uiso   1.00
C76    C     0.24238   0.08256   0.40165   0.00000  Uiso   1.00
C77    C     0.21668   0.04146   0.40079   0.00000  Uiso   1.00
H78    H     0.21969   0.02054   0.42917   0.00000  Uiso   1.00
H79    H     0.17865   0.04702   0.40526   0.00000  Uiso   1.00
H80    H     0.23292   0.02570   0.36651   0.00000  Uiso   1.00
H81    H     0.23942   0.10287   0.37307   0.00000  Uiso   1.00
H82    H     0.28083   0.07528   0.39232   0.00000  Uiso   1.00
C83    C     0.50001   0.24663   0.25001   0.00000  Uiso   1.00
C84    C     0.49999   0.08671   0.25000   0.00000  Uiso   1.00
C85    C     0.44612   0.09740   0.04684   0.00000  Uiso   1.00
C86    C     0.55814   0.10339   0.44976   0.00000  Uiso   1.00
C87    C     0.41398   0.09803   0.02110   0.00000  Uiso   1.00
C88    C     0.59055   0.11026   0.47382   0.00000  Uiso   1.00
C89    C     0.53399   0.31201   0.26452   0.00000  Uiso   1.00
C90    C     0.46601   0.02136   0.23550   0.00000  Uiso   1.00
C91    C     0.53397   0.02140   0.26455   0.00000  Uiso   1.00
C92    C     0.46602   0.31197   0.23551   0.00000  Uiso   1.00
C93    C     0.49999   0.04254   0.25002   0.00000  Uiso   1.00
C94    C     0.50002   0.29081   0.25000   0.00000  Uiso   1.00
C95    C     0.64828   0.13340   0.23289   0.00000  Uiso   1.00
C96    C     0.35173   0.19993   0.26710   0.00000  Uiso   1.00
C97    C     0.36275   0.13344   0.23280   0.00000  Uiso   1.00
C98    C     0.63725   0.19988   0.26720   0.00000  Uiso   1.00
C99    C     0.47089   0.16613   0.33839   0.00000  Uiso   1.00
C100   C     0.52903   0.16657   0.16169   0.00000  Uiso   1.00
C101   C     0.45452   0.15505   0.38853   0.00000  Uiso   1.00
C102   C     0.54536   0.15837   0.11098   0.00000  Uiso   1.00
C103   C     0.39437   0.12360   0.45366   0.00000  Uiso   1.00
C104   C     0.60777   0.14396   0.03891   0.00000  Uiso   1.00
C105   C     0.40609   0.14831   0.41333   0.00000  Uiso   1.00
C106   C     0.59357   0.16127   0.08353   0.00000  Uiso   1.00
C107   C     0.48875   0.14297   0.40903   0.00000  Uiso   1.00
C108   C     0.51227   0.14239   0.09076   0.00000  Uiso   1.00
C109   C     0.47612   0.12120   0.45162   0.00000  Uiso   1.00
C110   C     0.52666   0.12445   0.04591   0.00000  Uiso   1.00
C111   C     0.42804   0.11347   0.47518   0.00000  Uiso   1.00
C112   C     0.57536   0.12558   0.01979   0.00000  Uiso   1.00
C113   C     0.50960   0.11118   0.47397   0.00000  Uiso   1.00
C114   C     0.49385   0.11043   0.02364   0.00000  Uiso   1.00
H115   H     0.37718   0.08954   0.03800   0.00000  Uiso   1.00
H116   H     0.62757   0.10581   0.45540   0.00000  Uiso   1.00
H117   H     0.47522   0.14618   0.10948   0.00000  Uiso   1.00
H118   H     0.52487   0.15310   0.39295   0.00000  Uiso   1.00
H119   H     0.35904   0.11292   0.46921   0.00000  Uiso   1.00
H120   H     0.64404   0.14764   0.01852   0.00000  Uiso   1.00
H121   H     0.56012   0.29568   0.27621   0.00000  Uiso   1.00
H122   H     0.43988   0.03770   0.22381   0.00000  Uiso   1.00
H123   H     0.56007   0.03777   0.27627   0.00000  Uiso   1.00
H124   H     0.43988   0.29561   0.22383   0.00000  Uiso   1.00
H125   H     0.63486   0.10674   0.21897   0.00000  Uiso   1.00
H126   H     0.36523   0.22668   0.28073   0.00000  Uiso   1.00
H127   H     0.38512   0.10683   0.21883   0.00000  Uiso   1.00
H128   H     0.61491   0.22653   0.28110   0.00000  Uiso   1.00
N129   N     0.38093   0.16668   0.25001   0.00000  Uiso   1.00
N130   N     0.61907   0.16666   0.24999   0.00000  Uiso   1.00
O131   O     0.46179   0.22775   0.25001   0.00000  Uiso   1.00
O132   O     0.53821   0.10558   0.25000   0.00000  Uiso   1.00
O133   O     0.53823   0.22774   0.25000   0.00000  Uiso   1.00
O134   O     0.46177   0.10559   0.25000   0.00000  Uiso   1.00
O135   O     0.43994   0.16667   0.31613   0.00000  Uiso   1.00
O136   O     0.56006   0.16666   0.18388   0.00000  Uiso   1.00
O137   O     0.51639   0.16666   0.31612   0.00000  Uiso   1.00
O138   O     0.48361   0.16667   0.18388   0.00000  Uiso   1.00
Zn139  Zn    0.44896   0.16667   0.25000   0.00000  Uiso   1.00
Zn140  Zn    0.55104   0.16666   0.25000   0.00000  Uiso   1.00
S141   S     0.63713   0.18850   0.10129   0.00000  Uiso   1.00
O142   O     0.65711   0.15960   0.12963   0.00000  Uiso   1.00
O143   O     0.34344   0.20280   0.05907   0.00000  Uiso   1.00
O144   O     0.61290   0.23046   0.13373   0.00000  Uiso   1.00
H145   H     0.63557   0.23831   0.15039   0.00000  Uiso   1.00
S146   S     0.35984   0.17450   0.39885   0.00000  Uiso   1.00
O147   O     0.34189   0.14713   0.36752   0.00000  Uiso   1.00
O148   O     0.65313   0.18442   0.44255   0.00000  Uiso   1.00
O149   O     0.37973   0.21980   0.37144   0.00000  Uiso   1.00
H150   H     0.35114   0.23391   0.36857   0.00000  Uiso   1.00
C151   C     0.42957   0.07695   0.09512   0.00000  Uiso   1.00
C152   C     0.46257   0.04182   0.09973   0.00000  Uiso   1.00
H153   H     0.46813   0.01924   0.07042   0.00000  Uiso   1.00
H154   H     0.49736   0.05428   0.09976   0.00000  Uiso   1.00
H155   H     0.44640   0.02509   0.13336   0.00000  Uiso   1.00
H156   H     0.42415   0.09957   0.12405   0.00000  Uiso   1.00
H157   H     0.39397   0.06272   0.10138   0.00000  Uiso   1.00
C158   C     0.57571   0.08256   0.40165   0.00000  Uiso   1.00
C159   C     0.55002   0.04146   0.40079   0.00000  Uiso   1.00
H160   H     0.55302   0.02054   0.42917   0.00000  Uiso   1.00
H161   H     0.51198   0.04702   0.40526   0.00000  Uiso   1.00
H162   H     0.56626   0.02570   0.36651   0.00000  Uiso   1.00
H163   H     0.57275   0.10287   0.37307   0.00000  Uiso   1.00
H164   H     0.61416   0.07528   0.39232   0.00000  Uiso   1.00
C165   C     0.83335   0.24663   0.25001   0.00000  Uiso   1.00
C166   C     0.83332   0.08671   0.25000   0.00000  Uiso   1.00
C167   C     0.77946   0.09740   0.04684   0.00000  Uiso   1.00
C168   C     0.89147   0.10339   0.44976   0.00000  Uiso   1.00
C169   C     0.74731   0.09803   0.02110   0.00000  Uiso   1.00
C170   C     0.92388   0.11026   0.47382   0.00000  Uiso   1.00
C171   C     0.86733   0.31201   0.26452   0.00000  Uiso   1.00
C172   C     0.79935   0.02136   0.23550   0.00000  Uiso   1.00
C173   C     0.86730   0.02140   0.26455   0.00000  Uiso   1.00
C174   C     0.79935   0.31197   0.23551   0.00000  Uiso   1.00
C175   C     0.83332   0.04254   0.25002   0.00000  Uiso   1.00
C176   C     0.83335   0.29081   0.25000   0.00000  Uiso   1.00
C177   C     0.98161   0.13340   0.23289   0.00000  Uiso   1.00
C178   C     0.68506   0.19993   0.26710   0.00000  Uiso   1.00
C179   C     0.69609   0.13344   0.23280   0.00000  Uiso   1.00
C180   C     0.97059   0.19988   0.26720   0.00000  Uiso   1.00
C181   C     0.80422   0.16613   0.33839   0.00000  Uiso   1.00
C182   C     0.86237   0.16657   0.16169   0.00000  Uiso   1.00
C183   C     0.78785   0.15505   0.38853   0.00000  Uiso   1.00
C184   C     0.87870   0.15837   0.11098   0.00000  Uiso   1.00
C185   C     0.72770   0.12360   0.45366   0.00000  Uiso   1.00
C186   C     0.94110   0.14396   0.03891   0.00000  Uiso   1.00
C187   C     0.73942   0.14831   0.41333   0.00000  Uiso   1.00
C188   C     0.92690   0.16127   0.08353   0.00000  Uiso   1.00
C189   C     0.82208   0.14297   0.40903   0.00000  Uiso   1.00
C190   C     0.84561   0.14239   0.09076   0.00000  Uiso   1.00
C191   C     0.80946   0.12120   0.45162   0.00000  Uiso   1.00
C192   C     0.85999   0.12445   0.04591   0.00000  Uiso   1.00
C193   C     0.76137   0.11347   0.47518   0.00000  Uiso   1.00
C194   C     0.90869   0.12558   0.01979   0.00000  Uiso   1.00
C195   C     0.84294   0.11118   0.47397   0.00000  Uiso   1.00
C196   C     0.82718   0.11043   0.02364   0.00000  Uiso   1.00
H197   H     0.71051   0.08954   0.03800   0.00000  Uiso   1.00
H198   H     0.96091   0.10581   0.45540   0.00000  Uiso   1.00
H199   H     0.80855   0.14618   0.10948   0.00000  Uiso   1.00
H200   H     0.85820   0.15310   0.39295   0.00000  Uiso   1.00
H201   H     0.69237   0.11292   0.46921   0.00000  Uiso   1.00
H202   H     0.97737   0.14764   0.01852   0.00000  Uiso   1.00
H203   H     0.89346   0.29568   0.27621   0.00000  Uiso   1.00
H204   H     0.77322   0.03770   0.22381   0.00000  Uiso   1.00
H205   H     0.89340   0.03777   0.27627   0.00000  Uiso   1.00
H206   H     0.77322   0.29561   0.22383   0.00000  Uiso   1.00
H207   H     0.96820   0.10674   0.21897   0.00000  Uiso   1.00
H208   H     0.69856   0.22668   0.28073   0.00000  Uiso   1.00
H209   H     0.71846   0.10683   0.21883   0.00000  Uiso   1.00
H210   H     0.94824   0.22653   0.28110   0.00000  Uiso   1.00
N211   N     0.71426   0.16668   0.25001   0.00000  Uiso   1.00
N212   N     0.95241   0.16666   0.24999   0.00000  Uiso   1.00
O213   O     0.79512   0.22775   0.25001   0.00000  Uiso   1.00
O214   O     0.87154   0.10558   0.25000   0.00000  Uiso   1.00
O215   O     0.87157   0.22774   0.25000   0.00000  Uiso   1.00
O216   O     0.79510   0.10559   0.25000   0.00000  Uiso   1.00
O217   O     0.77328   0.16667   0.31613   0.00000  Uiso   1.00
O218   O     0.89339   0.16666   0.18388   0.00000  Uiso   1.00
O219   O     0.84972   0.16666   0.31612   0.00000  Uiso   1.00
O220   O     0.81695   0.16667   0.18388   0.00000  Uiso   1.00
Zn221  Zn    0.78229   0.16667   0.25000   0.00000  Uiso   1.00
Zn222  Zn    0.88438   0.16666   0.25000   0.00000  Uiso   1.00
S223   S     0.97047   0.18850   0.10129   0.00000  Uiso   1.00
O224   O     0.99044   0.15960   0.12963   0.00000  Uiso   1.00
O225   O     0.67677   0.20280   0.05907   0.00000  Uiso   1.00
O226   O     0.94624   0.23046   0.13373   0.00000  Uiso   1.00
H227   H     0.96890   0.23831   0.15039   0.00000  Uiso   1.00
S228   S     0.69317   0.17450   0.39885   0.00000  Uiso   1.00
O229   O     0.67522   0.14713   0.36752   0.00000  Uiso   1.00
O230   O     0.98647   0.18442   0.44255   0.00000  Uiso   1.00
O231   O     0.71307   0.21980   0.37144   0.00000  Uiso   1.00
H232   H     0.68447   0.23391   0.36857   0.00000  Uiso   1.00
C233   C     0.76290   0.07695   0.09512   0.00000  Uiso   1.00
C234   C     0.79591   0.04182   0.09973   0.00000  Uiso   1.00
H235   H     0.80146   0.01924   0.07042   0.00000  Uiso   1.00
H236   H     0.83069   0.05428   0.09976   0.00000  Uiso   1.00
H237   H     0.77973   0.02509   0.13336   0.00000  Uiso   1.00
H238   H     0.75748   0.09957   0.12405   0.00000  Uiso   1.00
H239   H     0.72731   0.06272   0.10138   0.00000  Uiso   1.00
C240   C     0.90905   0.08256   0.40165   0.00000  Uiso   1.00
C241   C     0.88335   0.04146   0.40079   0.00000  Uiso   1.00
H242   H     0.88636   0.02054   0.42917   0.00000  Uiso   1.00
H243   H     0.84532   0.04702   0.40526   0.00000  Uiso   1.00
H244   H     0.89959   0.02570   0.36651   0.00000  Uiso   1.00
H245   H     0.90609   0.10287   0.37307   0.00000  Uiso   1.00
H246   H     0.94750   0.07528   0.39232   0.00000  Uiso   1.00
C247   C     0.16668   0.57996   0.25001   0.00000  Uiso   1.00
C248   C     0.16665   0.42005   0.25000   0.00000  Uiso   1.00
C249   C     0.11279   0.43073   0.04684   0.00000  Uiso   1.00
C250   C     0.22481   0.43672   0.44976   0.00000  Uiso   1.00
C251   C     0.08064   0.43136   0.02110   0.00000  Uiso   1.00
C252   C     0.25721   0.44360   0.47382   0.00000  Uiso   1.00
C253   C     0.20066   0.64534   0.26452   0.00000  Uiso   1.00
C254   C     0.13268   0.35469   0.23550   0.00000  Uiso   1.00
C255   C     0.20063   0.35473   0.26455   0.00000  Uiso   1.00
C256   C     0.13268   0.64531   0.23551   0.00000  Uiso   1.00
C257   C     0.16665   0.37588   0.25002   0.00000  Uiso   1.00
C258   C     0.16668   0.62415   0.25000   0.00000  Uiso   1.00
C259   C     0.31494   0.46673   0.23289   0.00000  Uiso   1.00
C260   C     0.01839   0.53327   0.26710   0.00000  Uiso   1.00
C261   C     0.02942   0.46678   0.23280   0.00000  Uiso   1.00
C262   C     0.30392   0.53321   0.26720   0.00000  Uiso   1.00
C263   C     0.13755   0.49946   0.33839   0.00000  Uiso   1.00
C264   C     0.19570   0.49990   0.16169   0.00000  Uiso   1.00
C265   C     0.12119   0.48838   0.38853   0.00000  Uiso   1.00
C266   C     0.21203   0.49170   0.11098   0.00000  Uiso   1.00
C267   C     0.06104   0.45693   0.45366   0.00000  Uiso   1.00
C268   C     0.27444   0.47729   0.03891   0.00000  Uiso   1.00
C269   C     0.07276   0.48164   0.41333   0.00000  Uiso   1.00
C270   C     0.26024   0.49460   0.08353   0.00000  Uiso   1.00
C271   C     0.15542   0.47630   0.40903   0.00000  Uiso   1.00
C272   C     0.17894   0.47572   0.09076   0.00000  Uiso   1.00
C273   C     0.14279   0.45454   0.45162   0.00000  Uiso   1.00
C274   C     0.19333   0.45778   0.04591   0.00000  Uiso   1.00
C275   C     0.09470   0.44681   0.47518   0.00000  Uiso   1.00
C276   C     0.24202   0.45892   0.01979   0.00000  Uiso   1.00
C277   C     0.17627   0.44452   0.47397   0.00000  Uiso   1.00
C278   C     0.16052   0.44376   0.02364   0.00000  Uiso   1.00
H279   H     0.04384   0.42288   0.03800   0.00000  Uiso   1.00
H280   H     0.29424   0.43915   0.45540   0.00000  Uiso   1.00
H281   H     0.14189   0.47951   0.10948   0.00000  Uiso   1.00
H282   H     0.19154   0.48643   0.39295   0.00000  Uiso   1.00
H283   H     0.02570   0.44626   0.46921   0.00000  Uiso   1.00
H284   H     0.31071   0.48097   0.01852   0.00000  Uiso   1.00
H285   H     0.22679   0.62901   0.27621   0.00000  Uiso   1.00
H286   H     0.10655   0.37104   0.22381   0.00000  Uiso   1.00
H287   H     0.22674   0.37111   0.27627   0.00000  Uiso   1.00
H288   H     0.10655   0.62894   0.22383   0.00000  Uiso   1.00
H289   H     0.30153   0.44008   0.21897   0.00000  Uiso   1.00
H290   H     0.03189   0.56002   0.28073   0.00000  Uiso   1.00
H291   H     0.05179   0.44016   0.21883   0.00000  Uiso   1.00
H292   H     0.28158   0.55986   0.28110   0.00000  Uiso   1.00
N293   N     0.04759   0.50001   0.25001   0.00000  Uiso   1.00
N294   N     0.28574   0.49999   0.24999   0.00000  Uiso   1.00
O295   O     0.12846   0.56108   0.25001   0.00000  Uiso   1.00
O296   O     0.20488   0.43892   0.25000   0.00000  Uiso   1.00
O297   O     0.20490   0.56107   0.25000   0.00000  Uiso   1.00
O298   O     0.12843   0.43893   0.25000   0.00000  Uiso   1.00
O299   O     0.10661   0.50001   0.31613   0.00000  Uiso   1.00
O300   O     0.22672   0.49999   0.18388   0.00000  Uiso   1.00
O301   O     0.18305   0.50000   0.31612   0.00000  Uiso   1.00
O302   O     0.15028   0.50000   0.18388   0.00000  Uiso   1.00
Zn303  Zn    0.11562   0.50001   0.25000   0.00000  Uiso   1.00
Zn304  Zn    0.21771   0.49999   0.25000   0.00000  Uiso   1.00
S305   S     0.30380   0.52183   0.10129   0.00000  Uiso   1.00
O306   O     0.32377   0.49294   0.12963   0.00000  Uiso   1.00
O307   O     0.01011   0.53613   0.05907   0.00000  Uiso   1.00
O308   O     0.27957   0.56380   0.13373   0.00000  Uiso   1.00
H309   H     0.30223   0.57164   0.15039   0.00000  Uiso   1.00
S310   S     0.02651   0.50783   0.39885   0.00000  Uiso   1.00
O311   O     0.00856   0.48047   0.36752   0.00000  Uiso   1.00
O312   O     0.31980   0.51776   0.44255   0.00000  Uiso   1.00
O313   O     0.04640   0.55314   0.37144   0.00000  Uiso   1.00
H314   H     0.01781   0.56724   0.36857   0.00000  Uiso   1.00
C315   C     0.09624   0.41028   0.09512   0.00000  Uiso   1.00
C316   C     0.12924   0.37516   0.09973   0.00000  Uiso   1.00
H317   H     0.13479   0.35257   0.07042   0.00000  Uiso   1.00
H318   H     0.16403   0.38761   0.09976   0.00000  Uiso   1.00
H319   H     0.11306   0.35842   0.13336   0.00000  Uiso   1.00
H320   H     0.09081   0.43290   0.12405   0.00000  Uiso   1.00
H321   H     0.06064   0.39605   0.10138   0.00000  Uiso   1.00
C322   C     0.24238   0.41590   0.40165   0.00000  Uiso   1.00
C323   C     0.21668   0.37479   0.40079   0.00000  Uiso   1.00
H324   H     0.21969   0.35387   0.42917   0.00000  Uiso   1.00
H325   H     0.17865   0.38035   0.40526   0.00000  Uiso   1.00
H326   H     0.23292   0.35903   0.36651   0.00000  Uiso   1.00
H327   H     0.23942   0.43621   0.37307   0.00000  Uiso   1.00
H328   H     0.28083   0.40861   0.39232   0.00000  Uiso   1.00
C329   C     0.50001   0.57996   0.25001   0.00000  Uiso   1.00
C330   C     0.49999   0.42005   0.25000   0.00000  Uiso   1.00
C331   C     0.44612   0.43073   0.04684   0.00000  Uiso   1.00
C332   C     0.55814   0.43672   0.44976   0.00000  Uiso   1.00
C333   C     0.41398   0.43136   0.02110   0.00000  Uiso   1.00
C334   C     0.59055   0.44360   0.47382   0.00000  Uiso   1.00
C335   C     0.53399   0.64534   0.26452   0.00000  Uiso   1.00
C336   C     0.46601   0.35469   0.23550   0.00000  Uiso   1.00
C337   C     0.53397   0.35473   0.26455   0.00000  Uiso   1.00
C338   C     0.46602   0.64531   0.23551   0.00000  Uiso   1.00
C339   C     0.49999   0.37588   0.25002   0.00000  Uiso   1.00
C340   C     0.50002   0.62415   0.25000   0.00000  Uiso   1.00
C341   C     0.64828   0.46673   0.23289   0.00000  Uiso   1.00
C342   C     0.35173   0.53327   0.26710   0.00000  Uiso   1.00
C343   C     0.36275   0.46678   0.23280   0.00000  Uiso   1.00
C344   C     0.63725   0.53321   0.26720   0.00000  Uiso   1.00
C345   C     0.47089   0.49946   0.33839   0.00000  Uiso   1.00
C346   C     0.52903   0.49990   0.16169   0.00000  Uiso   1.00
C347   C     0.45452   0.48838   0.38853   0.00000  Uiso   1.00
C348   C     0.54536   0.49170   0.11098   0.00000  Uiso   1.00
C349   C     0.39437   0.45693   0.45366   0.00000  Uiso   1.00
C350   C     0.60777   0.47729   0.03891   0.00000  Uiso   1.00
C351   C     0.40609   0.48164   0.41333   0.00000  Uiso   1.00
C352   C     0.59357   0.49460   0.08353   0.00000  Uiso   1.00
C353   C     0.48875   0.47630   0.40903   0.00000  Uiso   1.00
C354   C     0.51227   0.47572   0.09076   0.00000  Uiso   1.00
C355   C     0.47612   0.45454   0.45162   0.00000  Uiso   1.00
C356   C     0.52666   0.45778   0.04591   0.00000  Uiso   1.00
C357   C     0.42804   0.44681   0.47518   0.00000  Uiso   1.00
C358   C     0.57536   0.45892   0.01979   0.00000  Uiso   1.00
C359   C     0.50960   0.44452   0.47397   0.00000  Uiso   1.00
C360   C     0.49385   0.44376   0.02364   0.00000  Uiso   1.00
H361   H     0.37718   0.42288   0.03800   0.00000  Uiso   1.00
H362   H     0.62757   0.43915   0.45540   0.00000  Uiso   1.00
H363   H     0.47522   0.47951   0.10948   0.00000  Uiso   1.00
H364   H     0.52487   0.48643   0.39295   0.00000  Uiso   1.00
H365   H     0.35904   0.44626   0.46921   0.00000  Uiso   1.00
H366   H     0.64404   0.48097   0.01852   0.00000  Uiso   1.00
H367   H     0.56012   0.62901   0.27621   0.00000  Uiso   1.00
H368   H     0.43988   0.37104   0.22381   0.00000  Uiso   1.00
H369   H     0.56007   0.37111   0.27627   0.00000  Uiso   1.00
H370   H     0.43988   0.62894   0.22383   0.00000  Uiso   1.00
H371   H     0.63486   0.44008   0.21897   0.00000  Uiso   1.00
H372   H     0.36523   0.56002   0.28073   0.00000  Uiso   1.00
H373   H     0.38512   0.44016   0.21883   0.00000  Uiso   1.00
H374   H     0.61491   0.55986   0.28110   0.00000  Uiso   1.00
N375   N     0.38093   0.50001   0.25001   0.00000  Uiso   1.00
N376   N     0.61907   0.49999   0.24999   0.00000  Uiso   1.00
O377   O     0.46179   0.56108   0.25001   0.00000  Uiso   1.00
O378   O     0.53821   0.43892   0.25000   0.00000  Uiso   1.00
O379   O     0.53823   0.56107   0.25000   0.00000  Uiso   1.00
O380   O     0.46177   0.43893   0.25000   0.00000  Uiso   1.00
O381   O     0.43994   0.50001   0.31613   0.00000  Uiso   1.00
O382   O     0.56006   0.49999   0.18388   0.00000  Uiso   1.00
O383   O     0.51639   0.50000   0.31612   0.00000  Uiso   1.00
O384   O     0.48361   0.50000   0.18388   0.00000  Uiso   1.00
Zn385  Zn    0.44896   0.50001   0.25000   0.00000  Uiso   1.00
Zn386  Zn    0.55104   0.49999   0.25000   0.00000  Uiso   1.00
S387   S     0.63713   0.52183   0.10129   0.00000  Uiso   1.00
O388   O     0.65711   0.49294   0.12963   0.00000  Uiso   1.00
O389   O     0.34344   0.53613   0.05907   0.00000  Uiso   1.00
O390   O     0.61290   0.56380   0.13373   0.00000  Uiso   1.00
H391   H     0.63557   0.57164   0.15039   0.00000  Uiso   1.00
S392   S     0.35984   0.50783   0.39885   0.00000  Uiso   1.00
O393   O     0.34189   0.48047   0.36752   0.00000  Uiso   1.00
O394   O     0.65313   0.51776   0.44255   0.00000  Uiso   1.00
O395   O     0.37973   0.55314   0.37144   0.00000  Uiso   1.00
H396   H     0.35114   0.56724   0.36857   0.00000  Uiso   1.00
C397   C     0.42957   0.41028   0.09512   0.00000  Uiso   1.00
C398   C     0.46257   0.37516   0.09973   0.00000  Uiso   1.00
H399   H     0.46813   0.35257   0.07042   0.00000  Uiso   1.00
H400   H     0.49736   0.38761   0.09976   0.00000  Uiso   1.00
H401   H     0.44640   0.35842   0.13336   0.00000  Uiso   1.00
H402   H     0.42415   0.43290   0.12405   0.00000  Uiso   1.00
H403   H     0.39397   0.39605   0.10138   0.00000  Uiso   1.00
C404   C     0.57571   0.41590   0.40165   0.00000  Uiso   1.00
C405   C     0.55002   0.37479   0.40079   0.00000  Uiso   1.00
H406   H     0.55302   0.35387   0.42917   0.00000  Uiso   1.00
H407   H     0.51198   0.38035   0.40526   0.00000  Uiso   1.00
H408   H     0.56626   0.35903   0.36651   0.00000  Uiso   1.00
H409   H     0.57275   0.43621   0.37307   0.00000  Uiso   1.00
H410   H     0.61416   0.40861   0.39232   0.00000  Uiso   1.00
C411   C     0.83335   0.57996   0.25001   0.00000  Uiso   1.00
C412   C     0.83332   0.42005   0.25000   0.00000  Uiso   1.00
C413   C     0.77946   0.43073   0.04684   0.00000  Uiso   1.00
C414   C     0.89147   0.43672   0.44976   0.00000  Uiso   1.00
C415   C     0.74731   0.43136   0.02110   0.00000  Uiso   1.00
C416   C     0.92388   0.44360   0.47382   0.00000  Uiso   1.00
C417   C     0.86733   0.64534   0.26452   0.00000  Uiso   1.00
C418   C     0.79935   0.35469   0.23550   0.00000  Uiso   1.00
C419   C     0.86730   0.35473   0.26455   0.00000  Uiso   1.00
C420   C     0.79935   0.64531   0.23551   0.00000  Uiso   1.00
C421   C     0.83332   0.37588   0.25002   0.00000  Uiso   1.00
C422   C     0.83335   0.62415   0.25000   0.00000  Uiso   1.00
C423   C     0.98161   0.46673   0.23289   0.00000  Uiso   1.00
C424   C     0.68506   0.53327   0.26710   0.00000  Uiso   1.00
C425   C     0.69609   0.46678   0.23280   0.00000  Uiso   1.00
C426   C     0.97059   0.53321   0.26720   0.00000  Uiso   1.00
C427   C     0.80422   0.49946   0.33839   0.00000  Uiso   1.00
C428   C     0.86237   0.49990   0.16169   0.00000  Uiso   1.00
C429   C     0.78785   0.48838   0.38853   0.00000  Uiso   1.00
C430   C     0.87870   0.49170   0.11098   0.00000  Uiso   1.00
C431   C     0.72770   0.45693   0.45366   0.00000  Uiso   1.00
C432   C     0.94110   0.47729   0.03891   0.00000  Uiso   1.00
C433   C     0.73942   0.48164   0.41333   0.00000  Uiso   1.00
C434   C     0.92690   0.49460   0.08353   0.00000  Uiso   1.00
C435   C     0.82208   0.47630   0.40903   0.00000  Uiso   1.00
C436   C     0.84561   0.47572   0.09076   0.00000  Uiso   1.00
C437   C     0.80946   0.45454   0.45162   0.00000  Uiso   1.00
C438   C     0.85999   0.45778   0.04591   0.00000  Uiso   1.00
C439   C     0.76137   0.44681   0.47518   0.00000  Uiso   1.00
C440   C     0.90869   0.45892   0.01979   0.00000  Uiso   1.00
C441   C     0.84294   0.44452   0.47397   0.00000  Uiso   1.00
C442   C     0.82718   0.44376   0.02364   0.00000  Uiso   1.00
H443   H     0.71051   0.42288   0.03800   0.00000  Uiso   1.00
H444   H     0.96091   0.43915   0.45540   0.00000  Uiso   1.00
H445   H     0.80855   0.47951   0.10948   0.00000  Uiso   1.00
H446   H     0.85820   0.48643   0.39295   0.00000  Uiso   1.00
H447   H     0.69237   0.44626   0.46921   0.00000  Uiso   1.00
H448   H     0.97737   0.48097   0.01852   0.00000  Uiso   1.00
H449   H     0.89346   0.62901   0.27621   0.00000  Uiso   1.00
H450   H     0.77322   0.37104   0.22381   0.00000  Uiso   1.00
H451   H     0.89340   0.37111   0.27627   0.00000  Uiso   1.00
H452   H     0.77322   0.62894   0.22383   0.00000  Uiso   1.00
H453   H     0.96820   0.44008   0.21897   0.00000  Uiso   1.00
H454   H     0.69856   0.56002   0.28073   0.00000  Uiso   1.00
H455   H     0.71846   0.44016   0.21883   0.00000  Uiso   1.00
H456   H     0.94824   0.55986   0.28110   0.00000  Uiso   1.00
N457   N     0.71426   0.50001   0.25001   0.00000  Uiso   1.00
N458   N     0.95241   0.49999   0.24999   0.00000  Uiso   1.00
O459   O     0.79512   0.56108   0.25001   0.00000  Uiso   1.00
O460   O     0.87154   0.43892   0.25000   0.00000  Uiso   1.00
O461   O     0.87157   0.56107   0.25000   0.00000  Uiso   1.00
O462   O     0.79510   0.43893   0.25000   0.00000  Uiso   1.00
O463   O     0.77328   0.50001   0.31613   0.00000  Uiso   1.00
O464   O     0.89339   0.49999   0.18388   0.00000  Uiso   1.00
O465   O     0.84972   0.50000   0.31612   0.00000  Uiso   1.00
O466   O     0.81695   0.50000   0.18388   0.00000  Uiso   1.00
Zn467  Zn    0.78229   0.50001   0.25000   0.00000  Uiso   1.00
Zn468  Zn    0.88438   0.49999   0.25000   0.00000  Uiso   1.00
S469   S     0.97047   0.52183   0.10129   0.00000  Uiso   1.00
O470   O     0.99044   0.49294   0.12963   0.00000  Uiso   1.00
O471   O     0.67677   0.53613   0.05907   0.00000  Uiso   1.00
O472   O     0.94624   0.56380   0.13373   0.00000  Uiso   1.00
H473   H     0.96890   0.57164   0.15039   0.00000  Uiso   1.00
S474   S     0.69317   0.50783   0.39885   0.00000  Uiso   1.00
O475   O     0.67522   0.48047   0.36752   0.00000  Uiso   1.00
O476   O     0.98647   0.51776   0.44255   0.00000  Uiso   1.00
O477   O     0.71307   0.55314   0.37144   0.00000  Uiso   1.00
H478   H     0.68447   0.56724   0.36857   0.00000  Uiso   1.00
C479   C     0.76290   0.41028   0.09512   0.00000  Uiso   1.00
C480   C     0.79591   0.37516   0.09973   0.00000  Uiso   1.00
H481   H     0.80146   0.35257   0.07042   0.00000  Uiso   1.00
H482   H     0.83069   0.38761   0.09976   0.00000  Uiso   1.00
H483   H     0.77973   0.35842   0.13336   0.00000  Uiso   1.00
H484   H     0.75748   0.43290   0.12405   0.00000  Uiso   1.00
H485   H     0.72731   0.39605   0.10138   0.00000  Uiso   1.00
C486   C     0.90905   0.41590   0.40165   0.00000  Uiso   1.00
C487   C     0.88335   0.37479   0.40079   0.00000  Uiso   1.00
H488   H     0.88636   0.35387   0.42917   0.00000  Uiso   1.00
H489   H     0.84532   0.38035   0.40526   0.00000  Uiso   1.00
H490   H     0.89959   0.35903   0.36651   0.00000  Uiso   1.00
H491   H     0.90609   0.43621   0.37307   0.00000  Uiso   1.00
H492   H     0.94750   0.40861   0.39232   0.00000  Uiso   1.00
C493   C     0.16668   0.91330   0.25001   0.00000  Uiso   1.00
C494   C     0.16665   0.75338   0.25000   0.00000  Uiso   1.00
C495   C     0.11279   0.76407   0.04684   0.00000  Uiso   1.00
C496   C     0.22481   0.77005   0.44976   0.00000  Uiso   1.00
C497   C     0.08064   0.76470   0.02110   0.00000  Uiso   1.00
C498   C     0.25721   0.77693   0.47382   0.00000  Uiso   1.00
C499   C     0.20066   0.97868   0.26452   0.00000  Uiso   1.00
C500   C     0.13268   0.68803   0.23550   0.00000  Uiso   1.00
C501   C     0.20063   0.68806   0.26455   0.00000  Uiso   1.00
C502   C     0.13268   0.97864   0.23551   0.00000  Uiso   1.00
C503   C     0.16665   0.70921   0.25002   0.00000  Uiso   1.00
C504   C     0.16668   0.95748   0.25000   0.00000  Uiso   1.00
C505   C     0.31494   0.80006   0.23289   0.00000  Uiso   1.00
C506   C     0.01839   0.86660   0.26710   0.00000  Uiso   1.00
C507   C     0.02942   0.80011   0.23280   0.00000  Uiso   1.00
C508   C     0.30392   0.86655   0.26720   0.00000  Uiso   1.00
C509   C     0.13755   0.83280   0.33839   0.00000  Uiso   1.00
C510   C     0.19570   0.83324   0.16169   0.00000  Uiso   1.00
C511   C     0.12119   0.82172   0.38853   0.00000  Uiso   1.00
C512   C     0.21203   0.82504   0.11098   0.00000  Uiso   1.00
C513   C     0.06104   0.79026   0.45366   0.00000  Uiso   1.00
C514   C     0.27444   0.81063   0.03891   0.00000  Uiso   1.00
C515   C     0.07276   0.81498   0.41333   0.00000  Uiso   1.00
C516   C     0.26024   0.82793   0.08353   0.00000  Uiso   1.00
C517   C     0.15542   0.80964   0.40903   0.00000  Uiso   1.00
C518   C     0.17894   0.80905   0.09076   0.00000  Uiso   1.00
C519   C     0.14279   0.78787   0.45162   0.00000  Uiso   1.00
C520   C     0.19333   0.79112   0.04591   0.00000  Uiso   1.00
C521   C     0.09470   0.78014   0.47518   0.00000  Uiso   1.00
C522   C     0.24202   0.79225   0.01979   0.00000  Uiso   1.00
C523   C     0.17627   0.77785   0.47397   0.00000  Uiso   1.00
C524   C     0.16052   0.77710   0.02364   0.00000  Uiso   1.00
H525   H     0.04384   0.75621   0.03800   0.00000  Uiso   1.00
H526   H     0.29424   0.77248   0.45540   0.00000  Uiso   1.00
H527   H     0.14189   0.81284   0.10948   0.00000  Uiso   1.00
H528   H     0.19154   0.81976   0.39295   0.00000  Uiso   1.00
H529   H     0.02570   0.77959   0.46921   0.00000  Uiso   1.00
H530   H     0.31071   0.81430   0.01852   0.00000  Uiso   1.00
H531   H     0.22679   0.96234   0.27621   0.00000  Uiso   1.00
H532   H     0.10655   0.70437   0.22381   0.00000  Uiso   1.00
H533   H     0.22674   0.70444   0.27627   0.00000  Uiso   1.00
H534   H     0.10655   0.96228   0.22383   0.00000  Uiso   1.00
H535   H     0.30153   0.77341   0.21897   0.00000  Uiso   1.00
H536   H     0.03189   0.89335   0.28073   0.00000  Uiso   1.00
H537   H     0.05179   0.77349   0.21883   0.00000  Uiso   1.00
H538   H     0.28158   0.89319   0.28110   0.00000  Uiso   1.00
N539   N     0.04759   0.83334   0.25001   0.00000  Uiso   1.00
N540   N     0.28574   0.83332   0.24999   0.00000  Uiso   1.00
O541   O     0.12846   0.89442   0.25001   0.00000  Uiso   1.00
O542   O     0.20488   0.77225   0.25000   0.00000  Uiso   1.00
O543   O     0.20490   0.89441   0.25000   0.00000  Uiso   1.00
O544   O     0.12843   0.77226   0.25000   0.00000  Uiso   1.00
O545   O     0.10661   0.83334   0.31613   0.00000  Uiso   1.00
O546   O     0.22672   0.83333   0.18388   0.00000  Uiso   1.00
O547   O     0.18305   0.83333   0.31612   0.00000  Uiso   1.00
O548   O     0.15028   0.83334   0.18388   0.00000  Uiso   1.00
Zn549  Zn    0.11562   0.83334   0.25000   0.00000  Uiso   1.00
Zn550  Zn    0.21771   0.83333   0.25000   0.00000  Uiso   1.00
S551   S     0.30380   0.85517   0.10129   0.00000  Uiso   1.00
O552   O     0.32377   0.82627   0.12963   0.00000  Uiso   1.00
O553   O     0.01011   0.86946   0.05907   0.00000  Uiso   1.00
O554   O     0.27957   0.89713   0.13373   0.00000  Uiso   1.00
H555   H     0.30223   0.90498   0.15039   0.00000  Uiso   1.00
S556   S     0.02651   0.84117   0.39885   0.00000  Uiso   1.00
O557   O     0.00856   0.81380   0.36752   0.00000  Uiso   1.00
O558   O     0.31980   0.85109   0.44255   0.00000  Uiso   1.00
O559   O     0.04640   0.88647   0.37144   0.00000  Uiso   1.00
H560   H     0.01781   0.90057   0.36857   0.00000  Uiso   1.00
C561   C     0.09624   0.74361   0.09512   0.00000  Uiso   1.00
C562   C     0.12924   0.70849   0.09973   0.00000  Uiso   1.00
H563   H     0.13479   0.68591   0.07042   0.00000  Uiso   1.00
H564   H     0.16403   0.72094   0.09976   0.00000  Uiso   1.00
H565   H     0.11306   0.69176   0.13336   0.00000  Uiso   1.00
H566   H     0.09081   0.76624   0.12405   0.00000  Uiso   1.00
H567   H     0.06064   0.72939   0.10138   0.00000  Uiso   1.00
C568   C     0.24238   0.74923   0.40165   0.00000  Uiso   1.00
C569   C     0.21668   0.70812   0.40079   0.00000  Uiso   1.00
H570   H     0.21969   0.68721   0.42917   0.00000  Uiso   1.00
H571   H     0.17865   0.71368   0.40526   0.00000  Uiso   1.00
H572   H     0.23292   0.69237   0.36651   0.00000  Uiso   1.00
H573   H     0.23942   0.76954   0.37307   0.00000  Uiso   1.00
H574   H     0.28083   0.74194   0.39232   0.00000  Uiso   1.00
C575   C     0.50001   0.91330   0.25001   0.00000  Uiso   1.00
C576   C     0.49999   0.75338   0.25000   0.00000  Uiso   1.00
C577   C     0.44612   0.76407   0.04684   0.00000  Uiso   1.00
C578   C     0.55814   0.77005   0.44976   0.00000  Uiso   1.00
C579   C     0.41398   0.76470   0.02110   0.00000  Uiso   1.00
C580   C     0.59055   0.77693   0.47382   0.00000  Uiso   1.00
C581   C     0.53399   0.97868   0.26452   0.00000  Uiso   1.00
C582   C     0.46601   0.68803   0.23550   0.00000  Uiso   1.00
C583   C     0.53397   0.68806   0.26455   0.00000  Uiso   1.00
C584   C     0.46602   0.97864   0.23551   0.00000  Uiso   1.00
C585   C     0.49999   0.70921   0.25002   0.00000  Uiso   1.00
C586   C     0.50002   0.95748   0.25000   0.00000  Uiso   1.00
C587   C     0.64828   0.80006   0.23289   0.00000  Uiso   1.00
C588   C     0.35173   0.86660   0.26710   0.00000  Uiso   1.00
C589   C     0.36275   0.80011   0.23280   0.00000  Uiso   1.00
C590   C     0.63725   0.86655   0.26720   0.00000  Uiso   1.00
C591   C     0.47089   0.83280   0.33839   0.00000  Uiso   1.00
C592   C     0.52903   0.83324   0.16169   0.00000  Uiso   1.00
C593   C     0.45452   0.82172   0.38853   0.00000  Uiso   1.00
C594   C     0.54536   0.82504   0.11098   0.00000  Uiso   1.00
C595   C     0.39437   0.79026   0.45366   0.00000  Uiso   1.00
C596   C     0.60777   0.81063   0.03891   0.00000  Uiso   1.00
C597   C     0.40609   0.81498   0.41333   0.00000  Uiso   1.00
C598   C     0.59357   0.82793   0.08353   0.00000  Uiso   1.00
C599   C     0.48875   0.80964   0.40903   0.00000  Uiso   1.00
C600   C     0.51227   0.80905   0.09076   0.00000  Uiso   1.00
C601   C     0.47612   0.78787   0.45162   0.00000  Uiso   1.00
C602   C     0.52666   0.79112   0.04591   0.00000  Uiso   1.00
C603   C     0.42804   0.78014   0.47518   0.00000  Uiso   1.00
C604   C     0.57536   0.79225   0.01979   0.00000  Uiso   1.00
C605   C     0.50960   0.77785   0.47397   0.00000  Uiso   1.00
C606   C     0.49385   0.77710   0.02364   0.00000  Uiso   1.00
H607   H     0.37718   0.75621   0.03800   0.00000  Uiso   1.00
H608   H     0.62757   0.77248   0.45540   0.00000  Uiso   1.00
H609   H     0.47522   0.81284   0.10948   0.00000  Uiso   1.00
H610   H     0.52487   0.81976   0.39295   0.00000  Uiso   1.00
H611   H     0.35904   0.77959   0.46921   0.00000  Uiso   1.00
H612   H     0.64404   0.81430   0.01852   0.00000  Uiso   1.00
H613   H     0.56012   0.96234   0.27621   0.00000  Uiso   1.00
H614   H     0.43988   0.70437   0.22381   0.00000  Uiso   1.00
H615   H     0.56007   0.70444   0.27627   0.00000  Uiso   1.00
H616   H     0.43988   0.96228   0.22383   0.00000  Uiso   1.00
H617   H     0.63486   0.77341   0.21897   0.00000  Uiso   1.00
H618   H     0.36523   0.89335   0.28073   0.00000  Uiso   1.00
H619   H     0.38512   0.77349   0.21883   0.00000  Uiso   1.00
H620   H     0.61491   0.89319   0.28110   0.00000  Uiso   1.00
N621   N     0.38093   0.83334   0.25001   0.00000  Uiso   1.00
N622   N     0.61907   0.83332   0.24999   0.00000  Uiso   1.00
O623   O     0.46179   0.89442   0.25001   0.00000  Uiso   1.00
O624   O     0.53821   0.77225   0.25000   0.00000  Uiso   1.00
O625   O     0.53823   0.89441   0.25000   0.00000  Uiso   1.00
O626   O     0.46177   0.77226   0.25000   0.00000  Uiso   1.00
O627   O     0.43994   0.83334   0.31613   0.00000  Uiso   1.00
O628   O     0.56006   0.83333   0.18388   0.00000  Uiso   1.00
O629   O     0.51639   0.83333   0.31612   0.00000  Uiso   1.00
O630   O     0.48361   0.83334   0.18388   0.00000  Uiso   1.00
Zn631  Zn    0.44896   0.83334   0.25000   0.00000  Uiso   1.00
Zn632  Zn    0.55104   0.83333   0.25000   0.00000  Uiso   1.00
S633   S     0.63713   0.85517   0.10129   0.00000  Uiso   1.00
O634   O     0.65711   0.82627   0.12963   0.00000  Uiso   1.00
O635   O     0.34344   0.86946   0.05907   0.00000  Uiso   1.00
O636   O     0.61290   0.89713   0.13373   0.00000  Uiso   1.00
H637   H     0.63557   0.90498   0.15039   0.00000  Uiso   1.00
S638   S     0.35984   0.84117   0.39885   0.00000  Uiso   1.00
O639   O     0.34189   0.81380   0.36752   0.00000  Uiso   1.00
O640   O     0.65313   0.85109   0.44255   0.00000  Uiso   1.00
O641   O     0.37973   0.88647   0.37144   0.00000  Uiso   1.00
H642   H     0.35114   0.90057   0.36857   0.00000  Uiso   1.00
C643   C     0.42957   0.74361   0.09512   0.00000  Uiso   1.00
C644   C     0.46257   0.70849   0.09973   0.00000  Uiso   1.00
H645   H     0.46813   0.68591   0.07042   0.00000  Uiso   1.00
H646   H     0.49736   0.72094   0.09976   0.00000  Uiso   1.00
H647   H     0.44640   0.69176   0.13336   0.00000  Uiso   1.00
H648   H     0.42415   0.76624   0.12405   0.00000  Uiso   1.00
H649   H     0.39397   0.72939   0.10138   0.00000  Uiso   1.00
C650   C     0.57571   0.74923   0.40165   0.00000  Uiso   1.00
C651   C     0.55002   0.70812   0.40079   0.00000  Uiso   1.00
H652   H     0.55302   0.68721   0.42917   0.00000  Uiso   1.00
H653   H     0.51198   0.71368   0.40526   0.00000  Uiso   1.00
H654   H     0.56626   0.69237   0.36651   0.00000  Uiso   1.00
H655   H     0.57275   0.76954   0.37307   0.00000  Uiso   1.00
H656   H     0.61416   0.74194   0.39232   0.00000  Uiso   1.00
C657   C     0.83335   0.91330   0.25001   0.00000  Uiso   1.00
C658   C     0.83332   0.75338   0.25000   0.00000  Uiso   1.00
C659   C     0.77946   0.76407   0.04684   0.00000  Uiso   1.00
C660   C     0.89147   0.77005   0.44976   0.00000  Uiso   1.00
C661   C     0.74731   0.76470   0.02110   0.00000  Uiso   1.00
C662   C     0.92388   0.77693   0.47382   0.00000  Uiso   1.00
C663   C     0.86733   0.97868   0.26452   0.00000  Uiso   1.00
C664   C     0.79935   0.68803   0.23550   0.00000  Uiso   1.00
C665   C     0.86730   0.68806   0.26455   0.00000  Uiso   1.00
C666   C     0.79935   0.97864   0.23551   0.00000  Uiso   1.00
C667   C     0.83332   0.70921   0.25002   0.00000  Uiso   1.00
C668   C     0.83335   0.95748   0.25000   0.00000  Uiso   1.00
C669   C     0.98161   0.80006   0.23289   0.00000  Uiso   1.00
C670   C     0.68506   0.86660   0.26710   0.00000  Uiso   1.00
C671   C     0.69609   0.80011   0.23280   0.00000  Uiso   1.00
C672   C     0.97059   0.86655   0.26720   0.00000  Uiso   1.00
C673   C     0.80422   0.83280   0.33839   0.00000  Uiso   1.00
C674   C     0.86237   0.83324   0.16169   0.00000  Uiso   1.00
C675   C     0.78785   0.82172   0.38853   0.00000  Uiso   1.00
C676   C     0.87870   0.82504   0.11098   0.00000  Uiso   1.00
C677   C     0.72770   0.79026   0.45366   0.00000  Uiso   1.00
C678   C     0.94110   0.81063   0.03891   0.00000  Uiso   1.00
C679   C     0.73942   0.81498   0.41333   0.00000  Uiso   1.00
C680   C     0.92690   0.82793   0.08353   0.00000  Uiso   1.00
C681   C     0.82208   0.80964   0.40903   0.00000  Uiso   1.00
C682   C     0.84561   0.80905   0.09076   0.00000  Uiso   1.00
C683   C     0.80946   0.78787   0.45162   0.00000  Uiso   1.00
C684   C     0.85999   0.79112   0.04591   0.00000  Uiso   1.00
C685   C     0.76137   0.78014   0.47518   0.00000  Uiso   1.00
C686   C     0.90869   0.79225   0.01979   0.00000  Uiso   1.00
C687   C     0.84294   0.77785   0.47397   0.00000  Uiso   1.00
C688   C     0.82718   0.77710   0.02364   0.00000  Uiso   1.00
H689   H     0.71051   0.75621   0.03800   0.00000  Uiso   1.00
H690   H     0.96091   0.77248   0.45540   0.00000  Uiso   1.00
H691   H     0.80855   0.81284   0.10948   0.00000  Uiso   1.00
H692   H     0.85820   0.81976   0.39295   0.00000  Uiso   1.00
H693   H     0.69237   0.77959   0.46921   0.00000  Uiso   1.00
H694   H     0.97737   0.81430   0.01852   0.00000  Uiso   1.00
H695   H     0.89346   0.96234   0.27621   0.00000  Uiso   1.00
H696   H     0.77322   0.70437   0.22381   0.00000  Uiso   1.00
H697   H     0.89340   0.70444   0.27627   0.00000  Uiso   1.00
H698   H     0.77322   0.96228   0.22383   0.00000  Uiso   1.00
H699   H     0.96820   0.77341   0.21897   0.00000  Uiso   1.00
H700   H     0.69856   0.89335   0.28073   0.00000  Uiso   1.00
H701   H     0.71846   0.77349   0.21883   0.00000  Uiso   1.00
H702   H     0.94824   0.89319   0.28110   0.00000  Uiso   1.00
N703   N     0.71426   0.83334   0.25001   0.00000  Uiso   1.00
N704   N     0.95241   0.83332   0.24999   0.00000  Uiso   1.00
O705   O     0.79512   0.89442   0.25001   0.00000  Uiso   1.00
O706   O     0.87154   0.77225   0.25000   0.00000  Uiso   1.00
O707   O     0.87157   0.89441   0.25000   0.00000  Uiso   1.00
O708   O     0.79510   0.77226   0.25000   0.00000  Uiso   1.00
O709   O     0.77328   0.83334   0.31613   0.00000  Uiso   1.00
O710   O     0.89339   0.83333   0.18388   0.00000  Uiso   1.00
O711   O     0.84972   0.83333   0.31612   0.00000  Uiso   1.00
O712   O     0.81695   0.83334   0.18388   0.00000  Uiso   1.00
Zn713  Zn    0.78229   0.83334   0.25000   0.00000  Uiso   1.00
Zn714  Zn    0.88438   0.83333   0.25000   0.00000  Uiso   1.00
S715   S     0.97047   0.85517   0.10129   0.00000  Uiso   1.00
O716   O     0.99044   0.82627   0.12963   0.00000  Uiso   1.00
O717   O     0.67677   0.86946   0.05907   0.00000  Uiso   1.00
O718   O     0.94624   0.89713   0.13373   0.00000  Uiso   1.00
H719   H     0.96890   0.90498   0.15039   0.00000  Uiso   1.00
S720   S     0.69317   0.84117   0.39885   0.00000  Uiso   1.00
O721   O     0.67522   0.81380   0.36752   0.00000  Uiso   1.00
O722   O     0.98647   0.85109   0.44255   0.00000  Uiso   1.00
O723   O     0.71307   0.88647   0.37144   0.00000  Uiso   1.00
H724   H     0.68447   0.90057   0.36857   0.00000  Uiso   1.00
C725   C     0.76290   0.74361   0.09512   0.00000  Uiso   1.00
C726   C     0.79591   0.70849   0.09973   0.00000  Uiso   1.00
H727   H     0.80146   0.68591   0.07042   0.00000  Uiso   1.00
H728   H     0.83069   0.72094   0.09976   0.00000  Uiso   1.00
H729   H     0.77973   0.69176   0.13336   0.00000  Uiso   1.00
H730   H     0.75748   0.76624   0.12405   0.00000  Uiso   1.00
H731   H     0.72731   0.72939   0.10138   0.00000  Uiso   1.00
C732   C     0.90905   0.74923   0.40165   0.00000  Uiso   1.00
C733   C     0.88335   0.70812   0.40079   0.00000  Uiso   1.00
H734   H     0.88636   0.68721   0.42917   0.00000  Uiso   1.00
H735   H     0.84532   0.71368   0.40526   0.00000  Uiso   1.00
H736   H     0.89959   0.69237   0.36651   0.00000  Uiso   1.00
H737   H     0.90609   0.76954   0.37307   0.00000  Uiso   1.00
H738   H     0.94750   0.74194   0.39232   0.00000  Uiso   1.00
C739   C     0.16668   0.24663   0.75001   0.00000  Uiso   1.00
C740   C     0.16665   0.08671   0.75000   0.00000  Uiso   1.00
C741   C     0.11279   0.09740   0.54684   0.00000  Uiso   1.00
C742   C     0.22481   0.10339   0.94976   0.00000  Uiso   1.00
C743   C     0.08064   0.09803   0.52110   0.00000  Uiso   1.00
C744   C     0.25721   0.11026   0.97382   0.00000  Uiso   1.00
C745   C     0.20066   0.31201   0.76452   0.00000  Uiso   1.00
C746   C     0.13268   0.02136   0.73550   0.00000  Uiso   1.00
C747   C     0.20063   0.02140   0.76455   0.00000  Uiso   1.00
C748   C     0.13268   0.31197   0.73551   0.00000  Uiso   1.00
C749   C     0.16665   0.04254   0.75002   0.00000  Uiso   1.00
C750   C     0.16668   0.29081   0.75000   0.00000  Uiso   1.00
C751   C     0.31494   0.13340   0.73289   0.00000  Uiso   1.00
C752   C     0.01839   0.19993   0.76710   0.00000  Uiso   1.00
C753   C     0.02942   0.13344   0.73280   0.00000  Uiso   1.00
C754   C     0.30392   0.19988   0.76720   0.00000  Uiso   1.00
C755   C     0.13755   0.16613   0.83839   0.00000  Uiso   1.00
C756   C     0.19570   0.16657   0.66169   0.00000  Uiso   1.00
C757   C     0.12119   0.15505   0.88853   0.00000  Uiso   1.00
C758   C     0.21203   0.15837   0.61098   0.00000  Uiso   1.00
C759   C     0.06104   0.12360   0.95366   0.00000  Uiso   1.00
C760   C     0.27444   0.14396   0.53891   0.00000  Uiso   1.00
C761   C     0.07276   0.14831   0.91333   0.00000  Uiso   1.00
C762   C     0.26024   0.16127   0.58353   0.00000  Uiso   1.00
C763   C     0.15542   0.14297   0.90903   0.00000  Uiso   1.00
C764   C     0.17894   0.14239   0.59076   0.00000  Uiso   1.00
C765   C     0.14279   0.12120   0.95162   0.00000  Uiso   1.00
C766   C     0.19333   0.12445   0.54591   0.00000  Uiso   1.00
C767   C     0.09470   0.11347   0.97518   0.00000  Uiso   1.00
C768   C     0.24202   0.12558   0.51979   0.00000  Uiso   1.00
C769   C     0.17627   0.11118   0.97397   0.00000  Uiso   1.00
C770   C     0.16052   0.11043   0.52364   0.00000  Uiso   1.00
H771   H     0.04384   0.08954   0.53800   0.00000  Uiso   1.00
H772   H     0.29424   0.10581   0.95540   0.00000  Uiso   1.00
H773   H     0.14189   0.14618   0.60948   0.00000  Uiso   1.00
H774   H     0.19154   0.15310   0.89295   0.00000  Uiso   1.00
H775   H     0.02570   0.11292   0.96921   0.00000  Uiso   1.00
H776   H     0.31071   0.14764   0.51852   0.00000  Uiso   1.00
H777   H     0.22679   0.29568   0.77621   0.00000  Uiso   1.00
H778   H     0.10655   0.03770   0.72381   0.00000  Uiso   1.00
H779   H     0.22674   0.03777   0.77627   0.00000  Uiso   1.00
H780   H     0.10655   0.29561   0.72383   0.00000  Uiso   1.00
H781   H     0.30153   0.10674   0.71897   0.00000  Uiso   1.00
H782   H     0.03189   0.22668   0.78073   0.00000  Uiso   1.00
H783   H     0.05179   0.10683   0.71883   0.00000  Uiso   1.00
H784   H     0.28158   0.22653   0.78110   0.00000  Uiso   1.00
N785   N     0.04759   0.16668   0.75001   0.00000  Uiso   1.00
N786   N     0.28574   0.16666   0.74999   0.00000  Uiso   1.00
O787   O     0.12846   0.22775   0.75001   0.00000  Uiso   1.00
O788   O     0.20488   0.10558   0.75000   0.00000  Uiso   1.00
O789   O     0.20490   0.22774   0.75000   0.00000  Uiso   1.00
O790   O     0.12843   0.10559   0.75000   0.00000  Uiso   1.00
O791   O     0.10661   0.16667   0.81613   0.00000  Uiso   1.00
O792   O     0.22672   0.16666   0.68388   0.00000  Uiso   1.00
O793   O     0.18305   0.16666   0.81612   0.00000  Uiso   1.00
O794   O     0.15028   0.16667   0.68388   0.00000  Uiso   1.00
Zn795  Zn    0.11562   0.16667   0.75000   0.00000  Uiso   1.00
Zn796  Zn    0.21771   0.16666   0.75000   0.00000  Uiso   1.00
S797   S     0.30380   0.18850   0.60129   0.00000  Uiso   1.00
O798   O     0.32377   0.15960   0.62963   0.00000  Uiso   1.00
O799   O     0.01011   0.20280   0.55907   0.00000  Uiso   1.00
O800   O     0.27957   0.23046   0.63373   0.00000  Uiso   1.00
H801   H     0.30223   0.23831   0.65039   0.00000  Uiso   1.00
S802   S     0.02651   0.17450   0.89885   0.00000  Uiso   1.00
O803   O     0.00856   0.14713   0.86752   0.00000  Uiso   1.00
O804   O     0.31980   0.18442   0.94255   0.00000  Uiso   1.00
O805   O     0.04640   0.21980   0.87144   0.00000  Uiso   1.00
H806   H     0.01781   0.23391   0.86857   0.00000  Uiso   1.00
C807   C     0.09624   0.07695   0.59512   0.00000  Uiso   1.00
C808   C     0.12924   0.04182   0.59973   0.00000  Uiso   1.00
H809   H     0.13479   0.01924   0.57042   0.00000  Uiso   1.00
H810   H     0.16403   0.05428   0.59976   0.00000  Uiso   1.00
H811   H     0.11306   0.02509   0.63336   0.00000  Uiso   1.00
H812   H     0.09081   0.09957   0.62405   0.00000  Uiso   1.00
H813   H     0.06064   0.06272   0.60138   0.00000  Uiso   1.00
C814   C     0.24238   0.08256   0.90165   0.00000  Uiso   1.00
C815   C     0.21668   0.04146   0.90079   0.00000  Uiso   1.00
H816   H     0.21969   0.02054   0.92917   0.00000  Uiso   1.00
H817   H     0.17865   0.04702   0.90526   0.00000  Uiso   1.00
H818   H     0.23292   0.02570   0.86651   0.00000  Uiso   1.00
H819   H     0.23942   0.10287   0.87307   0.00000  Uiso   1.00
H820   H     0.28083   0.07528   0.89232   0.00000  Uiso   1.00
C821   C     0.50001   0.24663   0.75001   0.00000  Uiso   1.00
C822   C     0.49999   0.08671   0.75000   0.00000  Uiso   1.00
C823   C     0.44612   0.09740   0.54684   0.00000  Uiso   1.00
C824   C     0.55814   0.10339   0.94976   0.00000  Uiso   1.00
C825   C     0.41398   0.09803   0.52110   0.00000  Uiso   1.00
C826   C     0.59055   0.11026   0.97382   0.00000  Uiso   1.00
C827   C     0.53399   0.31201   0.76452   0.00000  Uiso   1.00
C828   C     0.46601   0.02136   0.73550   0.00000  Uiso   1.00
C829   C     0.53397   0.02140   0.76455   0.00000  Uiso   1.00
C830   C     0.46602   0.31197   0.73551   0.00000  Uiso   1.00
C831   C     0.49999   0.04254   0.75002   0.00000  Uiso   1.00
C832   C     0.50002   0.29081   0.75000   0.00000  Uiso   1.00
C833   C     0.64828   0.13340   0.73289   0.00000  Uiso   1.00
C834   C     0.35173   0.19993   0.76710   0.00000  Uiso   1.00
C835   C     0.36275   0.13344   0.73280   0.00000  Uiso   1.00
C836   C     0.63725   0.19988   0.76720   0.00000  Uiso   1.00
C837   C     0.47089   0.16613   0.83839   0.00000  Uiso   1.00
C838   C     0.52903   0.16657   0.66169   0.00000  Uiso   1.00
C839   C     0.45452   0.15505   0.88853   0.00000  Uiso   1.00
C840   C     0.54536   0.15837   0.61098   0.00000  Uiso   1.00
C841   C     0.39437   0.12360   0.95366   0.00000  Uiso   1.00
C842   C     0.60777   0.14396   0.53891   0.00000  Uiso   1.00
C843   C     0.40609   0.14831   0.91333   0.00000  Uiso   1.00
C844   C     0.59357   0.16127   0.58353   0.00000  Uiso   1.00
C845   C     0.48875   0.14297   0.90903   0.00000  Uiso   1.00
C846   C     0.51227   0.14239   0.59076   0.00000  Uiso   1.00
C847   C     0.47612   0.12120   0.95162   0.00000  Uiso   1.00
C848   C     0.52666   0.12445   0.54591   0.00000  Uiso   1.00
C849   C     0.42804   0.11347   0.97518   0.00000  Uiso   1.00
C850   C     0.57536   0.12558   0.51979   0.00000  Uiso   1.00
C851   C     0.50960   0.11118   0.97397   0.00000  Uiso   1.00
C852   C     0.49385   0.11043   0.52364   0.00000  Uiso   1.00
H853   H     0.37718   0.08954   0.53800   0.00000  Uiso   1.00
H854   H     0.62757   0.10581   0.95540   0.00000  Uiso   1.00
H855   H     0.47522   0.14618   0.60948   0.00000  Uiso   1.00
H856   H     0.52487   0.15310   0.89295   0.00000  Uiso   1.00
H857   H     0.35904   0.11292   0.96921   0.00000  Uiso   1.00
H858   H     0.64404   0.14764   0.51852   0.00000  Uiso   1.00
H859   H     0.56012   0.29568   0.77621   0.00000  Uiso   1.00
H860   H     0.43988   0.03770   0.72381   0.00000  Uiso   1.00
H861   H     0.56007   0.03777   0.77627   0.00000  Uiso   1.00
H862   H     0.43988   0.29561   0.72383   0.00000  Uiso   1.00
H863   H     0.63486   0.10674   0.71897   0.00000  Uiso   1.00
H864   H     0.36523   0.22668   0.78073   0.00000  Uiso   1.00
H865   H     0.38512   0.10683   0.71883   0.00000  Uiso   1.00
H866   H     0.61491   0.22653   0.78110   0.00000  Uiso   1.00
N867   N     0.38093   0.16668   0.75001   0.00000  Uiso   1.00
N868   N     0.61907   0.16666   0.74999   0.00000  Uiso   1.00
O869   O     0.46179   0.22775   0.75001   0.00000  Uiso   1.00
O870   O     0.53821   0.10558   0.75000   0.00000  Uiso   1.00
O871   O     0.53823   0.22774   0.75000   0.00000  Uiso   1.00
O872   O     0.46177   0.10559   0.75000   0.00000  Uiso   1.00
O873   O     0.43994   0.16667   0.81613   0.00000  Uiso   1.00
O874   O     0.56006   0.16666   0.68388   0.00000  Uiso   1.00
O875   O     0.51639   0.16666   0.81612   0.00000  Uiso   1.00
O876   O     0.48361   0.16667   0.68388   0.00000  Uiso   1.00
Zn877  Zn    0.44896   0.16667   0.75000   0.00000  Uiso   1.00
Zn878  Zn    0.55104   0.16666   0.75000   0.00000  Uiso   1.00
S879   S     0.63713   0.18850   0.60129   0.00000  Uiso   1.00
O880   O     0.65711   0.15960   0.62963   0.00000  Uiso   1.00
O881   O     0.34344   0.20280   0.55907   0.00000  Uiso   1.00
O882   O     0.61290   0.23046   0.63373   0.00000  Uiso   1.00
H883   H     0.63557   0.23831   0.65039   0.00000  Uiso   1.00
S884   S     0.35984   0.17450   0.89885   0.00000  Uiso   1.00
O885   O     0.34189   0.14713   0.86752   0.00000  Uiso   1.00
O886   O     0.65313   0.18442   0.94255   0.00000  Uiso   1.00
O887   O     0.37973   0.21980   0.87144   0.00000  Uiso   1.00
H888   H     0.35114   0.23391   0.86857   0.00000  Uiso   1.00
C889   C     0.42957   0.07695   0.59512   0.00000  Uiso   1.00
C890   C     0.46257   0.04182   0.59973   0.00000  Uiso   1.00
H891   H     0.46813   0.01924   0.57042   0.00000  Uiso   1.00
H892   H     0.49736   0.05428   0.59976   0.00000  Uiso   1.00
H893   H     0.44640   0.02509   0.63336   0.00000  Uiso   1.00
H894   H     0.42415   0.09957   0.62405   0.00000  Uiso   1.00
H895   H     0.39397   0.06272   0.60138   0.00000  Uiso   1.00
C896   C     0.57571   0.08256   0.90165   0.00000  Uiso   1.00
C897   C     0.55002   0.04146   0.90079   0.00000  Uiso   1.00
H898   H     0.55302   0.02054   0.92917   0.00000  Uiso   1.00
H899   H     0.51198   0.04702   0.90526   0.00000  Uiso   1.00
H900   H     0.56626   0.02570   0.86651   0.00000  Uiso   1.00
H901   H     0.57275   0.10287   0.87307   0.00000  Uiso   1.00
H902   H     0.61416   0.07528   0.89232   0.00000  Uiso   1.00
C903   C     0.83335   0.24663   0.75001   0.00000  Uiso   1.00
C904   C     0.83332   0.08671   0.75000   0.00000  Uiso   1.00
C905   C     0.77946   0.09740   0.54684   0.00000  Uiso   1.00
C906   C     0.89147   0.10339   0.94976   0.00000  Uiso   1.00
C907   C     0.74731   0.09803   0.52110   0.00000  Uiso   1.00
C908   C     0.92388   0.11026   0.97382   0.00000  Uiso   1.00
C909   C     0.86733   0.31201   0.76452   0.00000  Uiso   1.00
C910   C     0.79935   0.02136   0.73550   0.00000  Uiso   1.00
C911   C     0.86730   0.02140   0.76455   0.00000  Uiso   1.00
C912   C     0.79935   0.31197   0.73551   0.00000  Uiso   1.00
C913   C     0.83332   0.04254   0.75002   0.00000  Uiso   1.00
C914   C     0.83335   0.29081   0.75000   0.00000  Uiso   1.00
C915   C     0.98161   0.13340   0.73289   0.00000  Uiso   1.00
C916   C     0.68506   0.19993   0.76710   0.00000  Uiso   1.00
C917   C     0.69609   0.13344   0.73280   0.00000  Uiso   1.00
C918   C     0.97059   0.19988   0.76720   0.00000  Uiso   1.00
C919   C     0.80422   0.16613   0.83839   0.00000  Uiso   1.00
C920   C     0.86237   0.16657   0.66169   0.00000  Uiso   1.00
C921   C     0.78785   0.15505   0.88853   0.00000  Uiso   1.00
C922   C     0.87870   0.15837   0.61098   0.00000  Uiso   1.00
C923   C     0.72770   0.12360   0.95366   0.00000  Uiso   1.00
C924   C     0.94110   0.14396   0.53891   0.00000  Uiso   1.00
C925   C     0.73942   0.14831   0.91333   0.00000  Uiso   1.00
C926   C     0.92690   0.16127   0.58353   0.00000  Uiso   1.00
C927   C     0.82208   0.14297   0.90903   0.00000  Uiso   1.00
C928   C     0.84561   0.14239   0.59076   0.00000  Uiso   1.00
C929   C     0.80946   0.12120   0.95162   0.00000  Uiso   1.00
C930   C     0.85999   0.12445   0.54591   0.00000  Uiso   1.00
C931   C     0.76137   0.11347   0.97518   0.00000  Uiso   1.00
C932   C     0.90869   0.12558   0.51979   0.00000  Uiso   1.00
C933   C     0.84294   0.11118   0.97397   0.00000  Uiso   1.00
C934   C     0.82718   0.11043   0.52364   0.00000  Uiso   1.00
H935   H     0.71051   0.08954   0.53800   0.00000  Uiso   1.00
H936   H     0.96091   0.10581   0.95540   0.00000  Uiso   1.00
H937   H     0.80855   0.14618   0.60948   0.00000  Uiso   1.00
H938   H     0.85820   0.15310   0.89295   0.00000  Uiso   1.00
H939   H     0.69237   0.11292   0.96921   0.00000  Uiso   1.00
H940   H     0.97737   0.14764   0.51852   0.00000  Uiso   1.00
H941   H     0.89346   0.29568   0.77621   0.00000  Uiso   1.00
H942   H     0.77322   0.03770   0.72381   0.00000  Uiso   1.00
H943   H     0.89340   0.03777   0.77627   0.00000  Uiso   1.00
H944   H     0.77322   0.29561   0.72383   0.00000  Uiso   1.00
H945   H     0.96820   0.10674   0.71897   0.00000  Uiso   1.00
H946   H     0.69856   0.22668   0.78073   0.00000  Uiso   1.00
H947   H     0.71846   0.10683   0.71883   0.00000  Uiso   1.00
H948   H     0.94824   0.22653   0.78110   0.00000  Uiso   1.00
N949   N     0.71426   0.16668   0.75001   0.00000  Uiso   1.00
N950   N     0.95241   0.16666   0.74999   0.00000  Uiso   1.00
O951   O     0.79512   0.22775   0.75001   0.00000  Uiso   1.00
O952   O     0.87154   0.10558   0.75000   0.00000  Uiso   1.00
O953   O     0.87157   0.22774   0.75000   0.00000  Uiso   1.00
O954   O     0.79510   0.10559   0.75000   0.00000  Uiso   1.00
O955   O     0.77328   0.16667   0.81613   0.00000  Uiso   1.00
O956   O     0.89339   0.16666   0.68388   0.00000  Uiso   1.00
O957   O     0.84972   0.16666   0.81612   0.00000  Uiso   1.00
O958   O     0.81695   0.16667   0.68388   0.00000  Uiso   1.00
Zn959  Zn    0.78229   0.16667   0.75000   0.00000  Uiso   1.00
Zn960  Zn    0.88438   0.16666   0.75000   0.00000  Uiso   1.00
S961   S     0.97047   0.18850   0.60129   0.00000  Uiso   1.00
O962   O     0.99044   0.15960   0.62963   0.00000  Uiso   1.00
O963   O     0.67677   0.20280   0.55907   0.00000  Uiso   1.00
O964   O     0.94624   0.23046   0.63373   0.00000  Uiso   1.00
H965   H     0.96890   0.23831   0.65039   0.00000  Uiso   1.00
S966   S     0.69317   0.17450   0.89885   0.00000  Uiso   1.00
O967   O     0.67522   0.14713   0.86752   0.00000  Uiso   1.00
O968   O     0.98647   0.18442   0.94255   0.00000  Uiso   1.00
O969   O     0.71307   0.21980   0.87144   0.00000  Uiso   1.00
H970   H     0.68447   0.23391   0.86857   0.00000  Uiso   1.00
C971   C     0.76290   0.07695   0.59512   0.00000  Uiso   1.00
C972   C     0.79591   0.04182   0.59973   0.00000  Uiso   1.00
H973   H     0.80146   0.01924   0.57042   0.00000  Uiso   1.00
H974   H     0.83069   0.05428   0.59976   0.00000  Uiso   1.00
H975   H     0.77973   0.02509   0.63336   0.00000  Uiso   1.00
H976   H     0.75748   0.09957   0.62405   0.00000  Uiso   1.00
H977   H     0.72731   0.06272   0.60138   0.00000  Uiso   1.00
C978   C     0.90905   0.08256   0.90165   0.00000  Uiso   1.00
C979   C     0.88335   0.04146   0.90079   0.00000  Uiso   1.00
H980   H     0.88636   0.02054   0.92917   0.00000  Uiso   1.00
H981   H     0.84532   0.04702   0.90526   0.00000  Uiso   1.00
H982   H     0.89959   0.02570   0.86651   0.00000  Uiso   1.00
H983   H     0.90609   0.10287   0.87307   0.00000  Uiso   1.00
H984   H     0.94750   0.07528   0.89232   0.00000  Uiso   1.00
C985   C     0.16668   0.57996   0.75001   0.00000  Uiso   1.00
C986   C     0.16665   0.42005   0.75000   0.00000  Uiso   1.00
C987   C     0.11279   0.43073   0.54684   0.00000  Uiso   1.00
C988   C     0.22481   0.43672   0.94976   0.00000  Uiso   1.00
C989   C     0.08064   0.43136   0.52110   0.00000  Uiso   1.00
C990   C     0.25721   0.44360   0.97382   0.00000  Uiso   1.00
C991   C     0.20066   0.64534   0.76452   0.00000  Uiso   1.00
C992   C     0.13268   0.35469   0.73550   0.00000  Uiso   1.00
C993   C     0.20063   0.35473   0.76455   0.00000  Uiso   1.00
C994   C     0.13268   0.64531   0.73551   0.00000  Uiso   1.00
C995   C     0.16665   0.37588   0.75002   0.00000  Uiso   1.00
C996   C     0.16668   0.62415   0.75000   0.00000  Uiso   1.00
C997   C     0.31494   0.46673   0.73289   0.00000  Uiso   1.00
C998   C     0.01839   0.53327   0.76710   0.00000  Uiso   1.00
C999   C     0.02942   0.46678   0.73280   0.00000  Uiso   1.00
C1000  C     0.30392   0.53321   0.76720   0.00000  Uiso   1.00
C1001  C     0.13755   0.49946   0.83839   0.00000  Uiso   1.00
C1002  C     0.19570   0.49990   0.66169   0.00000  Uiso   1.00
C1003  C     0.12119   0.48838   0.88853   0.00000  Uiso   1.00
C1004  C     0.21203   0.49170   0.61098   0.00000  Uiso   1.00
C1005  C     0.06104   0.45693   0.95366   0.00000  Uiso   1.00
C1006  C     0.27444   0.47729   0.53891   0.00000  Uiso   1.00
C1007  C     0.07276   0.48164   0.91333   0.00000  Uiso   1.00
C1008  C     0.26024   0.49460   0.58353   0.00000  Uiso   1.00
C1009  C     0.15542   0.47630   0.90903   0.00000  Uiso   1.00
C1010  C     0.17894   0.47572   0.59076   0.00000  Uiso   1.00
C1011  C     0.14279   0.45454   0.95162   0.00000  Uiso   1.00
C1012  C     0.19333   0.45778   0.54591   0.00000  Uiso   1.00
C1013  C     0.09470   0.44681   0.97518   0.00000  Uiso   1.00
C1014  C     0.24202   0.45892   0.51979   0.00000  Uiso   1.00
C1015  C     0.17627   0.44452   0.97397   0.00000  Uiso   1.00
C1016  C     0.16052   0.44376   0.52364   0.00000  Uiso   1.00
H1017  H     0.04384   0.42288   0.53800   0.00000  Uiso   1.00
H1018  H     0.29424   0.43915   0.95540   0.00000  Uiso   1.00
H1019  H     0.14189   0.47951   0.60948   0.00000  Uiso   1.00
H1020  H     0.19154   0.48643   0.89295   0.00000  Uiso   1.00
H1021  H     0.02570   0.44626   0.96921   0.00000  Uiso   1.00
H1022  H     0.31071   0.48097   0.51852   0.00000  Uiso   1.00
H1023  H     0.22679   0.62901   0.77621   0.00000  Uiso   1.00
H1024  H     0.10655   0.37104   0.72381   0.00000  Uiso   1.00
H1025  H     0.22674   0.37111   0.77627   0.00000  Uiso   1.00
H1026  H     0.10655   0.62894   0.72383   0.00000  Uiso   1.00
H1027  H     0.30153   0.44008   0.71897   0.00000  Uiso   1.00
H1028  H     0.03189   0.56002   0.78073   0.00000  Uiso   1.00
H1029  H     0.05179   0.44016   0.71883   0.00000  Uiso   1.00
H1030  H     0.28158   0.55986   0.78110   0.00000  Uiso   1.00
N1031  N     0.04759   0.50001   0.75001   0.00000  Uiso   1.00
N1032  N     0.28574   0.49999   0.74999   0.00000  Uiso   1.00
O1033  O     0.12846   0.56108   0.75001   0.00000  Uiso   1.00
O1034  O     0.20488   0.43892   0.75000   0.00000  Uiso   1.00
O1035  O     0.20490   0.56107   0.75000   0.00000  Uiso   1.00
O1036  O     0.12843   0.43893   0.75000   0.00000  Uiso   1.00
O1037  O     0.10661   0.50001   0.81613   0.00000  Uiso   1.00
O1038  O     0.22672   0.49999   0.68388   0.00000  Uiso   1.00
O1039  O     0.18305   0.50000   0.81612   0.00000  Uiso   1.00
O1040  O     0.15028   0.50000   0.68388   0.00000  Uiso   1.00
Zn1041 Zn    0.11562   0.50001   0.75000   0.00000  Uiso   1.00
Zn1042 Zn    0.21771   0.49999   0.75000   0.00000  Uiso   1.00
S1043  S     0.30380   0.52183   0.60129   0.00000  Uiso   1.00
O1044  O     0.32377   0.49294   0.62963   0.00000  Uiso   1.00
O1045  O     0.01011   0.53613   0.55907   0.00000  Uiso   1.00
O1046  O     0.27957   0.56380   0.63373   0.00000  Uiso   1.00
H1047  H     0.30223   0.57164   0.65039   0.00000  Uiso   1.00
S1048  S     0.02651   0.50783   0.89885   0.00000  Uiso   1.00
O1049  O     0.00856   0.48047   0.86752   0.00000  Uiso   1.00
O1050  O     0.31980   0.51776   0.94255   0.00000  Uiso   1.00
O1051  O     0.04640   0.55314   0.87144   0.00000  Uiso   1.00
H1052  H     0.01781   0.56724   0.86857   0.00000  Uiso   1.00
C1053  C     0.09624   0.41028   0.59512   0.00000  Uiso   1.00
C1054  C     0.12924   0.37516   0.59973   0.00000  Uiso   1.00
H1055  H     0.13479   0.35257   0.57042   0.00000  Uiso   1.00
H1056  H     0.16403   0.38761   0.59976   0.00000  Uiso   1.00
H1057  H     0.11306   0.35842   0.63336   0.00000  Uiso   1.00
H1058  H     0.09081   0.43290   0.62405   0.00000  Uiso   1.00
H1059  H     0.06064   0.39605   0.60138   0.00000  Uiso   1.00
C1060  C     0.24238   0.41590   0.90165   0.00000  Uiso   1.00
C1061  C     0.21668   0.37479   0.90079   0.00000  Uiso   1.00
H1062  H     0.21969   0.35387   0.92917   0.00000  Uiso   1.00
H1063  H     0.17865   0.38035   0.90526   0.00000  Uiso   1.00
H1064  H     0.23292   0.35903   0.86651   0.00000  Uiso   1.00
H1065  H     0.23942   0.43621   0.87307   0.00000  Uiso   1.00
H1066  H     0.28083   0.40861   0.89232   0.00000  Uiso   1.00
C1067  C     0.50001   0.57996   0.75001   0.00000  Uiso   1.00
C1068  C     0.49999   0.42005   0.75000   0.00000  Uiso   1.00
C1069  C     0.44612   0.43073   0.54684   0.00000  Uiso   1.00
C1070  C     0.55814   0.43672   0.94976   0.00000  Uiso   1.00
C1071  C     0.41398   0.43136   0.52110   0.00000  Uiso   1.00
C1072  C     0.59055   0.44360   0.97382   0.00000  Uiso   1.00
C1073  C     0.53399   0.64534   0.76452   0.00000  Uiso   1.00
C1074  C     0.46601   0.35469   0.73550   0.00000  Uiso   1.00
C1075  C     0.53397   0.35473   0.76455   0.00000  Uiso   1.00
C1076  C     0.46602   0.64531   0.73551   0.00000  Uiso   1.00
C1077  C     0.49999   0.37588   0.75002   0.00000  Uiso   1.00
C1078  C     0.50002   0.62415   0.75000   0.00000  Uiso   1.00
C1079  C     0.64828   0.46673   0.73289   0.00000  Uiso   1.00
C1080  C     0.35173   0.53327   0.76710   0.00000  Uiso   1.00
C1081  C     0.36275   0.46678   0.73280   0.00000  Uiso   1.00
C1082  C     0.63725   0.53321   0.76720   0.00000  Uiso   1.00
C1083  C     0.47089   0.49946   0.83839   0.00000  Uiso   1.00
C1084  C     0.52903   0.49990   0.66169   0.00000  Uiso   1.00
C1085  C     0.45452   0.48838   0.88853   0.00000  Uiso   1.00
C1086  C     0.54536   0.49170   0.61098   0.00000  Uiso   1.00
C1087  C     0.39437   0.45693   0.95366   0.00000  Uiso   1.00
C1088  C     0.60777   0.47729   0.53891   0.00000  Uiso   1.00
C1089  C     0.40609   0.48164   0.91333   0.00000  Uiso   1.00
C1090  C     0.59357   0.49460   0.58353   0.00000  Uiso   1.00
C1091  C     0.48875   0.47630   0.90903   0.00000  Uiso   1.00
C1092  C     0.51227   0.47572   0.59076   0.00000  Uiso   1.00
C1093  C     0.47612   0.45454   0.95162   0.00000  Uiso   1.00
C1094  C     0.52666   0.45778   0.54591   0.00000  Uiso   1.00
C1095  C     0.42804   0.44681   0.97518   0.00000  Uiso   1.00
C1096  C     0.57536   0.45892   0.51979   0.00000  Uiso   1.00
C1097  C     0.50960   0.44452   0.97397   0.00000  Uiso   1.00
C1098  C     0.49385   0.44376   0.52364   0.00000  Uiso   1.00
H1099  H     0.37718   0.42288   0.53800   0.00000  Uiso   1.00
H1100  H     0.62757   0.43915   0.95540   0.00000  Uiso   1.00
H1101  H     0.47522   0.47951   0.60948   0.00000  Uiso   1.00
H1102  H     0.52487   0.48643   0.89295   0.00000  Uiso   1.00
H1103  H     0.35904   0.44626   0.96921   0.00000  Uiso   1.00
H1104  H     0.64404   0.48097   0.51852   0.00000  Uiso   1.00
H1105  H     0.56012   0.62901   0.77621   0.00000  Uiso   1.00
H1106  H     0.43988   0.37104   0.72381   0.00000  Uiso   1.00
H1107  H     0.56007   0.37111   0.77627   0.00000  Uiso   1.00
H1108  H     0.43988   0.62894   0.72383   0.00000  Uiso   1.00
H1109  H     0.63486   0.44008   0.71897   0.00000  Uiso   1.00
H1110  H     0.36523   0.56002   0.78073   0.00000  Uiso   1.00
H1111  H     0.38512   0.44016   0.71883   0.00000  Uiso   1.00
H1112  H     0.61491   0.55986   0.78110   0.00000  Uiso   1.00
N1113  N     0.38093   0.50001   0.75001   0.00000  Uiso   1.00
N1114  N     0.61907   0.49999   0.74999   0.00000  Uiso   1.00
O1115  O     0.46179   0.56108   0.75001   0.00000  Uiso   1.00
O1116  O     0.53821   0.43892   0.75000   0.00000  Uiso   1.00
O1117  O     0.53823   0.56107   0.75000   0.00000  Uiso   1.00
O1118  O     0.46177   0.43893   0.75000   0.00000  Uiso   1.00
O1119  O     0.43994   0.50001   0.81613   0.00000  Uiso   1.00
O1120  O     0.56006   0.49999   0.68388   0.00000  Uiso   1.00
O1121  O     0.51639   0.50000   0.81612   0.00000  Uiso   1.00
O1122  O     0.48361   0.50000   0.68388   0.00000  Uiso   1.00
Zn1123 Zn    0.44896   0.50001   0.75000   0.00000  Uiso   1.00
Zn1124 Zn    0.55104   0.49999   0.75000   0.00000  Uiso   1.00
S1125  S     0.63713   0.52183   0.60129   0.00000  Uiso   1.00
O1126  O     0.65711   0.49294   0.62963   0.00000  Uiso   1.00
O1127  O     0.34344   0.53613   0.55907   0.00000  Uiso   1.00
O1128  O     0.61290   0.56380   0.63373   0.00000  Uiso   1.00
H1129  H     0.63557   0.57164   0.65039   0.00000  Uiso   1.00
S1130  S     0.35984   0.50783   0.89885   0.00000  Uiso   1.00
O1131  O     0.34189   0.48047   0.86752   0.00000  Uiso   1.00
O1132  O     0.65313   0.51776   0.94255   0.00000  Uiso   1.00
O1133  O     0.37973   0.55314   0.87144   0.00000  Uiso   1.00
H1134  H     0.35114   0.56724   0.86857   0.00000  Uiso   1.00
C1135  C     0.42957   0.41028   0.59512   0.00000  Uiso   1.00
C1136  C     0.46257   0.37516   0.59973   0.00000  Uiso   1.00
H1137  H     0.46813   0.35257   0.57042   0.00000  Uiso   1.00
H1138  H     0.49736   0.38761   0.59976   0.00000  Uiso   1.00
H1139  H     0.44640   0.35842   0.63336   0.00000  Uiso   1.00
H1140  H     0.42415   0.43290   0.62405   0.00000  Uiso   1.00
H1141  H     0.39397   0.39605   0.60138   0.00000  Uiso   1.00
C1142  C     0.57571   0.41590   0.90165   0.00000  Uiso   1.00
C1143  C     0.55002   0.37479   0.90079   0.00000  Uiso   1.00
H1144  H     0.55302   0.35387   0.92917   0.00000  Uiso   1.00
H1145  H     0.51198   0.38035   0.90526   0.00000  Uiso   1.00
H1146  H     0.56626   0.35903   0.86651   0.00000  Uiso   1.00
H1147  H     0.57275   0.43621   0.87307   0.00000  Uiso   1.00
H1148  H     0.61416   0.40861   0.89232   0.00000  Uiso   1.00
C1149  C     0.83335   0.57996   0.75001   0.00000  Uiso   1.00
C1150  C     0.83332   0.42005   0.75000   0.00000  Uiso   1.00
C1151  C     0.77946   0.43073   0.54684   0.00000  Uiso   1.00
C1152  C     0.89147   0.43672   0.94976   0.00000  Uiso   1.00
C1153  C     0.74731   0.43136   0.52110   0.00000  Uiso   1.00
C1154  C     0.92388   0.44360   0.97382   0.00000  Uiso   1.00
C1155  C     0.86733   0.64534   0.76452   0.00000  Uiso   1.00
C1156  C     0.79935   0.35469   0.73550   0.00000  Uiso   1.00
C1157  C     0.86730   0.35473   0.76455   0.00000  Uiso   1.00
C1158  C     0.79935   0.64531   0.73551   0.00000  Uiso   1.00
C1159  C     0.83332   0.37588   0.75002   0.00000  Uiso   1.00
C1160  C     0.83335   0.62415   0.75000   0.00000  Uiso   1.00
C1161  C     0.98161   0.46673   0.73289   0.00000  Uiso   1.00
C1162  C     0.68506   0.53327   0.76710   0.00000  Uiso   1.00
C1163  C     0.69609   0.46678   0.73280   0.00000  Uiso   1.00
C1164  C     0.97059   0.53321   0.76720   0.00000  Uiso   1.00
C1165  C     0.80422   0.49946   0.83839   0.00000  Uiso   1.00
C1166  C     0.86237   0.49990   0.66169   0.00000  Uiso   1.00
C1167  C     0.78785   0.48838   0.88853   0.00000  Uiso   1.00
C1168  C     0.87870   0.49170   0.61098   0.00000  Uiso   1.00
C1169  C     0.72770   0.45693   0.95366   0.00000  Uiso   1.00
C1170  C     0.94110   0.47729   0.53891   0.00000  Uiso   1.00
C1171  C     0.73942   0.48164   0.91333   0.00000  Uiso   1.00
C1172  C     0.92690   0.49460   0.58353   0.00000  Uiso   1.00
C1173  C     0.82208   0.47630   0.90903   0.00000  Uiso   1.00
C1174  C     0.84561   0.47572   0.59076   0.00000  Uiso   1.00
C1175  C     0.80946   0.45454   0.95162   0.00000  Uiso   1.00
C1176  C     0.85999   0.45778   0.54591   0.00000  Uiso   1.00
C1177  C     0.76137   0.44681   0.97518   0.00000  Uiso   1.00
C1178  C     0.90869   0.45892   0.51979   0.00000  Uiso   1.00
C1179  C     0.84294   0.44452   0.97397   0.00000  Uiso   1.00
C1180  C     0.82718   0.44376   0.52364   0.00000  Uiso   1.00
H1181  H     0.71051   0.42288   0.53800   0.00000  Uiso   1.00
H1182  H     0.96091   0.43915   0.95540   0.00000  Uiso   1.00
H1183  H     0.80855   0.47951   0.60948   0.00000  Uiso   1.00
H1184  H     0.85820   0.48643   0.89295   0.00000  Uiso   1.00
H1185  H     0.69237   0.44626   0.96921   0.00000  Uiso   1.00
H1186  H     0.97737   0.48097   0.51852   0.00000  Uiso   1.00
H1187  H     0.89346   0.62901   0.77621   0.00000  Uiso   1.00
H1188  H     0.77322   0.37104   0.72381   0.00000  Uiso   1.00
H1189  H     0.89340   0.37111   0.77627   0.00000  Uiso   1.00
H1190  H     0.77322   0.62894   0.72383   0.00000  Uiso   1.00
H1191  H     0.96820   0.44008   0.71897   0.00000  Uiso   1.00
H1192  H     0.69856   0.56002   0.78073   0.00000  Uiso   1.00
H1193  H     0.71846   0.44016   0.71883   0.00000  Uiso   1.00
H1194  H     0.94824   0.55986   0.78110   0.00000  Uiso   1.00
N1195  N     0.71426   0.50001   0.75001   0.00000  Uiso   1.00
N1196  N     0.95241   0.49999   0.74999   0.00000  Uiso   1.00
O1197  O     0.79512   0.56108   0.75001   0.00000  Uiso   1.00
O1198  O     0.87154   0.43892   0.75000   0.00000  Uiso   1.00
O1199  O     0.87157   0.56107   0.75000   0.00000  Uiso   1.00
O1200  O     0.79510   0.43893   0.75000   0.00000  Uiso   1.00
O1201  O     0.77328   0.50001   0.81613   0.00000  Uiso   1.00
O1202  O     0.89339   0.49999   0.68388   0.00000  Uiso   1.00
O1203  O     0.84972   0.50000   0.81612   0.00000  Uiso   1.00
O1204  O     0.81695   0.50000   0.68388   0.00000  Uiso   1.00
Zn1205 Zn    0.78229   0.50001   0.75000   0.00000  Uiso   1.00
Zn1206 Zn    0.88438   0.49999   0.75000   0.00000  Uiso   1.00
S1207  S     0.97047   0.52183   0.60129   0.00000  Uiso   1.00
O1208  O     0.99044   0.49294   0.62963   0.00000  Uiso   1.00
O1209  O     0.67677   0.53613   0.55907   0.00000  Uiso   1.00
O1210  O     0.94624   0.56380   0.63373   0.00000  Uiso   1.00
H1211  H     0.96890   0.57164   0.65039   0.00000  Uiso   1.00
S1212  S     0.69317   0.50783   0.89885   0.00000  Uiso   1.00
O1213  O     0.67522   0.48047   0.86752   0.00000  Uiso   1.00
O1214  O     0.98647   0.51776   0.94255   0.00000  Uiso   1.00
O1215  O     0.71307   0.55314   0.87144   0.00000  Uiso   1.00
H1216  H     0.68447   0.56724   0.86857   0.00000  Uiso   1.00
C1217  C     0.76290   0.41028   0.59512   0.00000  Uiso   1.00
C1218  C     0.79591   0.37516   0.59973   0.00000  Uiso   1.00
H1219  H     0.80146   0.35257   0.57042   0.00000  Uiso   1.00
H1220  H     0.83069   0.38761   0.59976   0.00000  Uiso   1.00
H1221  H     0.77973   0.35842   0.63336   0.00000  Uiso   1.00
H1222  H     0.75748   0.43290   0.62405   0.00000  Uiso   1.00
H1223  H     0.72731   0.39605   0.60138   0.00000  Uiso   1.00
C1224  C     0.90905   0.41590   0.90165   0.00000  Uiso   1.00
C1225  C     0.88335   0.37479   0.90079   0.00000  Uiso   1.00
H1226  H     0.88636   0.35387   0.92917   0.00000  Uiso   1.00
H1227  H     0.84532   0.38035   0.90526   0.00000  Uiso   1.00
H1228  H     0.89959   0.35903   0.86651   0.00000  Uiso   1.00
H1229  H     0.90609   0.43621   0.87307   0.00000  Uiso   1.00
H1230  H     0.94750   0.40861   0.89232   0.00000  Uiso   1.00
C1231  C     0.16668   0.91330   0.75001   0.00000  Uiso   1.00
C1232  C     0.16665   0.75338   0.75000   0.00000  Uiso   1.00
C1233  C     0.11279   0.76407   0.54684   0.00000  Uiso   1.00
C1234  C     0.22481   0.77005   0.94976   0.00000  Uiso   1.00
C1235  C     0.08064   0.76470   0.52110   0.00000  Uiso   1.00
C1236  C     0.25721   0.77693   0.97382   0.00000  Uiso   1.00
C1237  C     0.20066   0.97868   0.76452   0.00000  Uiso   1.00
C1238  C     0.13268   0.68803   0.73550   0.00000  Uiso   1.00
C1239  C     0.20063   0.68806   0.76455   0.00000  Uiso   1.00
C1240  C     0.13268   0.97864   0.73551   0.00000  Uiso   1.00
C1241  C     0.16665   0.70921   0.75002   0.00000  Uiso   1.00
C1242  C     0.16668   0.95748   0.75000   0.00000  Uiso   1.00
C1243  C     0.31494   0.80006   0.73289   0.00000  Uiso   1.00
C1244  C     0.01839   0.86660   0.76710   0.00000  Uiso   1.00
C1245  C     0.02942   0.80011   0.73280   0.00000  Uiso   1.00
C1246  C     0.30392   0.86655   0.76720   0.00000  Uiso   1.00
C1247  C     0.13755   0.83280   0.83839   0.00000  Uiso   1.00
C1248  C     0.19570   0.83324   0.66169   0.00000  Uiso   1.00
C1249  C     0.12119   0.82172   0.88853   0.00000  Uiso   1.00
C1250  C     0.21203   0.82504   0.61098   0.00000  Uiso   1.00
C1251  C     0.06104   0.79026   0.95366   0.00000  Uiso   1.00
C1252  C     0.27444   0.81063   0.53891   0.00000  Uiso   1.00
C1253  C     0.07276   0.81498   0.91333   0.00000  Uiso   1.00
C1254  C     0.26024   0.82793   0.58353   0.00000  Uiso   1.00
C1255  C     0.15542   0.80964   0.90903   0.00000  Uiso   1.00
C1256  C     0.17894   0.80905   0.59076   0.00000  Uiso   1.00
C1257  C     0.14279   0.78787   0.95162   0.00000  Uiso   1.00
C1258  C     0.19333   0.79112   0.54591   0.00000  Uiso   1.00
C1259  C     0.09470   0.78014   0.97518   0.00000  Uiso   1.00
C1260  C     0.24202   0.79225   0.51979   0.00000  Uiso   1.00
C1261  C     0.17627   0.77785   0.97397   0.00000  Uiso   1.00
C1262  C     0.16052   0.77710   0.52364   0.00000  Uiso   1.00
H1263  H     0.04384   0.75621   0.53800   0.00000  Uiso   1.00
H1264  H     0.29424   0.77248   0.95540   0.00000  Uiso   1.00
H1265  H     0.14189   0.81284   0.60948   0.00000  Uiso   1.00
H1266  H     0.19154   0.81976   0.89295   0.00000  Uiso   1.00
H1267  H     0.02570   0.77959   0.96921   0.00000  Uiso   1.00
H1268  H     0.31071   0.81430   0.51852   0.00000  Uiso   1.00
H1269  H     0.22679   0.96234   0.77621   0.00000  Uiso   1.00
H1270  H     0.10655   0.70437   0.72381   0.00000  Uiso   1.00
H1271  H     0.22674   0.70444   0.77627   0.00000  Uiso   1.00
H1272  H     0.10655   0.96228   0.72383   0.00000  Uiso   1.00
H1273  H     0.30153   0.77341   0.71897   0.00000  Uiso   1.00
H1274  H     0.03189   0.89335   0.78073   0.00000  Uiso   1.00
H1275  H     0.05179   0.77349   0.71883   0.00000  Uiso   1.00
H1276  H     0.28158   0.89319   0.78110   0.00000  Uiso   1.00
N1277  N     0.04759   0.83334   0.75001   0.00000  Uiso   1.00
N1278  N     0.28574   0.83332   0.74999   0.00000  Uiso   1.00
O1279  O     0.12846   0.89442   0.75001   0.00000  Uiso   1.00
O1280  O     0.20488   0.77225   0.75000   0.00000  Uiso   1.00
O1281  O     0.20490   0.89441   0.75000   0.00000  Uiso   1.00
O1282  O     0.12843   0.77226   0.75000   0.00000  Uiso   1.00
O1283  O     0.10661   0.83334   0.81613   0.00000  Uiso   1.00
O1284  O     0.22672   0.83333   0.68388   0.00000  Uiso   1.00
O1285  O     0.18305   0.83333   0.81612   0.00000  Uiso   1.00
O1286  O     0.15028   0.83334   0.68388   0.00000  Uiso   1.00
Zn1287 Zn    0.11562   0.83334   0.75000   0.00000  Uiso   1.00
Zn1288 Zn    0.21771   0.83333   0.75000   0.00000  Uiso   1.00
S1289  S     0.30380   0.85517   0.60129   0.00000  Uiso   1.00
O1290  O     0.32377   0.82627   0.62963   0.00000  Uiso   1.00
O1291  O     0.01011   0.86946   0.55907   0.00000  Uiso   1.00
O1292  O     0.27957   0.89713   0.63373   0.00000  Uiso   1.00
H1293  H     0.30223   0.90498   0.65039   0.00000  Uiso   1.00
S1294  S     0.02651   0.84117   0.89885   0.00000  Uiso   1.00
O1295  O     0.00856   0.81380   0.86752   0.00000  Uiso   1.00
O1296  O     0.31980   0.85109   0.94255   0.00000  Uiso   1.00
O1297  O     0.04640   0.88647   0.87144   0.00000  Uiso   1.00
H1298  H     0.01781   0.90057   0.86857   0.00000  Uiso   1.00
C1299  C     0.09624   0.74361   0.59512   0.00000  Uiso   1.00
C1300  C     0.12924   0.70849   0.59973   0.00000  Uiso   1.00
H1301  H     0.13479   0.68591   0.57042   0.00000  Uiso   1.00
H1302  H     0.16403   0.72094   0.59976   0.00000  Uiso   1.00
H1303  H     0.11306   0.69176   0.63336   0.00000  Uiso   1.00
H1304  H     0.09081   0.76624   0.62405   0.00000  Uiso   1.00
H1305  H     0.06064   0.72939   0.60138   0.00000  Uiso   1.00
C1306  C     0.24238   0.74923   0.90165   0.00000  Uiso   1.00
C1307  C     0.21668   0.70812   0.90079   0.00000  Uiso   1.00
H1308  H     0.21969   0.68721   0.92917   0.00000  Uiso   1.00
H1309  H     0.17865   0.71368   0.90526   0.00000  Uiso   1.00
H1310  H     0.23292   0.69237   0.86651   0.00000  Uiso   1.00
H1311  H     0.23942   0.76954   0.87307   0.00000  Uiso   1.00
H1312  H     0.28083   0.74194   0.89232   0.00000  Uiso   1.00
C1313  C     0.50001   0.91330   0.75001   0.00000  Uiso   1.00
C1314  C     0.49999   0.75338   0.75000   0.00000  Uiso   1.00
C1315  C     0.44612   0.76407   0.54684   0.00000  Uiso   1.00
C1316  C     0.55814   0.77005   0.94976   0.00000  Uiso   1.00
C1317  C     0.41398   0.76470   0.52110   0.00000  Uiso   1.00
C1318  C     0.59055   0.77693   0.97382   0.00000  Uiso   1.00
C1319  C     0.53399   0.97868   0.76452   0.00000  Uiso   1.00
C1320  C     0.46601   0.68803   0.73550   0.00000  Uiso   1.00
C1321  C     0.53397   0.68806   0.76455   0.00000  Uiso   1.00
C1322  C     0.46602   0.97864   0.73551   0.00000  Uiso   1.00
C1323  C     0.49999   0.70921   0.75002   0.00000  Uiso   1.00
C1324  C     0.50002   0.95748   0.75000   0.00000  Uiso   1.00
C1325  C     0.64828   0.80006   0.73289   0.00000  Uiso   1.00
C1326  C     0.35173   0.86660   0.76710   0.00000  Uiso   1.00
C1327  C     0.36275   0.80011   0.73280   0.00000  Uiso   1.00
C1328  C     0.63725   0.86655   0.76720   0.00000  Uiso   1.00
C1329  C     0.47089   0.83280   0.83839   0.00000  Uiso   1.00
C1330  C     0.52903   0.83324   0.66169   0.00000  Uiso   1.00
C1331  C     0.45452   0.82172   0.88853   0.00000  Uiso   1.00
C1332  C     0.54536   0.82504   0.61098   0.00000  Uiso   1.00
C1333  C     0.39437   0.79026   0.95366   0.00000  Uiso   1.00
C1334  C     0.60777   0.81063   0.53891   0.00000  Uiso   1.00
C1335  C     0.40609   0.81498   0.91333   0.00000  Uiso   1.00
C1336  C     0.59357   0.82793   0.58353   0.00000  Uiso   1.00
C1337  C     0.48875   0.80964   0.90903   0.00000  Uiso   1.00
C1338  C     0.51227   0.80905   0.59076   0.00000  Uiso   1.00
C1339  C     0.47612   0.78787   0.95162   0.00000  Uiso   1.00
C1340  C     0.52666   0.79112   0.54591   0.00000  Uiso   1.00
C1341  C     0.42804   0.78014   0.97518   0.00000  Uiso   1.00
C1342  C     0.57536   0.79225   0.51979   0.00000  Uiso   1.00
C1343  C     0.50960   0.77785   0.97397   0.00000  Uiso   1.00
C1344  C     0.49385   0.77710   0.52364   0.00000  Uiso   1.00
H1345  H     0.37718   0.75621   0.53800   0.00000  Uiso   1.00
H1346  H     0.62757   0.77248   0.95540   0.00000  Uiso   1.00
H1347  H     0.47522   0.81284   0.60948   0.00000  Uiso   1.00
H1348  H     0.52487   0.81976   0.89295   0.00000  Uiso   1.00
H1349  H     0.35904   0.77959   0.96921   0.00000  Uiso   1.00
H1350  H     0.64404   0.81430   0.51852   0.00000  Uiso   1.00
H1351  H     0.56012   0.96234   0.77621   0.00000  Uiso   1.00
H1352  H     0.43988   0.70437   0.72381   0.00000  Uiso   1.00
H1353  H     0.56007   0.70444   0.77627   0.00000  Uiso   1.00
H1354  H     0.43988   0.96228   0.72383   0.00000  Uiso   1.00
H1355  H     0.63486   0.77341   0.71897   0.00000  Uiso   1.00
H1356  H     0.36523   0.89335   0.78073   0.00000  Uiso   1.00
H1357  H     0.38512   0.77349   0.71883   0.00000  Uiso   1.00
H1358  H     0.61491   0.89319   0.78110   0.00000  Uiso   1.00
N1359  N     0.38093   0.83334   0.75001   0.00000  Uiso   1.00
N1360  N     0.61907   0.83332   0.74999   0.00000  Uiso   1.00
O1361  O     0.46179   0.89442   0.75001   0.00000  Uiso   1.00
O1362  O     0.53821   0.77225   0.75000   0.00000  Uiso   1.00
O1363  O     0.53823   0.89441   0.75000   0.00000  Uiso   1.00
O1364  O     0.46177   0.77226   0.75000   0.00000  Uiso   1.00
O1365  O     0.43994   0.83334   0.81613   0.00000  Uiso   1.00
O1366  O     0.56006   0.83333   0.68388   0.00000  Uiso   1.00
O1367  O     0.51639   0.83333   0.81612   0.00000  Uiso   1.00
O1368  O     0.48361   0.83334   0.68388   0.00000  Uiso   1.00
Zn1369 Zn    0.44896   0.83334   0.75000   0.00000  Uiso   1.00
Zn1370 Zn    0.55104   0.83333   0.75000   0.00000  Uiso   1.00
S1371  S     0.63713   0.85517   0.60129   0.00000  Uiso   1.00
O1372  O     0.65711   0.82627   0.62963   0.00000  Uiso   1.00
O1373  O     0.34344   0.86946   0.55907   0.00000  Uiso   1.00
O1374  O     0.61290   0.89713   0.63373   0.00000  Uiso   1.00
H1375  H     0.63557   0.90498   0.65039   0.00000  Uiso   1.00
S1376  S     0.35984   0.84117   0.89885   0.00000  Uiso   1.00
O1377  O     0.34189   0.81380   0.86752   0.00000  Uiso   1.00
O1378  O     0.65313   0.85109   0.94255   0.00000  Uiso   1.00
O1379  O     0.37973   0.88647   0.87144   0.00000  Uiso   1.00
H1380  H     0.35114   0.90057   0.86857   0.00000  Uiso   1.00
C1381  C     0.42957   0.74361   0.59512   0.00000  Uiso   1.00
C1382  C     0.46257   0.70849   0.59973   0.00000  Uiso   1.00
H1383  H     0.46813   0.68591   0.57042   0.00000  Uiso   1.00
H1384  H     0.49736   0.72094   0.59976   0.00000  Uiso   1.00
H1385  H     0.44640   0.69176   0.63336   0.00000  Uiso   1.00
H1386  H     0.42415   0.76624   0.62405   0.00000  Uiso   1.00
H1387  H     0.39397   0.72939   0.60138   0.00000  Uiso   1.00
C1388  C     0.57571   0.74923   0.90165   0.00000  Uiso   1.00
C1389  C     0.55002   0.70812   0.90079   0.00000  Uiso   1.00
H1390  H     0.55302   0.68721   0.92917   0.00000  Uiso   1.00
H1391  H     0.51198   0.71368   0.90526   0.00000  Uiso   1.00
H1392  H     0.56626   0.69237   0.86651   0.00000  Uiso   1.00
H1393  H     0.57275   0.76954   0.87307   0.00000  Uiso   1.00
H1394  H     0.61416   0.74194   0.89232   0.00000  Uiso   1.00
C1395  C     0.83335   0.91330   0.75001   0.00000  Uiso   1.00
C1396  C     0.83332   0.75338   0.75000   0.00000  Uiso   1.00
C1397  C     0.77946   0.76407   0.54684   0.00000  Uiso   1.00
C1398  C     0.89147   0.77005   0.94976   0.00000  Uiso   1.00
C1399  C     0.74731   0.76470   0.52110   0.00000  Uiso   1.00
C1400  C     0.92388   0.77693   0.97382   0.00000  Uiso   1.00
C1401  C     0.86733   0.97868   0.76452   0.00000  Uiso   1.00
C1402  C     0.79935   0.68803   0.73550   0.00000  Uiso   1.00
C1403  C     0.86730   0.68806   0.76455   0.00000  Uiso   1.00
C1404  C     0.79935   0.97864   0.73551   0.00000  Uiso   1.00
C1405  C     0.83332   0.70921   0.75002   0.00000  Uiso   1.00
C1406  C     0.83335   0.95748   0.75000   0.00000  Uiso   1.00
C1407  C     0.98161   0.80006   0.73289   0.00000  Uiso   1.00
C1408  C     0.68506   0.86660   0.76710   0.00000  Uiso   1.00
C1409  C     0.69609   0.80011   0.73280   0.00000  Uiso   1.00
C1410  C     0.97059   0.86655   0.76720   0.00000  Uiso   1.00
C1411  C     0.80422   0.83280   0.83839   0.00000  Uiso   1.00
C1412  C     0.86237   0.83324   0.66169   0.00000  Uiso   1.00
C1413  C     0.78785   0.82172   0.88853   0.00000  Uiso   1.00
C1414  C     0.87870   0.82504   0.61098   0.00000  Uiso   1.00
C1415  C     0.72770   0.79026   0.95366   0.00000  Uiso   1.00
C1416  C     0.94110   0.81063   0.53891   0.00000  Uiso   1.00
C1417  C     0.73942   0.81498   0.91333   0.00000  Uiso   1.00
C1418  C     0.92690   0.82793   0.58353   0.00000  Uiso   1.00
C1419  C     0.82208   0.80964   0.90903   0.00000  Uiso   1.00
C1420  C     0.84561   0.80905   0.59076   0.00000  Uiso   1.00
C1421  C     0.80946   0.78787   0.95162   0.00000  Uiso   1.00
C1422  C     0.85999   0.79112   0.54591   0.00000  Uiso   1.00
C1423  C     0.76137   0.78014   0.97518   0.00000  Uiso   1.00
C1424  C     0.90869   0.79225   0.51979   0.00000  Uiso   1.00
C1425  C     0.84294   0.77785   0.97397   0.00000  Uiso   1.00
C1426  C     0.82718   0.77710   0.52364   0.00000  Uiso   1.00
H1427  H     0.71051   0.75621   0.53800   0.00000  Uiso   1.00
H1428  H     0.96091   0.77248   0.95540   0.00000  Uiso   1.00
H1429  H     0.80855   0.81284   0.60948   0.00000  Uiso   1.00
H1430  H     0.85820   0.81976   0.89295   0.00000  Uiso   1.00
H1431  H     0.69237   0.77959   0.96921   0.00000  Uiso   1.00
H1432  H     0.97737   0.81430   0.51852   0.00000  Uiso   1.00
H1433  H     0.89346   0.96234   0.77621   0.00000  Uiso   1.00
H1434  H     0.77322   0.70437   0.72381   0.00000  Uiso   1.00
H1435  H     0.89340   0.70444   0.77627   0.00000  Uiso   1.00
H1436  H     0.77322   0.96228   0.72383   0.00000  Uiso   1.00
H1437  H     0.96820   0.77341   0.71897   0.00000  Uiso   1.00
H1438  H     0.69856   0.89335   0.78073   0.00000  Uiso   1.00
H1439  H     0.71846   0.77349   0.71883   0.00000  Uiso   1.00
H1440  H     0.94824   0.89319   0.78110   0.00000  Uiso   1.00
N1441  N     0.71426   0.83334   0.75001   0.00000  Uiso   1.00
N1442  N     0.95241   0.83332   0.74999   0.00000  Uiso   1.00
O1443  O     0.79512   0.89442   0.75001   0.00000  Uiso   1.00
O1444  O     0.87154   0.77225   0.75000   0.00000  Uiso   1.00
O1445  O     0.87157   0.89441   0.75000   0.00000  Uiso   1.00
O1446  O     0.79510   0.77226   0.75000   0.00000  Uiso   1.00
O1447  O     0.77328   0.83334   0.81613   0.00000  Uiso   1.00
O1448  O     0.89339   0.83333   0.68388   0.00000  Uiso   1.00
O1449  O     0.84972   0.83333   0.81612   0.00000  Uiso   1.00
O1450  O     0.81695   0.83334   0.68388   0.00000  Uiso   1.00
Zn1451 Zn    0.78229   0.83334   0.75000   0.00000  Uiso   1.00
Zn1452 Zn    0.88438   0.83333   0.75000   0.00000  Uiso   1.00
S1453  S     0.97047   0.85517   0.60129   0.00000  Uiso   1.00
O1454  O     0.99044   0.82627   0.62963   0.00000  Uiso   1.00
O1455  O     0.67677   0.86946   0.55907   0.00000  Uiso   1.00
O1456  O     0.94624   0.89713   0.63373   0.00000  Uiso   1.00
H1457  H     0.96890   0.90498   0.65039   0.00000  Uiso   1.00
S1458  S     0.69317   0.84117   0.89885   0.00000  Uiso   1.00
O1459  O     0.67522   0.81380   0.86752   0.00000  Uiso   1.00
O1460  O     0.98647   0.85109   0.94255   0.00000  Uiso   1.00
O1461  O     0.71307   0.88647   0.87144   0.00000  Uiso   1.00
H1462  H     0.68447   0.90057   0.86857   0.00000  Uiso   1.00
C1463  C     0.76290   0.74361   0.59512   0.00000  Uiso   1.00
C1464  C     0.79591   0.70849   0.59973   0.00000  Uiso   1.00
H1465  H     0.80146   0.68591   0.57042   0.00000  Uiso   1.00
H1466  H     0.83069   0.72094   0.59976   0.00000  Uiso   1.00
H1467  H     0.77973   0.69176   0.63336   0.00000  Uiso   1.00
H1468  H     0.75748   0.76624   0.62405   0.00000  Uiso   1.00
H1469  H     0.72731   0.72939   0.60138   0.00000  Uiso   1.00
C1470  C     0.90905   0.74923   0.90165   0.00000  Uiso   1.00
C1471  C     0.88335   0.70812   0.90079   0.00000  Uiso   1.00
H1472  H     0.88636   0.68721   0.92917   0.00000  Uiso   1.00
H1473  H     0.84532   0.71368   0.90526   0.00000  Uiso   1.00
H1474  H     0.89959   0.69237   0.86651   0.00000  Uiso   1.00
H1475  H     0.90609   0.76954   0.87307   0.00000  Uiso   1.00
H1476  H     0.94750   0.74194   0.89232   0.00000  Uiso   1.00
loop_
_geom_bond_atom_site_label_1
_geom_bond_atom_site_label_2
_geom_bond_distance
_geom_bond_site_symmetry_2
_ccdc_geom_bond_type
C1     C12     1.417   .     S
C1     O51     1.287   .     A
C1     O49     1.287   .     A
C2     O50     1.287   .     A
C2     C11     1.417   .     S
C2     O52     1.287   .     A
C3     C69     1.525   .     S
C3     C32     1.431   .     A
C3     C5      1.407   .     A
C4     C6      1.393   .     A
C4     C76     1.526   .     S
C4     C31     1.417   .     A
C5     H33     1.085   .     S
C5     C767    1.400   1_554 S
C6     H34     1.073   .     S
C6     C768    1.399   .     S
C7     C12     1.397   .     A
C7     H39     1.084   .     S
C7     C255    1.370   .     S
C8     C11     1.397   .     A
C8     H40     1.084   .     S
C8     C502    1.370   1_545 S
C9     C11     1.397   .     A
C9     H41     1.084   .     S
C9     C499    1.370   1_545 S
C10    H42     1.084   .     S
C10    C12     1.397   .     A
C10    C254    1.370   .     S
C13    H43     1.082   .     S
C13    N48     1.368   .     A
C13    C97     1.420   .     S
C14    H44     1.081   .     S
C14    N47     1.368   .     A
C14    C180    1.420   1_455 S
C15    N47     1.368   .     A
C15    H45     1.081   .     S
C15    C177    1.420   1_455 S
C16    N48     1.368   .     A
C16    H46     1.081   .     S
C16    C96     1.420   .     S
C17    O55     1.305   .     A
C17    O53     1.298   .     A
C17    C19     1.473   .     S
C18    O56     1.303   .     A
C18    C20     1.468   .     S
C18    O54     1.298   .     A
C19    C23     1.412   .     A
C19    C25     1.401   .     A
C20    C24     1.412   .     A
C20    C26     1.406   .     A
C21    C29     1.391   .     A
C21    C23     1.397   .     A
C21    H37     1.062   .     S
C22    H38     1.064   .     S
C22    C24     1.387   .     A
C22    C30     1.399   .     A
C23    S64     1.779   .     S
C24    S59     1.778   .     S
C25    C27     1.401   .     A
C25    H36     1.079   .     S
C26    C28     1.401   .     A
C26    H35     1.073   .     S
C27    C29     1.402   .     A
C27    C31     1.403   .     A
C28    C32     1.419   .     A
C28    C30     1.412   .     A
C29    C743    1.400   .     S
C30    C744    1.399   1_554 S
C31    C770    1.416   .     S
C32    C769    1.416   1_554 S
N47    Zn57    2.022   .     S
N48    Zn58    2.022   .     S
O49    Zn57    1.996   .     S
O50    Zn58    1.996   .     S
O51    Zn58    1.996   .     S
O52    Zn57    1.996   .     S
O53    Zn57    1.919   .     S
O54    Zn58    1.919   .     S
O55    Zn58    1.926   .     S
O56    Zn57    1.926   .     S
S59    O60     1.503   .     D
S59    O62     1.683   .     S
S59    O143    1.504   .     S
O61    S223    1.504   1_455 S
O62    H63     0.991   .     S
S64    O67     1.683   .     S
S64    O65     1.503   .     D
S64    O230    1.500   1_455 S
O66    S146    1.500   .     S
O67    H68     0.991   .     S
C69    H74     1.104   .     S
C69    H75     1.112   .     S
C69    C70     1.529   .     S
C70    H71     1.111   .     S
C70    H73     1.111   .     S
C70    H72     1.109   .     S
C76    C77     1.528   .     S
C76    H82     1.112   .     S
C76    H81     1.104   .     S
C77    H78     1.111   .     S
C77    H79     1.110   .     S
C77    H80     1.111   .     S
C83    C94     1.417   .     S
C83    O133    1.287   .     A
C83    O131    1.287   .     A
C84    O132    1.287   .     A
C84    C93     1.417   .     S
C84    O134    1.287   .     A
C85    C151    1.525   .     S
C85    C114    1.431   .     A
C85    C87     1.407   .     A
C86    C88     1.393   .     A
C86    C158    1.526   .     S
C86    C113    1.417   .     A
C87    H115    1.085   .     S
C87    C849    1.400   1_554 S
C88    H116    1.073   .     S
C88    C850    1.399   .     S
C89    C94     1.397   .     A
C89    H121    1.084   .     S
C89    C337    1.370   .     S
C90    C93     1.397   .     A
C90    H122    1.084   .     S
C90    C584    1.370   1_545 S
C91    C93     1.397   .     A
C91    H123    1.084   .     S
C91    C581    1.370   1_545 S
C92    H124    1.084   .     S
C92    C94     1.397   .     A
C92    C336    1.370   .     S
C95    H125    1.082   .     S
C95    N130    1.368   .     A
C95    C179    1.420   .     S
C96    H126    1.081   .     S
C96    N129    1.368   .     A
C97    N129    1.368   .     A
C97    H127    1.081   .     S
C98    N130    1.368   .     A
C98    H128    1.081   .     S
C98    C178    1.420   .     S
C99    O137    1.305   .     A
C99    O135    1.298   .     A
C99    C101    1.473   .     S
C100   O138    1.303   .     A
C100   C102    1.468   .     S
C100   O136    1.298   .     A
C101   C105    1.412   .     A
C101   C107    1.401   .     A
C102   C106    1.412   .     A
C102   C108    1.406   .     A
C103   C111    1.391   .     A
C103   C105    1.397   .     A
C103   H119    1.062   .     S
C104   H120    1.064   .     S
C104   C106    1.387   .     A
C104   C112    1.399   .     A
C105   S146    1.779   .     S
C106   S141    1.778   .     S
C107   C109    1.401   .     A
C107   H118    1.079   .     S
C108   C110    1.401   .     A
C108   H117    1.073   .     S
C109   C111    1.402   .     A
C109   C113    1.403   .     A
C110   C114    1.419   .     A
C110   C112    1.412   .     A
C111   C825    1.400   .     S
C112   C826    1.399   1_554 S
C113   C852    1.416   .     S
C114   C851    1.416   1_554 S
N129   Zn139   2.022   .     S
N130   Zn140   2.022   .     S
O131   Zn139   1.996   .     S
O132   Zn140   1.996   .     S
O133   Zn140   1.996   .     S
O134   Zn139   1.996   .     S
O135   Zn139   1.919   .     S
O136   Zn140   1.919   .     S
O137   Zn140   1.926   .     S
O138   Zn139   1.926   .     S
S141   O142    1.503   .     D
S141   O144    1.683   .     S
S141   O225    1.504   .     S
O144   H145    0.991   .     S
S146   O149    1.683   .     S
S146   O147    1.503   .     D
O148   S228    1.500   .     S
O149   H150    0.991   .     S
C151   H156    1.104   .     S
C151   H157    1.112   .     S
C151   C152    1.529   .     S
C152   H153    1.111   .     S
C152   H155    1.111   .     S
C152   H154    1.109   .     S
C158   C159    1.528   .     S
C158   H164    1.112   .     S
C158   H163    1.104   .     S
C159   H160    1.111   .     S
C159   H161    1.110   .     S
C159   H162    1.111   .     S
C165   C176    1.417   .     S
C165   O215    1.287   .     A
C165   O213    1.287   .     A
C166   O214    1.287   .     A
C166   C175    1.417   .     S
C166   O216    1.287   .     A
C167   C233    1.525   .     S
C167   C196    1.431   .     A
C167   C169    1.407   .     A
C168   C170    1.393   .     A
C168   C240    1.526   .     S
C168   C195    1.417   .     A
C169   H197    1.085   .     S
C169   C931    1.400   1_554 S
C170   H198    1.073   .     S
C170   C932    1.399   .     S
C171   C176    1.397   .     A
C171   H203    1.084   .     S
C171   C419    1.370   .     S
C172   C175    1.397   .     A
C172   H204    1.084   .     S
C172   C666    1.370   1_545 S
C173   C175    1.397   .     A
C173   H205    1.084   .     S
C173   C663    1.370   1_545 S
C174   H206    1.084   .     S
C174   C176    1.397   .     A
C174   C418    1.370   .     S
C177   H207    1.082   .     S
C177   N212    1.368   .     A
C177   C15     1.420   1_655 S
C178   H208    1.081   .     S
C178   N211    1.368   .     A
C179   N211    1.368   .     A
C179   H209    1.081   .     S
C180   N212    1.368   .     A
C180   H210    1.081   .     S
C180   C14     1.420   1_655 S
C181   O219    1.305   .     A
C181   O217    1.298   .     A
C181   C183    1.473   .     S
C182   O220    1.303   .     A
C182   C184    1.468   .     S
C182   O218    1.298   .     A
C183   C187    1.412   .     A
C183   C189    1.401   .     A
C184   C188    1.412   .     A
C184   C190    1.406   .     A
C185   C193    1.391   .     A
C185   C187    1.397   .     A
C185   H201    1.062   .     S
C186   H202    1.064   .     S
C186   C188    1.387   .     A
C186   C194    1.399   .     A
C187   S228    1.779   .     S
C188   S223    1.778   .     S
C189   C191    1.401   .     A
C189   H200    1.079   .     S
C190   C192    1.401   .     A
C190   H199    1.073   .     S
C191   C193    1.402   .     A
C191   C195    1.403   .     A
C192   C196    1.419   .     A
C192   C194    1.412   .     A
C193   C907    1.400   .     S
C194   C908    1.399   1_554 S
C195   C934    1.416   .     S
C196   C933    1.416   1_554 S
N211   Zn221   2.022   .     S
N212   Zn222   2.022   .     S
O213   Zn221   1.996   .     S
O214   Zn222   1.996   .     S
O215   Zn222   1.996   .     S
O216   Zn221   1.996   .     S
O217   Zn221   1.919   .     S
O218   Zn222   1.919   .     S
O219   Zn222   1.926   .     S
O220   Zn221   1.926   .     S
S223   O224    1.503   .     D
S223   O226    1.683   .     S
S223   O61     1.504   1_655 S
O226   H227    0.991   .     S
S228   O231    1.683   .     S
S228   O229    1.503   .     D
O230   S64     1.500   1_655 S
O231   H232    0.991   .     S
C233   H238    1.104   .     S
C233   H239    1.112   .     S
C233   C234    1.529   .     S
C234   H235    1.111   .     S
C234   H237    1.111   .     S
C234   H236    1.109   .     S
C240   C241    1.528   .     S
C240   H246    1.112   .     S
C240   H245    1.104   .     S
C241   H242    1.111   .     S
C241   H243    1.110   .     S
C241   H244    1.111   .     S
C247   C258    1.417   .     S
C247   O297    1.287   .     A
C247   O295    1.287   .     A
C248   O296    1.287   .     A
C248   C257    1.417   .     S
C248   O298    1.287   .     A
C249   C315    1.525   .     S
C249   C278    1.431   .     A
C249   C251    1.407   .     A
C250   C252    1.393   .     A
C250   C322    1.526   .     S
C250   C277    1.417   .     A
C251   H279    1.085   .     S
C251   C1013   1.400   1_554 S
C252   H280    1.073   .     S
C252   C1014   1.399   .     S
C253   C258    1.397   .     A
C253   H285    1.084   .     S
C253   C501    1.370   .     S
C254   C257    1.397   .     A
C254   H286    1.084   .     S
C255   C257    1.397   .     A
C255   H287    1.084   .     S
C256   H288    1.084   .     S
C256   C258    1.397   .     A
C256   C500    1.370   .     S
C259   H289    1.082   .     S
C259   N294    1.368   .     A
C259   C343    1.420   .     S
C260   H290    1.081   .     S
C260   N293    1.368   .     A
C260   C426    1.420   1_455 S
C261   N293    1.368   .     A
C261   H291    1.081   .     S
C261   C423    1.420   1_455 S
C262   N294    1.368   .     A
C262   H292    1.081   .     S
C262   C342    1.420   .     S
C263   O301    1.305   .     A
C263   O299    1.298   .     A
C263   C265    1.473   .     S
C264   O302    1.303   .     A
C264   C266    1.468   .     S
C264   O300    1.298   .     A
C265   C269    1.412   .     A
C265   C271    1.401   .     A
C266   C270    1.412   .     A
C266   C272    1.406   .     A
C267   C275    1.391   .     A
C267   C269    1.397   .     A
C267   H283    1.062   .     S
C268   H284    1.064   .     S
C268   C270    1.387   .     A
C268   C276    1.399   .     A
C269   S310    1.779   .     S
C270   S305    1.778   .     S
C271   C273    1.401   .     A
C271   H282    1.079   .     S
C272   C274    1.401   .     A
C272   H281    1.073   .     S
C273   C275    1.402   .     A
C273   C277    1.403   .     A
C274   C278    1.419   .     A
C274   C276    1.412   .     A
C275   C989    1.400   .     S
C276   C990    1.399   1_554 S
C277   C1016   1.416   .     S
C278   C1015   1.416   1_554 S
N293   Zn303   2.022   .     S
N294   Zn304   2.022   .     S
O295   Zn303   1.996   .     S
O296   Zn304   1.996   .     S
O297   Zn304   1.996   .     S
O298   Zn303   1.996   .     S
O299   Zn303   1.919   .     S
O300   Zn304   1.919   .     S
O301   Zn304   1.926   .     S
O302   Zn303   1.926   .     S
S305   O306    1.503   .     D
S305   O308    1.683   .     S
S305   O389    1.504   .     S
O307   S469    1.504   1_455 S
O308   H309    0.991   .     S
S310   O313    1.683   .     S
S310   O311    1.503   .     D
S310   O476    1.500   1_455 S
O312   S392    1.500   .     S
O313   H314    0.991   .     S
C315   H320    1.104   .     S
C315   H321    1.112   .     S
C315   C316    1.529   .     S
C316   H317    1.111   .     S
C316   H319    1.111   .     S
C316   H318    1.109   .     S
C322   C323    1.528   .     S
C322   H328    1.112   .     S
C322   H327    1.104   .     S
C323   H324    1.111   .     S
C323   H325    1.110   .     S
C323   H326    1.111   .     S
C329   C340    1.417   .     S
C329   O379    1.287   .     A
C329   O377    1.287   .     A
C330   O378    1.287   .     A
C330   C339    1.417   .     S
C330   O380    1.287   .     A
C331   C397    1.525   .     S
C331   C360    1.431   .     A
C331   C333    1.407   .     A
C332   C334    1.393   .     A
C332   C404    1.526   .     S
C332   C359    1.417   .     A
C333   H361    1.085   .     S
C333   C1095   1.400   1_554 S
C334   H362    1.073   .     S
C334   C1096   1.399   .     S
C335   C340    1.397   .     A
C335   H367    1.084   .     S
C335   C583    1.370   .     S
C336   C339    1.397   .     A
C336   H368    1.084   .     S
C337   C339    1.397   .     A
C337   H369    1.084   .     S
C338   H370    1.084   .     S
C338   C340    1.397   .     A
C338   C582    1.370   .     S
C341   H371    1.082   .     S
C341   N376    1.368   .     A
C341   C425    1.420   .     S
C342   H372    1.081   .     S
C342   N375    1.368   .     A
C343   N375    1.368   .     A
C343   H373    1.081   .     S
C344   N376    1.368   .     A
C344   H374    1.081   .     S
C344   C424    1.420   .     S
C345   O383    1.305   .     A
C345   O381    1.298   .     A
C345   C347    1.473   .     S
C346   O384    1.303   .     A
C346   C348    1.468   .     S
C346   O382    1.298   .     A
C347   C351    1.412   .     A
C347   C353    1.401   .     A
C348   C352    1.412   .     A
C348   C354    1.406   .     A
C349   C357    1.391   .     A
C349   C351    1.397   .     A
C349   H365    1.062   .     S
C350   H366    1.064   .     S
C350   C352    1.387   .     A
C350   C358    1.399   .     A
C351   S392    1.779   .     S
C352   S387    1.778   .     S
C353   C355    1.401   .     A
C353   H364    1.079   .     S
C354   C356    1.401   .     A
C354   H363    1.073   .     S
C355   C357    1.402   .     A
C355   C359    1.403   .     A
C356   C360    1.419   .     A
C356   C358    1.412   .     A
C357   C1071   1.400   .     S
C358   C1072   1.399   1_554 S
C359   C1098   1.416   .     S
C360   C1097   1.416   1_554 S
N375   Zn385   2.022   .     S
N376   Zn386   2.022   .     S
O377   Zn385   1.996   .     S
O378   Zn386   1.996   .     S
O379   Zn386   1.996   .     S
O380   Zn385   1.996   .     S
O381   Zn385   1.919   .     S
O382   Zn386   1.919   .     S
O383   Zn386   1.926   .     S
O384   Zn385   1.926   .     S
S387   O388    1.503   .     D
S387   O390    1.683   .     S
S387   O471    1.504   .     S
O390   H391    0.991   .     S
S392   O395    1.683   .     S
S392   O393    1.503   .     D
O394   S474    1.500   .     S
O395   H396    0.991   .     S
C397   H402    1.104   .     S
C397   H403    1.112   .     S
C397   C398    1.529   .     S
C398   H399    1.111   .     S
C398   H401    1.111   .     S
C398   H400    1.109   .     S
C404   C405    1.528   .     S
C404   H410    1.112   .     S
C404   H409    1.104   .     S
C405   H406    1.111   .     S
C405   H407    1.110   .     S
C405   H408    1.111   .     S
C411   C422    1.417   .     S
C411   O461    1.287   .     A
C411   O459    1.287   .     A
C412   O460    1.287   .     A
C412   C421    1.417   .     S
C412   O462    1.287   .     A
C413   C479    1.525   .     S
C413   C442    1.431   .     A
C413   C415    1.407   .     A
C414   C416    1.393   .     A
C414   C486    1.526   .     S
C414   C441    1.417   .     A
C415   H443    1.085   .     S
C415   C1177   1.400   1_554 S
C416   H444    1.073   .     S
C416   C1178   1.399   .     S
C417   C422    1.397   .     A
C417   H449    1.084   .     S
C417   C665    1.370   .     S
C418   C421    1.397   .     A
C418   H450    1.084   .     S
C419   C421    1.397   .     A
C419   H451    1.084   .     S
C420   H452    1.084   .     S
C420   C422    1.397   .     A
C420   C664    1.370   .     S
C423   H453    1.082   .     S
C423   N458    1.368   .     A
C423   C261    1.420   1_655 S
C424   H454    1.081   .     S
C424   N457    1.368   .     A
C425   N457    1.368   .     A
C425   H455    1.081   .     S
C426   N458    1.368   .     A
C426   H456    1.081   .     S
C426   C260    1.420   1_655 S
C427   O465    1.305   .     A
C427   O463    1.298   .     A
C427   C429    1.473   .     S
C428   O466    1.303   .     A
C428   C430    1.468   .     S
C428   O464    1.298   .     A
C429   C433    1.412   .     A
C429   C435    1.401   .     A
C430   C434    1.412   .     A
C430   C436    1.406   .     A
C431   C439    1.391   .     A
C431   C433    1.397   .     A
C431   H447    1.062   .     S
C432   H448    1.064   .     S
C432   C434    1.387   .     A
C432   C440    1.399   .     A
C433   S474    1.779   .     S
C434   S469    1.778   .     S
C435   C437    1.401   .     A
C435   H446    1.079   .     S
C436   C438    1.401   .     A
C436   H445    1.073   .     S
C437   C439    1.402   .     A
C437   C441    1.403   .     A
C438   C442    1.419   .     A
C438   C440    1.412   .     A
C439   C1153   1.400   .     S
C440   C1154   1.399   1_554 S
C441   C1180   1.416   .     S
C442   C1179   1.416   1_554 S
N457   Zn467   2.022   .     S
N458   Zn468   2.022   .     S
O459   Zn467   1.996   .     S
O460   Zn468   1.996   .     S
O461   Zn468   1.996   .     S
O462   Zn467   1.996   .     S
O463   Zn467   1.919   .     S
O464   Zn468   1.919   .     S
O465   Zn468   1.926   .     S
O466   Zn467   1.926   .     S
S469   O470    1.503   .     D
S469   O472    1.683   .     S
S469   O307    1.504   1_655 S
O472   H473    0.991   .     S
S474   O477    1.683   .     S
S474   O475    1.503   .     D
O476   S310    1.500   1_655 S
O477   H478    0.991   .     S
C479   H484    1.104   .     S
C479   H485    1.112   .     S
C479   C480    1.529   .     S
C480   H481    1.111   .     S
C480   H483    1.111   .     S
C480   H482    1.109   .     S
C486   C487    1.528   .     S
C486   H492    1.112   .     S
C486   H491    1.104   .     S
C487   H488    1.111   .     S
C487   H489    1.110   .     S
C487   H490    1.111   .     S
C493   C504    1.417   .     S
C493   O543    1.287   .     A
C493   O541    1.287   .     A
C494   O542    1.287   .     A
C494   C503    1.417   .     S
C494   O544    1.287   .     A
C495   C561    1.525   .     S
C495   C524    1.431   .     A
C495   C497    1.407   .     A
C496   C498    1.393   .     A
C496   C568    1.526   .     S
C496   C523    1.417   .     A
C497   H525    1.085   .     S
C497   C1259   1.400   1_554 S
C498   H526    1.073   .     S
C498   C1260   1.399   .     S
C499   C504    1.397   .     A
C499   H531    1.084   .     S
C499   C9      1.370   1_565 S
C500   C503    1.397   .     A
C500   H532    1.084   .     S
C501   C503    1.397   .     A
C501   H533    1.084   .     S
C502   H534    1.084   .     S
C502   C504    1.397   .     A
C502   C8      1.370   1_565 S
C505   H535    1.082   .     S
C505   N540    1.368   .     A
C505   C589    1.420   .     S
C506   H536    1.081   .     S
C506   N539    1.368   .     A
C506   C672    1.420   1_455 S
C507   N539    1.368   .     A
C507   H537    1.081   .     S
C507   C669    1.420   1_455 S
C508   N540    1.368   .     A
C508   H538    1.081   .     S
C508   C588    1.420   .     S
C509   O547    1.305   .     A
C509   O545    1.298   .     A
C509   C511    1.473   .     S
C510   O548    1.303   .     A
C510   C512    1.468   .     S
C510   O546    1.298   .     A
C511   C515    1.412   .     A
C511   C517    1.401   .     A
C512   C516    1.412   .     A
C512   C518    1.406   .     A
C513   C521    1.391   .     A
C513   C515    1.397   .     A
C513   H529    1.062   .     S
C514   H530    1.064   .     S
C514   C516    1.387   .     A
C514   C522    1.399   .     A
C515   S556    1.779   .     S
C516   S551    1.778   .     S
C517   C519    1.401   .     A
C517   H528    1.079   .     S
C518   C520    1.401   .     A
C518   H527    1.073   .     S
C519   C521    1.402   .     A
C519   C523    1.403   .     A
C520   C524    1.419   .     A
C520   C522    1.412   .     A
C521   C1235   1.400   .     S
C522   C1236   1.399   1_554 S
C523   C1262   1.416   .     S
C524   C1261   1.416   1_554 S
N539   Zn549   2.022   .     S
N540   Zn550   2.022   .     S
O541   Zn549   1.996   .     S
O542   Zn550   1.996   .     S
O543   Zn550   1.996   .     S
O544   Zn549   1.996   .     S
O545   Zn549   1.919   .     S
O546   Zn550   1.919   .     S
O547   Zn550   1.926   .     S
O548   Zn549   1.926   .     S
S551   O552    1.503   .     D
S551   O554    1.683   .     S
S551   O635    1.504   .     S
O553   S715    1.504   1_455 S
O554   H555    0.991   .     S
S556   O559    1.683   .     S
S556   O557    1.503   .     D
S556   O722    1.500   1_455 S
O558   S638    1.500   .     S
O559   H560    0.991   .     S
C561   H566    1.104   .     S
C561   H567    1.112   .     S
C561   C562    1.529   .     S
C562   H563    1.111   .     S
C562   H565    1.111   .     S
C562   H564    1.109   .     S
C568   C569    1.528   .     S
C568   H574    1.112   .     S
C568   H573    1.104   .     S
C569   H570    1.111   .     S
C569   H571    1.110   .     S
C569   H572    1.111   .     S
C575   C586    1.417   .     S
C575   O625    1.287   .     A
C575   O623    1.287   .     A
C576   O624    1.287   .     A
C576   C585    1.417   .     S
C576   O626    1.287   .     A
C577   C643    1.525   .     S
C577   C606    1.431   .     A
C577   C579    1.407   .     A
C578   C580    1.393   .     A
C578   C650    1.526   .     S
C578   C605    1.417   .     A
C579   H607    1.085   .     S
C579   C1341   1.400   1_554 S
C580   H608    1.073   .     S
C580   C1342   1.399   .     S
C581   C586    1.397   .     A
C581   H613    1.084   .     S
C581   C91     1.370   1_565 S
C582   C585    1.397   .     A
C582   H614    1.084   .     S
C583   C585    1.397   .     A
C583   H615    1.084   .     S
C584   H616    1.084   .     S
C584   C586    1.397   .     A
C584   C90     1.370   1_565 S
C587   H617    1.082   .     S
C587   N622    1.368   .     A
C587   C671    1.420   .     S
C588   H618    1.081   .     S
C588   N621    1.368   .     A
C589   N621    1.368   .     A
C589   H619    1.081   .     S
C590   N622    1.368   .     A
C590   H620    1.081   .     S
C590   C670    1.420   .     S
C591   O629    1.305   .     A
C591   O627    1.298   .     A
C591   C593    1.473   .     S
C592   O630    1.303   .     A
C592   C594    1.468   .     S
C592   O628    1.298   .     A
C593   C597    1.412   .     A
C593   C599    1.401   .     A
C594   C598    1.412   .     A
C594   C600    1.406   .     A
C595   C603    1.391   .     A
C595   C597    1.397   .     A
C595   H611    1.062   .     S
C596   H612    1.064   .     S
C596   C598    1.387   .     A
C596   C604    1.399   .     A
C597   S638    1.779   .     S
C598   S633    1.778   .     S
C599   C601    1.401   .     A
C599   H610    1.079   .     S
C600   C602    1.401   .     A
C600   H609    1.073   .     S
C601   C603    1.402   .     A
C601   C605    1.403   .     A
C602   C606    1.419   .     A
C602   C604    1.412   .     A
C603   C1317   1.400   .     S
C604   C1318   1.399   1_554 S
C605   C1344   1.416   .     S
C606   C1343   1.416   1_554 S
N621   Zn631   2.022   .     S
N622   Zn632   2.022   .     S
O623   Zn631   1.996   .     S
O624   Zn632   1.996   .     S
O625   Zn632   1.996   .     S
O626   Zn631   1.996   .     S
O627   Zn631   1.919   .     S
O628   Zn632   1.919   .     S
O629   Zn632   1.926   .     S
O630   Zn631   1.926   .     S
S633   O634    1.503   .     D
S633   O636    1.683   .     S
S633   O717    1.504   .     S
O636   H637    0.991   .     S
S638   O641    1.683   .     S
S638   O639    1.503   .     D
O640   S720    1.500   .     S
O641   H642    0.991   .     S
C643   H648    1.104   .     S
C643   H649    1.112   .     S
C643   C644    1.529   .     S
C644   H645    1.111   .     S
C644   H647    1.111   .     S
C644   H646    1.109   .     S
C650   C651    1.528   .     S
C650   H656    1.112   .     S
C650   H655    1.104   .     S
C651   H652    1.111   .     S
C651   H653    1.110   .     S
C651   H654    1.111   .     S
C657   C668    1.417   .     S
C657   O707    1.287   .     A
C657   O705    1.287   .     A
C658   O706    1.287   .     A
C658   C667    1.417   .     S
C658   O708    1.287   .     A
C659   C725    1.525   .     S
C659   C688    1.431   .     A
C659   C661    1.407   .     A
C660   C662    1.393   .     A
C660   C732    1.526   .     S
C660   C687    1.417   .     A
C661   H689    1.085   .     S
C661   C1423   1.400   1_554 S
C662   H690    1.073   .     S
C662   C1424   1.399   .     S
C663   C668    1.397   .     A
C663   H695    1.084   .     S
C663   C173    1.370   1_565 S
C664   C667    1.397   .     A
C664   H696    1.084   .     S
C665   C667    1.397   .     A
C665   H697    1.084   .     S
C666   H698    1.084   .     S
C666   C668    1.397   .     A
C666   C172    1.370   1_565 S
C669   H699    1.082   .     S
C669   N704    1.368   .     A
C669   C507    1.420   1_655 S
C670   H700    1.081   .     S
C670   N703    1.368   .     A
C671   N703    1.368   .     A
C671   H701    1.081   .     S
C672   N704    1.368   .     A
C672   H702    1.081   .     S
C672   C506    1.420   1_655 S
C673   O711    1.305   .     A
C673   O709    1.298   .     A
C673   C675    1.473   .     S
C674   O712    1.303   .     A
C674   C676    1.468   .     S
C674   O710    1.298   .     A
C675   C679    1.412   .     A
C675   C681    1.401   .     A
C676   C680    1.412   .     A
C676   C682    1.406   .     A
C677   C685    1.391   .     A
C677   C679    1.397   .     A
C677   H693    1.062   .     S
C678   H694    1.064   .     S
C678   C680    1.387   .     A
C678   C686    1.399   .     A
C679   S720    1.779   .     S
C680   S715    1.778   .     S
C681   C683    1.401   .     A
C681   H692    1.079   .     S
C682   C684    1.401   .     A
C682   H691    1.073   .     S
C683   C685    1.402   .     A
C683   C687    1.403   .     A
C684   C688    1.419   .     A
C684   C686    1.412   .     A
C685   C1399   1.400   .     S
C686   C1400   1.399   1_554 S
C687   C1426   1.416   .     S
C688   C1425   1.416   1_554 S
N703   Zn713   2.022   .     S
N704   Zn714   2.022   .     S
O705   Zn713   1.996   .     S
O706   Zn714   1.996   .     S
O707   Zn714   1.996   .     S
O708   Zn713   1.996   .     S
O709   Zn713   1.919   .     S
O710   Zn714   1.919   .     S
O711   Zn714   1.926   .     S
O712   Zn713   1.926   .     S
S715   O716    1.503   .     D
S715   O718    1.683   .     S
S715   O553    1.504   1_655 S
O718   H719    0.991   .     S
S720   O723    1.683   .     S
S720   O721    1.503   .     D
O722   S556    1.500   1_655 S
O723   H724    0.991   .     S
C725   H730    1.104   .     S
C725   H731    1.112   .     S
C725   C726    1.529   .     S
C726   H727    1.111   .     S
C726   H729    1.111   .     S
C726   H728    1.109   .     S
C732   C733    1.528   .     S
C732   H738    1.112   .     S
C732   H737    1.104   .     S
C733   H734    1.111   .     S
C733   H735    1.110   .     S
C733   H736    1.111   .     S
C739   C750    1.417   .     S
C739   O789    1.287   .     A
C739   O787    1.287   .     A
C740   O788    1.287   .     A
C740   C749    1.417   .     S
C740   O790    1.287   .     A
C741   C807    1.525   .     S
C741   C770    1.431   .     A
C741   C743    1.407   .     A
C742   C744    1.393   .     A
C742   C814    1.526   .     S
C742   C769    1.417   .     A
C743   H771    1.085   .     S
C744   H772    1.073   .     S
C744   C30     1.399   1_556 S
C745   C750    1.397   .     A
C745   H777    1.084   .     S
C745   C993    1.370   .     S
C746   C749    1.397   .     A
C746   H778    1.084   .     S
C746   C1240   1.370   1_545 S
C747   C749    1.397   .     A
C747   H779    1.084   .     S
C747   C1237   1.370   1_545 S
C748   H780    1.084   .     S
C748   C750    1.397   .     A
C748   C992    1.370   .     S
C751   H781    1.082   .     S
C751   N786    1.368   .     A
C751   C835    1.420   .     S
C752   H782    1.081   .     S
C752   N785    1.368   .     A
C752   C918    1.420   1_455 S
C753   N785    1.368   .     A
C753   H783    1.081   .     S
C753   C915    1.420   1_455 S
C754   N786    1.368   .     A
C754   H784    1.081   .     S
C754   C834    1.420   .     S
C755   O793    1.305   .     A
C755   O791    1.298   .     A
C755   C757    1.473   .     S
C756   O794    1.303   .     A
C756   C758    1.468   .     S
C756   O792    1.298   .     A
C757   C761    1.412   .     A
C757   C763    1.401   .     A
C758   C762    1.412   .     A
C758   C764    1.406   .     A
C759   C767    1.391   .     A
C759   C761    1.397   .     A
C759   H775    1.062   .     S
C760   H776    1.064   .     S
C760   C762    1.387   .     A
C760   C768    1.399   .     A
C761   S802    1.779   .     S
C762   S797    1.778   .     S
C763   C765    1.401   .     A
C763   H774    1.079   .     S
C764   C766    1.401   .     A
C764   H773    1.073   .     S
C765   C767    1.402   .     A
C765   C769    1.403   .     A
C766   C770    1.419   .     A
C766   C768    1.412   .     A
C767   C5      1.400   1_556 S
C769   C32     1.416   1_556 S
N785   Zn795   2.022   .     S
N786   Zn796   2.022   .     S
O787   Zn795   1.996   .     S
O788   Zn796   1.996   .     S
O789   Zn796   1.996   .     S
O790   Zn795   1.996   .     S
O791   Zn795   1.919   .     S
O792   Zn796   1.919   .     S
O793   Zn796   1.926   .     S
O794   Zn795   1.926   .     S
S797   O798    1.503   .     D
S797   O800    1.683   .     S
S797   O881    1.504   .     S
O799   S961    1.504   1_455 S
O800   H801    0.991   .     S
S802   O805    1.683   .     S
S802   O803    1.503   .     D
S802   O968    1.500   1_455 S
O804   S884    1.500   .     S
O805   H806    0.991   .     S
C807   H812    1.104   .     S
C807   H813    1.112   .     S
C807   C808    1.529   .     S
C808   H809    1.111   .     S
C808   H811    1.111   .     S
C808   H810    1.109   .     S
C814   C815    1.528   .     S
C814   H820    1.112   .     S
C814   H819    1.104   .     S
C815   H816    1.111   .     S
C815   H817    1.110   .     S
C815   H818    1.111   .     S
C821   C832    1.417   .     S
C821   O871    1.287   .     A
C821   O869    1.287   .     A
C822   O870    1.287   .     A
C822   C831    1.417   .     S
C822   O872    1.287   .     A
C823   C889    1.525   .     S
C823   C852    1.431   .     A
C823   C825    1.407   .     A
C824   C826    1.393   .     A
C824   C896    1.526   .     S
C824   C851    1.417   .     A
C825   H853    1.085   .     S
C826   H854    1.073   .     S
C826   C112    1.399   1_556 S
C827   C832    1.397   .     A
C827   H859    1.084   .     S
C827   C1075   1.370   .     S
C828   C831    1.397   .     A
C828   H860    1.084   .     S
C828   C1322   1.370   1_545 S
C829   C831    1.397   .     A
C829   H861    1.084   .     S
C829   C1319   1.370   1_545 S
C830   H862    1.084   .     S
C830   C832    1.397   .     A
C830   C1074   1.370   .     S
C833   H863    1.082   .     S
C833   N868    1.368   .     A
C833   C917    1.420   .     S
C834   H864    1.081   .     S
C834   N867    1.368   .     A
C835   N867    1.368   .     A
C835   H865    1.081   .     S
C836   N868    1.368   .     A
C836   H866    1.081   .     S
C836   C916    1.420   .     S
C837   O875    1.305   .     A
C837   O873    1.298   .     A
C837   C839    1.473   .     S
C838   O876    1.303   .     A
C838   C840    1.468   .     S
C838   O874    1.298   .     A
C839   C843    1.412   .     A
C839   C845    1.401   .     A
C840   C844    1.412   .     A
C840   C846    1.406   .     A
C841   C849    1.391   .     A
C841   C843    1.397   .     A
C841   H857    1.062   .     S
C842   H858    1.064   .     S
C842   C844    1.387   .     A
C842   C850    1.399   .     A
C843   S884    1.779   .     S
C844   S879    1.778   .     S
C845   C847    1.401   .     A
C845   H856    1.079   .     S
C846   C848    1.401   .     A
C846   H855    1.073   .     S
C847   C849    1.402   .     A
C847   C851    1.403   .     A
C848   C852    1.419   .     A
C848   C850    1.412   .     A
C849   C87     1.400   1_556 S
C851   C114    1.416   1_556 S
N867   Zn877   2.022   .     S
N868   Zn878   2.022   .     S
O869   Zn877   1.996   .     S
O870   Zn878   1.996   .     S
O871   Zn878   1.996   .     S
O872   Zn877   1.996   .     S
O873   Zn877   1.919   .     S
O874   Zn878   1.919   .     S
O875   Zn878   1.926   .     S
O876   Zn877   1.926   .     S
S879   O880    1.503   .     D
S879   O882    1.683   .     S
S879   O963    1.504   .     S
O882   H883    0.991   .     S
S884   O887    1.683   .     S
S884   O885    1.503   .     D
O886   S966    1.500   .     S
O887   H888    0.991   .     S
C889   H894    1.104   .     S
C889   H895    1.112   .     S
C889   C890    1.529   .     S
C890   H891    1.111   .     S
C890   H893    1.111   .     S
C890   H892    1.109   .     S
C896   C897    1.528   .     S
C896   H902    1.112   .     S
C896   H901    1.104   .     S
C897   H898    1.111   .     S
C897   H899    1.110   .     S
C897   H900    1.111   .     S
C903   C914    1.417   .     S
C903   O953    1.287   .     A
C903   O951    1.287   .     A
C904   O952    1.287   .     A
C904   C913    1.417   .     S
C904   O954    1.287   .     A
C905   C971    1.525   .     S
C905   C934    1.431   .     A
C905   C907    1.407   .     A
C906   C908    1.393   .     A
C906   C978    1.526   .     S
C906   C933    1.417   .     A
C907   H935    1.085   .     S
C908   H936    1.073   .     S
C908   C194    1.399   1_556 S
C909   C914    1.397   .     A
C909   H941    1.084   .     S
C909   C1157   1.370   .     S
C910   C913    1.397   .     A
C910   H942    1.084   .     S
C910   C1404   1.370   1_545 S
C911   C913    1.397   .     A
C911   H943    1.084   .     S
C911   C1401   1.370   1_545 S
C912   H944    1.084   .     S
C912   C914    1.397   .     A
C912   C1156   1.370   .     S
C915   H945    1.082   .     S
C915   N950    1.368   .     A
C915   C753    1.420   1_655 S
C916   H946    1.081   .     S
C916   N949    1.368   .     A
C917   N949    1.368   .     A
C917   H947    1.081   .     S
C918   N950    1.368   .     A
C918   H948    1.081   .     S
C918   C752    1.420   1_655 S
C919   O957    1.305   .     A
C919   O955    1.298   .     A
C919   C921    1.473   .     S
C920   O958    1.303   .     A
C920   C922    1.468   .     S
C920   O956    1.298   .     A
C921   C925    1.412   .     A
C921   C927    1.401   .     A
C922   C926    1.412   .     A
C922   C928    1.406   .     A
C923   C931    1.391   .     A
C923   C925    1.397   .     A
C923   H939    1.062   .     S
C924   H940    1.064   .     S
C924   C926    1.387   .     A
C924   C932    1.399   .     A
C925   S966    1.779   .     S
C926   S961    1.778   .     S
C927   C929    1.401   .     A
C927   H938    1.079   .     S
C928   C930    1.401   .     A
C928   H937    1.073   .     S
C929   C931    1.402   .     A
C929   C933    1.403   .     A
C930   C934    1.419   .     A
C930   C932    1.412   .     A
C931   C169    1.400   1_556 S
C933   C196    1.416   1_556 S
N949   Zn959   2.022   .     S
N950   Zn960   2.022   .     S
O951   Zn959   1.996   .     S
O952   Zn960   1.996   .     S
O953   Zn960   1.996   .     S
O954   Zn959   1.996   .     S
O955   Zn959   1.919   .     S
O956   Zn960   1.919   .     S
O957   Zn960   1.926   .     S
O958   Zn959   1.926   .     S
S961   O962    1.503   .     D
S961   O964    1.683   .     S
S961   O799    1.504   1_655 S
O964   H965    0.991   .     S
S966   O969    1.683   .     S
S966   O967    1.503   .     D
O968   S802    1.500   1_655 S
O969   H970    0.991   .     S
C971   H976    1.104   .     S
C971   H977    1.112   .     S
C971   C972    1.529   .     S
C972   H973    1.111   .     S
C972   H975    1.111   .     S
C972   H974    1.109   .     S
C978   C979    1.528   .     S
C978   H984    1.112   .     S
C978   H983    1.104   .     S
C979   H980    1.111   .     S
C979   H981    1.110   .     S
C979   H982    1.111   .     S
C985   C996    1.417   .     S
C985   O1035   1.287   .     A
C985   O1033   1.287   .     A
C986   O1034   1.287   .     A
C986   C995    1.417   .     S
C986   O1036   1.287   .     A
C987   C1053   1.525   .     S
C987   C1016   1.431   .     A
C987   C989    1.407   .     A
C988   C990    1.393   .     A
C988   C1060   1.526   .     S
C988   C1015   1.417   .     A
C989   H1017   1.085   .     S
C990   H1018   1.073   .     S
C990   C276    1.399   1_556 S
C991   C996    1.397   .     A
C991   H1023   1.084   .     S
C991   C1239   1.370   .     S
C992   C995    1.397   .     A
C992   H1024   1.084   .     S
C993   C995    1.397   .     A
C993   H1025   1.084   .     S
C994   H1026   1.084   .     S
C994   C996    1.397   .     A
C994   C1238   1.370   .     S
C997   H1027   1.082   .     S
C997   N1032   1.368   .     A
C997   C1081   1.420   .     S
C998   H1028   1.081   .     S
C998   N1031   1.368   .     A
C998   C1164   1.420   1_455 S
C999   N1031   1.368   .     A
C999   H1029   1.081   .     S
C999   C1161   1.420   1_455 S
C1000  N1032   1.368   .     A
C1000  H1030   1.081   .     S
C1000  C1080   1.420   .     S
C1001  O1039   1.305   .     A
C1001  O1037   1.298   .     A
C1001  C1003   1.473   .     S
C1002  O1040   1.303   .     A
C1002  C1004   1.468   .     S
C1002  O1038   1.298   .     A
C1003  C1007   1.412   .     A
C1003  C1009   1.401   .     A
C1004  C1008   1.412   .     A
C1004  C1010   1.406   .     A
C1005  C1013   1.391   .     A
C1005  C1007   1.397   .     A
C1005  H1021   1.062   .     S
C1006  H1022   1.064   .     S
C1006  C1008   1.387   .     A
C1006  C1014   1.399   .     A
C1007  S1048   1.779   .     S
C1008  S1043   1.778   .     S
C1009  C1011   1.401   .     A
C1009  H1020   1.079   .     S
C1010  C1012   1.401   .     A
C1010  H1019   1.073   .     S
C1011  C1013   1.402   .     A
C1011  C1015   1.403   .     A
C1012  C1016   1.419   .     A
C1012  C1014   1.412   .     A
C1013  C251    1.400   1_556 S
C1015  C278    1.416   1_556 S
N1031  Zn1041  2.022   .     S
N1032  Zn1042  2.022   .     S
O1033  Zn1041  1.996   .     S
O1034  Zn1042  1.996   .     S
O1035  Zn1042  1.996   .     S
O1036  Zn1041  1.996   .     S
O1037  Zn1041  1.919   .     S
O1038  Zn1042  1.919   .     S
O1039  Zn1042  1.926   .     S
O1040  Zn1041  1.926   .     S
S1043  O1044   1.503   .     D
S1043  O1046   1.683   .     S
S1043  O1127   1.504   .     S
O1045  S1207   1.504   1_455 S
O1046  H1047   0.991   .     S
S1048  O1051   1.683   .     S
S1048  O1049   1.503   .     D
S1048  O1214   1.500   1_455 S
O1050  S1130   1.500   .     S
O1051  H1052   0.991   .     S
C1053  H1058   1.104   .     S
C1053  H1059   1.112   .     S
C1053  C1054   1.529   .     S
C1054  H1055   1.111   .     S
C1054  H1057   1.111   .     S
C1054  H1056   1.109   .     S
C1060  C1061   1.528   .     S
C1060  H1066   1.112   .     S
C1060  H1065   1.104   .     S
C1061  H1062   1.111   .     S
C1061  H1063   1.110   .     S
C1061  H1064   1.111   .     S
C1067  C1078   1.417   .     S
C1067  O1117   1.287   .     A
C1067  O1115   1.287   .     A
C1068  O1116   1.287   .     A
C1068  C1077   1.417   .     S
C1068  O1118   1.287   .     A
C1069  C1135   1.525   .     S
C1069  C1098   1.431   .     A
C1069  C1071   1.407   .     A
C1070  C1072   1.393   .     A
C1070  C1142   1.526   .     S
C1070  C1097   1.417   .     A
C1071  H1099   1.085   .     S
C1072  H1100   1.073   .     S
C1072  C358    1.399   1_556 S
C1073  C1078   1.397   .     A
C1073  H1105   1.084   .     S
C1073  C1321   1.370   .     S
C1074  C1077   1.397   .     A
C1074  H1106   1.084   .     S
C1075  C1077   1.397   .     A
C1075  H1107   1.084   .     S
C1076  H1108   1.084   .     S
C1076  C1078   1.397   .     A
C1076  C1320   1.370   .     S
C1079  H1109   1.082   .     S
C1079  N1114   1.368   .     A
C1079  C1163   1.420   .     S
C1080  H1110   1.081   .     S
C1080  N1113   1.368   .     A
C1081  N1113   1.368   .     A
C1081  H1111   1.081   .     S
C1082  N1114   1.368   .     A
C1082  H1112   1.081   .     S
C1082  C1162   1.420   .     S
C1083  O1121   1.305   .     A
C1083  O1119   1.298   .     A
C1083  C1085   1.473   .     S
C1084  O1122   1.303   .     A
C1084  C1086   1.468   .     S
C1084  O1120   1.298   .     A
C1085  C1089   1.412   .     A
C1085  C1091   1.401   .     A
C1086  C1090   1.412   .     A
C1086  C1092   1.406   .     A
C1087  C1095   1.391   .     A
C1087  C1089   1.397   .     A
C1087  H1103   1.062   .     S
C1088  H1104   1.064   .     S
C1088  C1090   1.387   .     A
C1088  C1096   1.399   .     A
C1089  S1130   1.779   .     S
C1090  S1125   1.778   .     S
C1091  C1093   1.401   .     A
C1091  H1102   1.079   .     S
C1092  C1094   1.401   .     A
C1092  H1101   1.073   .     S
C1093  C1095   1.402   .     A
C1093  C1097   1.403   .     A
C1094  C1098   1.419   .     A
C1094  C1096   1.412   .     A
C1095  C333    1.400   1_556 S
C1097  C360    1.416   1_556 S
N1113  Zn1123  2.022   .     S
N1114  Zn1124  2.022   .     S
O1115  Zn1123  1.996   .     S
O1116  Zn1124  1.996   .     S
O1117  Zn1124  1.996   .     S
O1118  Zn1123  1.996   .     S
O1119  Zn1123  1.919   .     S
O1120  Zn1124  1.919   .     S
O1121  Zn1124  1.926   .     S
O1122  Zn1123  1.926   .     S
S1125  O1126   1.503   .     D
S1125  O1128   1.683   .     S
S1125  O1209   1.504   .     S
O1128  H1129   0.991   .     S
S1130  O1133   1.683   .     S
S1130  O1131   1.503   .     D
O1132  S1212   1.500   .     S
O1133  H1134   0.991   .     S
C1135  H1140   1.104   .     S
C1135  H1141   1.112   .     S
C1135  C1136   1.529   .     S
C1136  H1137   1.111   .     S
C1136  H1139   1.111   .     S
C1136  H1138   1.109   .     S
C1142  C1143   1.528   .     S
C1142  H1148   1.112   .     S
C1142  H1147   1.104   .     S
C1143  H1144   1.111   .     S
C1143  H1145   1.110   .     S
C1143  H1146   1.111   .     S
C1149  C1160   1.417   .     S
C1149  O1199   1.287   .     A
C1149  O1197   1.287   .     A
C1150  O1198   1.287   .     A
C1150  C1159   1.417   .     S
C1150  O1200   1.287   .     A
C1151  C1217   1.525   .     S
C1151  C1180   1.431   .     A
C1151  C1153   1.407   .     A
C1152  C1154   1.393   .     A
C1152  C1224   1.526   .     S
C1152  C1179   1.417   .     A
C1153  H1181   1.085   .     S
C1154  H1182   1.073   .     S
C1154  C440    1.399   1_556 S
C1155  C1160   1.397   .     A
C1155  H1187   1.084   .     S
C1155  C1403   1.370   .     S
C1156  C1159   1.397   .     A
C1156  H1188   1.084   .     S
C1157  C1159   1.397   .     A
C1157  H1189   1.084   .     S
C1158  H1190   1.084   .     S
C1158  C1160   1.397   .     A
C1158  C1402   1.370   .     S
C1161  H1191   1.082   .     S
C1161  N1196   1.368   .     A
C1161  C999    1.420   1_655 S
C1162  H1192   1.081   .     S
C1162  N1195   1.368   .     A
C1163  N1195   1.368   .     A
C1163  H1193   1.081   .     S
C1164  N1196   1.368   .     A
C1164  H1194   1.081   .     S
C1164  C998    1.420   1_655 S
C1165  O1203   1.305   .     A
C1165  O1201   1.298   .     A
C1165  C1167   1.473   .     S
C1166  O1204   1.303   .     A
C1166  C1168   1.468   .     S
C1166  O1202   1.298   .     A
C1167  C1171   1.412   .     A
C1167  C1173   1.401   .     A
C1168  C1172   1.412   .     A
C1168  C1174   1.406   .     A
C1169  C1177   1.391   .     A
C1169  C1171   1.397   .     A
C1169  H1185   1.062   .     S
C1170  H1186   1.064   .     S
C1170  C1172   1.387   .     A
C1170  C1178   1.399   .     A
C1171  S1212   1.779   .     S
C1172  S1207   1.778   .     S
C1173  C1175   1.401   .     A
C1173  H1184   1.079   .     S
C1174  C1176   1.401   .     A
C1174  H1183   1.073   .     S
C1175  C1177   1.402   .     A
C1175  C1179   1.403   .     A
C1176  C1180   1.419   .     A
C1176  C1178   1.412   .     A
C1177  C415    1.400   1_556 S
C1179  C442    1.416   1_556 S
N1195  Zn1205  2.022   .     S
N1196  Zn1206  2.022   .     S
O1197  Zn1205  1.996   .     S
O1198  Zn1206  1.996   .     S
O1199  Zn1206  1.996   .     S
O1200  Zn1205  1.996   .     S
O1201  Zn1205  1.919   .     S
O1202  Zn1206  1.919   .     S
O1203  Zn1206  1.926   .     S
O1204  Zn1205  1.926   .     S
S1207  O1208   1.503   .     D
S1207  O1210   1.683   .     S
S1207  O1045   1.504   1_655 S
O1210  H1211   0.991   .     S
S1212  O1215   1.683   .     S
S1212  O1213   1.503   .     D
O1214  S1048   1.500   1_655 S
O1215  H1216   0.991   .     S
C1217  H1222   1.104   .     S
C1217  H1223   1.112   .     S
C1217  C1218   1.529   .     S
C1218  H1219   1.111   .     S
C1218  H1221   1.111   .     S
C1218  H1220   1.109   .     S
C1224  C1225   1.528   .     S
C1224  H1230   1.112   .     S
C1224  H1229   1.104   .     S
C1225  H1226   1.111   .     S
C1225  H1227   1.110   .     S
C1225  H1228   1.111   .     S
C1231  C1242   1.417   .     S
C1231  O1281   1.287   .     A
C1231  O1279   1.287   .     A
C1232  O1280   1.287   .     A
C1232  C1241   1.417   .     S
C1232  O1282   1.287   .     A
C1233  C1299   1.525   .     S
C1233  C1262   1.431   .     A
C1233  C1235   1.407   .     A
C1234  C1236   1.393   .     A
C1234  C1306   1.526   .     S
C1234  C1261   1.417   .     A
C1235  H1263   1.085   .     S
C1236  H1264   1.073   .     S
C1236  C522    1.399   1_556 S
C1237  C1242   1.397   .     A
C1237  H1269   1.084   .     S
C1237  C747    1.370   1_565 S
C1238  C1241   1.397   .     A
C1238  H1270   1.084   .     S
C1239  C1241   1.397   .     A
C1239  H1271   1.084   .     S
C1240  H1272   1.084   .     S
C1240  C1242   1.397   .     A
C1240  C746    1.370   1_565 S
C1243  H1273   1.082   .     S
C1243  N1278   1.368   .     A
C1243  C1327   1.420   .     S
C1244  H1274   1.081   .     S
C1244  N1277   1.368   .     A
C1244  C1410   1.420   1_455 S
C1245  N1277   1.368   .     A
C1245  H1275   1.081   .     S
C1245  C1407   1.420   1_455 S
C1246  N1278   1.368   .     A
C1246  H1276   1.081   .     S
C1246  C1326   1.420   .     S
C1247  O1285   1.305   .     A
C1247  O1283   1.298   .     A
C1247  C1249   1.473   .     S
C1248  O1286   1.303   .     A
C1248  C1250   1.468   .     S
C1248  O1284   1.298   .     A
C1249  C1253   1.412   .     A
C1249  C1255   1.401   .     A
C1250  C1254   1.412   .     A
C1250  C1256   1.406   .     A
C1251  C1259   1.391   .     A
C1251  C1253   1.397   .     A
C1251  H1267   1.062   .     S
C1252  H1268   1.064   .     S
C1252  C1254   1.387   .     A
C1252  C1260   1.399   .     A
C1253  S1294   1.779   .     S
C1254  S1289   1.778   .     S
C1255  C1257   1.401   .     A
C1255  H1266   1.079   .     S
C1256  C1258   1.401   .     A
C1256  H1265   1.073   .     S
C1257  C1259   1.402   .     A
C1257  C1261   1.403   .     A
C1258  C1262   1.419   .     A
C1258  C1260   1.412   .     A
C1259  C497    1.400   1_556 S
C1261  C524    1.416   1_556 S
N1277  Zn1287  2.022   .     S
N1278  Zn1288  2.022   .     S
O1279  Zn1287  1.996   .     S
O1280  Zn1288  1.996   .     S
O1281  Zn1288  1.996   .     S
O1282  Zn1287  1.996   .     S
O1283  Zn1287  1.919   .     S
O1284  Zn1288  1.919   .     S
O1285  Zn1288  1.926   .     S
O1286  Zn1287  1.926   .     S
S1289  O1290   1.503   .     D
S1289  O1292   1.683   .     S
S1289  O1373   1.504   .     S
O1291  S1453   1.504   1_455 S
O1292  H1293   0.991   .     S
S1294  O1297   1.683   .     S
S1294  O1295   1.503   .     D
S1294  O1460   1.500   1_455 S
O1296  S1376   1.500   .     S
O1297  H1298   0.991   .     S
C1299  H1304   1.104   .     S
C1299  H1305   1.112   .     S
C1299  C1300   1.529   .     S
C1300  H1301   1.111   .     S
C1300  H1303   1.111   .     S
C1300  H1302   1.109   .     S
C1306  C1307   1.528   .     S
C1306  H1312   1.112   .     S
C1306  H1311   1.104   .     S
C1307  H1308   1.111   .     S
C1307  H1309   1.110   .     S
C1307  H1310   1.111   .     S
C1313  C1324   1.417   .     S
C1313  O1363   1.287   .     A
C1313  O1361   1.287   .     A
C1314  O1362   1.287   .     A
C1314  C1323   1.417   .     S
C1314  O1364   1.287   .     A
C1315  C1381   1.525   .     S
C1315  C1344   1.431   .     A
C1315  C1317   1.407   .     A
C1316  C1318   1.393   .     A
C1316  C1388   1.526   .     S
C1316  C1343   1.417   .     A
C1317  H1345   1.085   .     S
C1318  H1346   1.073   .     S
C1318  C604    1.399   1_556 S
C1319  C1324   1.397   .     A
C1319  H1351   1.084   .     S
C1319  C829    1.370   1_565 S
C1320  C1323   1.397   .     A
C1320  H1352   1.084   .     S
C1321  C1323   1.397   .     A
C1321  H1353   1.084   .     S
C1322  H1354   1.084   .     S
C1322  C1324   1.397   .     A
C1322  C828    1.370   1_565 S
C1325  H1355   1.082   .     S
C1325  N1360   1.368   .     A
C1325  C1409   1.420   .     S
C1326  H1356   1.081   .     S
C1326  N1359   1.368   .     A
C1327  N1359   1.368   .     A
C1327  H1357   1.081   .     S
C1328  N1360   1.368   .     A
C1328  H1358   1.081   .     S
C1328  C1408   1.420   .     S
C1329  O1367   1.305   .     A
C1329  O1365   1.298   .     A
C1329  C1331   1.473   .     S
C1330  O1368   1.303   .     A
C1330  C1332   1.468   .     S
C1330  O1366   1.298   .     A
C1331  C1335   1.412   .     A
C1331  C1337   1.401   .     A
C1332  C1336   1.412   .     A
C1332  C1338   1.406   .     A
C1333  C1341   1.391   .     A
C1333  C1335   1.397   .     A
C1333  H1349   1.062   .     S
C1334  H1350   1.064   .     S
C1334  C1336   1.387   .     A
C1334  C1342   1.399   .     A
C1335  S1376   1.779   .     S
C1336  S1371   1.778   .     S
C1337  C1339   1.401   .     A
C1337  H1348   1.079   .     S
C1338  C1340   1.401   .     A
C1338  H1347   1.073   .     S
C1339  C1341   1.402   .     A
C1339  C1343   1.403   .     A
C1340  C1344   1.419   .     A
C1340  C1342   1.412   .     A
C1341  C579    1.400   1_556 S
C1343  C606    1.416   1_556 S
N1359  Zn1369  2.022   .     S
N1360  Zn1370  2.022   .     S
O1361  Zn1369  1.996   .     S
O1362  Zn1370  1.996   .     S
O1363  Zn1370  1.996   .     S
O1364  Zn1369  1.996   .     S
O1365  Zn1369  1.919   .     S
O1366  Zn1370  1.919   .     S
O1367  Zn1370  1.926   .     S
O1368  Zn1369  1.926   .     S
S1371  O1372   1.503   .     D
S1371  O1374   1.683   .     S
S1371  O1455   1.504   .     S
O1374  H1375   0.991   .     S
S1376  O1379   1.683   .     S
S1376  O1377   1.503   .     D
O1378  S1458   1.500   .     S
O1379  H1380   0.991   .     S
C1381  H1386   1.104   .     S
C1381  H1387   1.112   .     S
C1381  C1382   1.529   .     S
C1382  H1383   1.111   .     S
C1382  H1385   1.111   .     S
C1382  H1384   1.109   .     S
C1388  C1389   1.528   .     S
C1388  H1394   1.112   .     S
C1388  H1393   1.104   .     S
C1389  H1390   1.111   .     S
C1389  H1391   1.110   .     S
C1389  H1392   1.111   .     S
C1395  C1406   1.417   .     S
C1395  O1445   1.287   .     A
C1395  O1443   1.287   .     A
C1396  O1444   1.287   .     A
C1396  C1405   1.417   .     S
C1396  O1446   1.287   .     A
C1397  C1463   1.525   .     S
C1397  C1426   1.431   .     A
C1397  C1399   1.407   .     A
C1398  C1400   1.393   .     A
C1398  C1470   1.526   .     S
C1398  C1425   1.417   .     A
C1399  H1427   1.085   .     S
C1400  H1428   1.073   .     S
C1400  C686    1.399   1_556 S
C1401  C1406   1.397   .     A
C1401  H1433   1.084   .     S
C1401  C911    1.370   1_565 S
C1402  C1405   1.397   .     A
C1402  H1434   1.084   .     S
C1403  C1405   1.397   .     A
C1403  H1435   1.084   .     S
C1404  H1436   1.084   .     S
C1404  C1406   1.397   .     A
C1404  C910    1.370   1_565 S
C1407  H1437   1.082   .     S
C1407  N1442   1.368   .     A
C1407  C1245   1.420   1_655 S
C1408  H1438   1.081   .     S
C1408  N1441   1.368   .     A
C1409  N1441   1.368   .     A
C1409  H1439   1.081   .     S
C1410  N1442   1.368   .     A
C1410  H1440   1.081   .     S
C1410  C1244   1.420   1_655 S
C1411  O1449   1.305   .     A
C1411  O1447   1.298   .     A
C1411  C1413   1.473   .     S
C1412  O1450   1.303   .     A
C1412  C1414   1.468   .     S
C1412  O1448   1.298   .     A
C1413  C1417   1.412   .     A
C1413  C1419   1.401   .     A
C1414  C1418   1.412   .     A
C1414  C1420   1.406   .     A
C1415  C1423   1.391   .     A
C1415  C1417   1.397   .     A
C1415  H1431   1.062   .     S
C1416  H1432   1.064   .     S
C1416  C1418   1.387   .     A
C1416  C1424   1.399   .     A
C1417  S1458   1.779   .     S
C1418  S1453   1.778   .     S
C1419  C1421   1.401   .     A
C1419  H1430   1.079   .     S
C1420  C1422   1.401   .     A
C1420  H1429   1.073   .     S
C1421  C1423   1.402   .     A
C1421  C1425   1.403   .     A
C1422  C1426   1.419   .     A
C1422  C1424   1.412   .     A
C1423  C661    1.400   1_556 S
C1425  C688    1.416   1_556 S
N1441  Zn1451  2.022   .     S
N1442  Zn1452  2.022   .     S
O1443  Zn1451  1.996   .     S
O1444  Zn1452  1.996   .     S
O1445  Zn1452  1.996   .     S
O1446  Zn1451  1.996   .     S
O1447  Zn1451  1.919   .     S
O1448  Zn1452  1.919   .     S
O1449  Zn1452  1.926   .     S
O1450  Zn1451  1.926   .     S
S1453  O1454   1.503   .     D
S1453  O1456   1.683   .     S
S1453  O1291   1.504   1_655 S
O1456  H1457   0.991   .     S
S1458  O1461   1.683   .     S
S1458  O1459   1.503   .     D
O1460  S1294   1.500   1_655 S
O1461  H1462   0.991   .     S
C1463  H1468   1.104   .     S
C1463  H1469   1.112   .     S
C1463  C1464   1.529   .     S
C1464  H1465   1.111   .     S
C1464  H1467   1.111   .     S
C1464  H1466   1.109   .     S
C1470  C1471   1.528   .     S
C1470  H1476   1.112   .     S
C1470  H1475   1.104   .     S
C1471  H1472   1.111   .     S
C1471  H1473   1.110   .     S
C1471  H1474   1.111   .     S
