data_str_m3_o2_o10_pcu_sym.89
_audit_creation_date              2020-01-03
_audit_creation_method            'Materials Studio'
_symmetry_space_group_name_H-M    'P1'
_symmetry_Int_Tables_number       1
_symmetry_cell_setting            triclinic
loop_
_symmetry_equiv_pos_as_xyz
  x,y,z
_cell_length_a                    25.7049
_cell_length_b                    30.0421
_cell_length_c                    28.4961
_cell_angle_alpha                 90.7455
_cell_angle_beta                  97.1535
_cell_angle_gamma                 91.8467
loop_
_atom_site_label
_atom_site_type_symbol
_atom_site_fract_x
_atom_site_fract_y
_atom_site_fract_z
_atom_site_U_iso_or_equiv
_atom_site_adp_type
_atom_site_occupancy
C1     C     0.16531   0.16364   0.24907   0.00000  Uiso   1.00
C2     C     0.14299   0.21793   0.44613   0.00000  Uiso   1.00
C3     C     0.16395   0.25362   0.02645   0.00000  Uiso   1.00
C4     C     0.16525   0.25411   0.47339   0.00000  Uiso   1.00
C5     C     0.06747   0.24779   0.23817   0.00000  Uiso   1.00
C6     C     0.26600   0.25161   0.26182   0.00000  Uiso   1.00
C7     C     0.01314   0.23968   0.23397   0.00000  Uiso   1.00
C8     C     0.32043   0.25971   0.26594   0.00000  Uiso   1.00
C9     C     0.13406   0.04799   0.28355   0.00000  Uiso   1.00
C10    C     0.12119   0.44759   0.21443   0.00000  Uiso   1.00
C11    C     0.14226   0.09341   0.28453   0.00000  Uiso   1.00
C12    C     0.16688   0.33613   0.25052   0.00000  Uiso   1.00
C13    C     0.12936   0.40250   0.21448   0.00000  Uiso   1.00
C14    C     0.15834   0.11521   0.24564   0.00000  Uiso   1.00
C15    C     0.16200   0.38395   0.25151   0.00000  Uiso   1.00
C16    C     0.16498   0.09043   0.20388   0.00000  Uiso   1.00
C17    C     0.18562   0.41079   0.29010   0.00000  Uiso   1.00
C18    C     0.16144   0.04372   0.20472   0.00000  Uiso   1.00
C19    C     0.18055   0.45705   0.28800   0.00000  Uiso   1.00
C20    C     0.14610   0.02296   0.24509   0.00000  Uiso   1.00
C21    C     0.14815   0.47501   0.24986   0.00000  Uiso   1.00
C22    C     0.32446   0.16109   0.22676   0.00000  Uiso   1.00
C23    C     0.11901   0.23951   0.04766   0.00000  Uiso   1.00
C24    C     0.01887   0.33669   0.27537   0.00000  Uiso   1.00
C25    C     0.17521   0.11191   0.15925   0.00000  Uiso   1.00
C26    C     0.21698   0.39168   0.33163   0.00000  Uiso   1.00
C27    C     0.22601   0.00169   0.16930   0.00000  Uiso   1.00
C28    C     0.26163   0.49951   0.31087   0.00000  Uiso   1.00
C29    C     0.04191   0.26753   0.00197   0.00000  Uiso   1.00
C30    C     0.17382   0.35884   0.48640   0.00000  Uiso   1.00
C31    C     0.25529   0.28832   0.13407   0.00000  Uiso   1.00
C32    C     0.10962   0.17981   0.37194   0.00000  Uiso   1.00
C33    C     0.18955   0.28871   0.44937   0.00000  Uiso   1.00
C34    C     0.12232   0.23653   0.09756   0.00000  Uiso   1.00
C35    C     0.19103   0.28483   0.39983   0.00000  Uiso   1.00
C36    C     0.20934   0.26631   0.10609   0.00000  Uiso   1.00
C37    C     0.14152   0.21690   0.39668   0.00000  Uiso   1.00
C38    C     0.20923   0.26579   0.05679   0.00000  Uiso   1.00
H39    H     0.12139   0.03194   0.31425   0.00000  Uiso   1.00
H40    H     0.30107   0.16197   0.25700   0.00000  Uiso   1.00
H41    H     0.03203   0.15212   0.23957   0.00000  Uiso   1.00
H42    H     0.30699   0.13491   0.20131   0.00000  Uiso   1.00
H43    H     0.32584   0.29769   0.32794   0.00000  Uiso   1.00
H44    H     0.03603   0.36158   0.30258   0.00000  Uiso   1.00
H45    H     0.31462   0.34896   0.25747   0.00000  Uiso   1.00
H46    H     0.04667   0.33346   0.24883   0.00000  Uiso   1.00
H47    H     0.22708   0.12691   0.11388   0.00000  Uiso   1.00
H48    H     0.28086   0.35862   0.35711   0.00000  Uiso   1.00
H49    H     0.16080   0.03021   0.13256   0.00000  Uiso   1.00
H50    H     0.09547   0.46146   0.18567   0.00000  Uiso   1.00
H51    H     0.23115   0.48185   0.13716   0.00000  Uiso   1.00
H52    H     0.23372   0.47982   0.20028   0.00000  Uiso   1.00
H53    H     0.25496   0.03016   0.17279   0.00000  Uiso   1.00
H54    H     0.21031   0.47695   0.35698   0.00000  Uiso   1.00
H55    H     0.28109   0.02269   0.33880   0.00000  Uiso   1.00
H56    H     0.25827   0.01724   0.27675   0.00000  Uiso   1.00
H57    H     0.28628   0.47001   0.30873   0.00000  Uiso   1.00
H58    H     0.04652   0.20663   0.03498   0.00000  Uiso   1.00
H59    H     0.00541   0.25635   0.47931   0.00000  Uiso   1.00
H60    H     0.06594   0.28826   0.48025   0.00000  Uiso   1.00
H61    H     0.13600   0.11148   0.31601   0.00000  Uiso   1.00
H62    H     0.03116   0.28795   0.03190   0.00000  Uiso   1.00
H63    H     0.24152   0.34307   0.45835   0.00000  Uiso   1.00
H64    H     0.19448   0.38738   0.00668   0.00000  Uiso   1.00
H65    H     0.14649   0.34285   0.00887   0.00000  Uiso   1.00
H66    H     0.15107   0.37156   0.45388   0.00000  Uiso   1.00
H67    H     0.00082   0.29603   0.14531   0.00000  Uiso   1.00
H68    H     0.08105   0.11664   0.37594   0.00000  Uiso   1.00
H69    H     0.10924   0.38187   0.18593   0.00000  Uiso   1.00
H70    H     0.08833   0.22507   0.11343   0.00000  Uiso   1.00
H71    H     0.21047   0.31058   0.38185   0.00000  Uiso   1.00
H72    H     0.24439   0.27649   0.04210   0.00000  Uiso   1.00
H73    H     0.12518   0.19056   0.46350   0.00000  Uiso   1.00
H74    H     0.00617   0.20196   0.17202   0.00000  Uiso   1.00
N75    N     0.16667   0.24999   0.12623   0.00000  Uiso   1.00
N76    N     0.16667   0.25001   0.37377   0.00000  Uiso   1.00
N77    N     0.32412   0.20378   0.20371   0.00000  Uiso   1.00
N78    N     0.01017   0.29439   0.29760   0.00000  Uiso   1.00
N79    N     0.17306   0.01749   0.16536   0.00000  Uiso   1.00
N80    N     0.21021   0.48603   0.32226   0.00000  Uiso   1.00
N81    N     0.07020   0.22910   0.01965   0.00000  Uiso   1.00
N82    N     0.21183   0.32764   0.47404   0.00000  Uiso   1.00
O83    O     0.16667   0.18453   0.28974   0.00000  Uiso   1.00
O84    O     0.22518   0.11129   0.14498   0.00000  Uiso   1.00
O85    O     0.20379   0.39686   0.37106   0.00000  Uiso   1.00
O86    O     0.26165   0.36818   0.32583   0.00000  Uiso   1.00
O87    O     0.24940   0.31824   0.16214   0.00000  Uiso   1.00
O88    O     0.30575   0.27765   0.12519   0.00000  Uiso   1.00
O89    O     0.08129   0.18591   0.33522   0.00000  Uiso   1.00
O90    O     0.10776   0.13835   0.39367   0.00000  Uiso   1.00
O91    O     0.16666   0.31546   0.21026   0.00000  Uiso   1.00
O92    O     0.16667   0.18453   0.21026   0.00000  Uiso   1.00
O93    O     0.16666   0.31547   0.28974   0.00000  Uiso   1.00
O94    O     0.09058   0.25000   0.28045   0.00000  Uiso   1.00
O95    O     0.24275   0.25000   0.21956   0.00000  Uiso   1.00
O96    O     0.09058   0.24999   0.20097   0.00000  Uiso   1.00
O97    O     0.24275   0.25000   0.29904   0.00000  Uiso   1.00
O98    O     0.13927   0.12894   0.13435   0.00000  Uiso   1.00
Zn99   Zn    0.16667   0.25000   0.30307   0.00000  Uiso   1.00
Zn100  Zn    0.16667   0.24999   0.19693   0.00000  Uiso   1.00
C101   C     0.49864   0.16364   0.24907   0.00000  Uiso   1.00
C102   C     0.47633   0.21793   0.44613   0.00000  Uiso   1.00
C103   C     0.49728   0.25362   0.02645   0.00000  Uiso   1.00
C104   C     0.49858   0.25411   0.47339   0.00000  Uiso   1.00
C105   C     0.40080   0.24779   0.23817   0.00000  Uiso   1.00
C106   C     0.59933   0.25161   0.26182   0.00000  Uiso   1.00
C107   C     0.34648   0.23968   0.23397   0.00000  Uiso   1.00
C108   C     0.65376   0.25971   0.26594   0.00000  Uiso   1.00
C109   C     0.46739   0.04799   0.28355   0.00000  Uiso   1.00
C110   C     0.45452   0.44759   0.21443   0.00000  Uiso   1.00
C111   C     0.47560   0.09341   0.28453   0.00000  Uiso   1.00
C112   C     0.50021   0.33613   0.25052   0.00000  Uiso   1.00
C113   C     0.46269   0.40250   0.21448   0.00000  Uiso   1.00
C114   C     0.49167   0.11521   0.24564   0.00000  Uiso   1.00
C115   C     0.49534   0.38395   0.25151   0.00000  Uiso   1.00
C116   C     0.49832   0.09043   0.20388   0.00000  Uiso   1.00
C117   C     0.51896   0.41079   0.29010   0.00000  Uiso   1.00
C118   C     0.49477   0.04372   0.20472   0.00000  Uiso   1.00
C119   C     0.51389   0.45705   0.28800   0.00000  Uiso   1.00
C120   C     0.47943   0.02296   0.24509   0.00000  Uiso   1.00
C121   C     0.48149   0.47501   0.24986   0.00000  Uiso   1.00
C122   C     0.65779   0.16109   0.22676   0.00000  Uiso   1.00
C123   C     0.45234   0.23951   0.04766   0.00000  Uiso   1.00
C124   C     0.35220   0.33669   0.27537   0.00000  Uiso   1.00
C125   C     0.50854   0.11191   0.15925   0.00000  Uiso   1.00
C126   C     0.55032   0.39168   0.33163   0.00000  Uiso   1.00
C127   C     0.55934   0.00169   0.16930   0.00000  Uiso   1.00
C128   C     0.59496   0.49951   0.31087   0.00000  Uiso   1.00
C129   C     0.37525   0.26753   0.00197   0.00000  Uiso   1.00
C130   C     0.50715   0.35884   0.48640   0.00000  Uiso   1.00
C131   C     0.58863   0.28832   0.13407   0.00000  Uiso   1.00
C132   C     0.44295   0.17981   0.37194   0.00000  Uiso   1.00
C133   C     0.52289   0.28871   0.44937   0.00000  Uiso   1.00
C134   C     0.45565   0.23653   0.09756   0.00000  Uiso   1.00
C135   C     0.52436   0.28483   0.39983   0.00000  Uiso   1.00
C136   C     0.54267   0.26631   0.10609   0.00000  Uiso   1.00
C137   C     0.47486   0.21690   0.39668   0.00000  Uiso   1.00
C138   C     0.54257   0.26579   0.05679   0.00000  Uiso   1.00
H139   H     0.45472   0.03194   0.31425   0.00000  Uiso   1.00
H140   H     0.63440   0.16197   0.25700   0.00000  Uiso   1.00
H141   H     0.36536   0.15212   0.23957   0.00000  Uiso   1.00
H142   H     0.64033   0.13491   0.20131   0.00000  Uiso   1.00
H143   H     0.65918   0.29769   0.32794   0.00000  Uiso   1.00
H144   H     0.36937   0.36158   0.30258   0.00000  Uiso   1.00
H145   H     0.64796   0.34896   0.25747   0.00000  Uiso   1.00
H146   H     0.38000   0.33346   0.24883   0.00000  Uiso   1.00
H147   H     0.56042   0.12691   0.11388   0.00000  Uiso   1.00
H148   H     0.61420   0.35862   0.35711   0.00000  Uiso   1.00
H149   H     0.49413   0.03021   0.13256   0.00000  Uiso   1.00
H150   H     0.42880   0.46146   0.18567   0.00000  Uiso   1.00
H151   H     0.56449   0.48185   0.13716   0.00000  Uiso   1.00
H152   H     0.56706   0.47982   0.20028   0.00000  Uiso   1.00
H153   H     0.58829   0.03016   0.17279   0.00000  Uiso   1.00
H154   H     0.54364   0.47695   0.35698   0.00000  Uiso   1.00
H155   H     0.61442   0.02269   0.33880   0.00000  Uiso   1.00
H156   H     0.59161   0.01724   0.27675   0.00000  Uiso   1.00
H157   H     0.61961   0.47001   0.30873   0.00000  Uiso   1.00
H158   H     0.37985   0.20663   0.03498   0.00000  Uiso   1.00
H159   H     0.33874   0.25635   0.47931   0.00000  Uiso   1.00
H160   H     0.39927   0.28826   0.48025   0.00000  Uiso   1.00
H161   H     0.46934   0.11148   0.31601   0.00000  Uiso   1.00
H162   H     0.36449   0.28795   0.03190   0.00000  Uiso   1.00
H163   H     0.57485   0.34307   0.45835   0.00000  Uiso   1.00
H164   H     0.52781   0.38738   0.00668   0.00000  Uiso   1.00
H165   H     0.47982   0.34285   0.00887   0.00000  Uiso   1.00
H166   H     0.48441   0.37156   0.45388   0.00000  Uiso   1.00
H167   H     0.33415   0.29603   0.14531   0.00000  Uiso   1.00
H168   H     0.41438   0.11664   0.37594   0.00000  Uiso   1.00
H169   H     0.44257   0.38187   0.18593   0.00000  Uiso   1.00
H170   H     0.42166   0.22507   0.11343   0.00000  Uiso   1.00
H171   H     0.54380   0.31058   0.38185   0.00000  Uiso   1.00
H172   H     0.57772   0.27649   0.04210   0.00000  Uiso   1.00
H173   H     0.45852   0.19056   0.46350   0.00000  Uiso   1.00
H174   H     0.33950   0.20196   0.17202   0.00000  Uiso   1.00
N175   N     0.50000   0.24999   0.12623   0.00000  Uiso   1.00
N176   N     0.50000   0.25001   0.37377   0.00000  Uiso   1.00
N177   N     0.65745   0.20378   0.20371   0.00000  Uiso   1.00
N178   N     0.34350   0.29439   0.29760   0.00000  Uiso   1.00
N179   N     0.50640   0.01749   0.16536   0.00000  Uiso   1.00
N180   N     0.54355   0.48603   0.32226   0.00000  Uiso   1.00
N181   N     0.40353   0.22910   0.01965   0.00000  Uiso   1.00
N182   N     0.54516   0.32764   0.47404   0.00000  Uiso   1.00
O183   O     0.50000   0.18453   0.28974   0.00000  Uiso   1.00
O184   O     0.55852   0.11129   0.14498   0.00000  Uiso   1.00
O185   O     0.53712   0.39686   0.37106   0.00000  Uiso   1.00
O186   O     0.59498   0.36818   0.32583   0.00000  Uiso   1.00
O187   O     0.58273   0.31824   0.16214   0.00000  Uiso   1.00
O188   O     0.63908   0.27765   0.12519   0.00000  Uiso   1.00
O189   O     0.41462   0.18591   0.33522   0.00000  Uiso   1.00
O190   O     0.44109   0.13835   0.39367   0.00000  Uiso   1.00
O191   O     0.50000   0.31546   0.21026   0.00000  Uiso   1.00
O192   O     0.50000   0.18453   0.21026   0.00000  Uiso   1.00
O193   O     0.50000   0.31547   0.28974   0.00000  Uiso   1.00
O194   O     0.42392   0.25000   0.28045   0.00000  Uiso   1.00
O195   O     0.57608   0.25000   0.21956   0.00000  Uiso   1.00
O196   O     0.42392   0.24999   0.20097   0.00000  Uiso   1.00
O197   O     0.57608   0.25000   0.29904   0.00000  Uiso   1.00
O198   O     0.47260   0.12894   0.13435   0.00000  Uiso   1.00
Zn199  Zn    0.50000   0.25000   0.30307   0.00000  Uiso   1.00
Zn200  Zn    0.50000   0.24999   0.19693   0.00000  Uiso   1.00
C201   C     0.83198   0.16364   0.24907   0.00000  Uiso   1.00
C202   C     0.80966   0.21793   0.44613   0.00000  Uiso   1.00
C203   C     0.83061   0.25362   0.02645   0.00000  Uiso   1.00
C204   C     0.83191   0.25411   0.47339   0.00000  Uiso   1.00
C205   C     0.73413   0.24779   0.23817   0.00000  Uiso   1.00
C206   C     0.93267   0.25161   0.26182   0.00000  Uiso   1.00
C207   C     0.67981   0.23968   0.23397   0.00000  Uiso   1.00
C208   C     0.98710   0.25971   0.26594   0.00000  Uiso   1.00
C209   C     0.80073   0.04799   0.28355   0.00000  Uiso   1.00
C210   C     0.78786   0.44759   0.21443   0.00000  Uiso   1.00
C211   C     0.80893   0.09341   0.28453   0.00000  Uiso   1.00
C212   C     0.83355   0.33613   0.25052   0.00000  Uiso   1.00
C213   C     0.79603   0.40250   0.21448   0.00000  Uiso   1.00
C214   C     0.82501   0.11521   0.24564   0.00000  Uiso   1.00
C215   C     0.82867   0.38395   0.25151   0.00000  Uiso   1.00
C216   C     0.83165   0.09043   0.20388   0.00000  Uiso   1.00
C217   C     0.85229   0.41079   0.29010   0.00000  Uiso   1.00
C218   C     0.82811   0.04372   0.20472   0.00000  Uiso   1.00
C219   C     0.84722   0.45705   0.28800   0.00000  Uiso   1.00
C220   C     0.81276   0.02296   0.24509   0.00000  Uiso   1.00
C221   C     0.81482   0.47501   0.24986   0.00000  Uiso   1.00
C222   C     0.99112   0.16109   0.22676   0.00000  Uiso   1.00
C223   C     0.78567   0.23951   0.04766   0.00000  Uiso   1.00
C224   C     0.68554   0.33669   0.27537   0.00000  Uiso   1.00
C225   C     0.84187   0.11191   0.15925   0.00000  Uiso   1.00
C226   C     0.88365   0.39168   0.33163   0.00000  Uiso   1.00
C227   C     0.89267   0.00169   0.16930   0.00000  Uiso   1.00
C228   C     0.92829   0.49951   0.31087   0.00000  Uiso   1.00
C229   C     0.70858   0.26753   0.00197   0.00000  Uiso   1.00
C230   C     0.84048   0.35884   0.48640   0.00000  Uiso   1.00
C231   C     0.92196   0.28832   0.13407   0.00000  Uiso   1.00
C232   C     0.77629   0.17981   0.37194   0.00000  Uiso   1.00
C233   C     0.85622   0.28871   0.44937   0.00000  Uiso   1.00
C234   C     0.78899   0.23653   0.09756   0.00000  Uiso   1.00
C235   C     0.85770   0.28483   0.39983   0.00000  Uiso   1.00
C236   C     0.87601   0.26631   0.10609   0.00000  Uiso   1.00
C237   C     0.80819   0.21690   0.39668   0.00000  Uiso   1.00
C238   C     0.87590   0.26579   0.05679   0.00000  Uiso   1.00
H239   H     0.78806   0.03194   0.31425   0.00000  Uiso   1.00
H240   H     0.96774   0.16197   0.25700   0.00000  Uiso   1.00
H241   H     0.69870   0.15212   0.23957   0.00000  Uiso   1.00
H242   H     0.97366   0.13491   0.20131   0.00000  Uiso   1.00
H243   H     0.99251   0.29769   0.32794   0.00000  Uiso   1.00
H244   H     0.70270   0.36158   0.30258   0.00000  Uiso   1.00
H245   H     0.98129   0.34896   0.25747   0.00000  Uiso   1.00
H246   H     0.71334   0.33346   0.24883   0.00000  Uiso   1.00
H247   H     0.89375   0.12691   0.11388   0.00000  Uiso   1.00
H248   H     0.94753   0.35862   0.35711   0.00000  Uiso   1.00
H249   H     0.82747   0.03021   0.13256   0.00000  Uiso   1.00
H250   H     0.76213   0.46146   0.18567   0.00000  Uiso   1.00
H251   H     0.89782   0.48185   0.13716   0.00000  Uiso   1.00
H252   H     0.90039   0.47982   0.20028   0.00000  Uiso   1.00
H253   H     0.92162   0.03016   0.17279   0.00000  Uiso   1.00
H254   H     0.87697   0.47695   0.35698   0.00000  Uiso   1.00
H255   H     0.94775   0.02269   0.33880   0.00000  Uiso   1.00
H256   H     0.92494   0.01724   0.27675   0.00000  Uiso   1.00
H257   H     0.95294   0.47001   0.30873   0.00000  Uiso   1.00
H258   H     0.71318   0.20663   0.03498   0.00000  Uiso   1.00
H259   H     0.67208   0.25635   0.47931   0.00000  Uiso   1.00
H260   H     0.73261   0.28826   0.48025   0.00000  Uiso   1.00
H261   H     0.80267   0.11148   0.31601   0.00000  Uiso   1.00
H262   H     0.69783   0.28795   0.03190   0.00000  Uiso   1.00
H263   H     0.90818   0.34307   0.45835   0.00000  Uiso   1.00
H264   H     0.86114   0.38738   0.00668   0.00000  Uiso   1.00
H265   H     0.81316   0.34285   0.00887   0.00000  Uiso   1.00
H266   H     0.81774   0.37156   0.45388   0.00000  Uiso   1.00
H267   H     0.66748   0.29603   0.14531   0.00000  Uiso   1.00
H268   H     0.74771   0.11664   0.37594   0.00000  Uiso   1.00
H269   H     0.77591   0.38187   0.18593   0.00000  Uiso   1.00
H270   H     0.75500   0.22507   0.11343   0.00000  Uiso   1.00
H271   H     0.87713   0.31058   0.38185   0.00000  Uiso   1.00
H272   H     0.91106   0.27649   0.04210   0.00000  Uiso   1.00
H273   H     0.79185   0.19056   0.46350   0.00000  Uiso   1.00
H274   H     0.67284   0.20196   0.17202   0.00000  Uiso   1.00
N275   N     0.83333   0.24999   0.12623   0.00000  Uiso   1.00
N276   N     0.83333   0.25001   0.37377   0.00000  Uiso   1.00
N277   N     0.99078   0.20378   0.20371   0.00000  Uiso   1.00
N278   N     0.67684   0.29439   0.29760   0.00000  Uiso   1.00
N279   N     0.83973   0.01749   0.16536   0.00000  Uiso   1.00
N280   N     0.87688   0.48603   0.32226   0.00000  Uiso   1.00
N281   N     0.73687   0.22910   0.01965   0.00000  Uiso   1.00
N282   N     0.87850   0.32764   0.47404   0.00000  Uiso   1.00
O283   O     0.83334   0.18453   0.28974   0.00000  Uiso   1.00
O284   O     0.89185   0.11129   0.14498   0.00000  Uiso   1.00
O285   O     0.87046   0.39686   0.37106   0.00000  Uiso   1.00
O286   O     0.92831   0.36818   0.32583   0.00000  Uiso   1.00
O287   O     0.91607   0.31824   0.16214   0.00000  Uiso   1.00
O288   O     0.97241   0.27765   0.12519   0.00000  Uiso   1.00
O289   O     0.74795   0.18591   0.33522   0.00000  Uiso   1.00
O290   O     0.77443   0.13835   0.39367   0.00000  Uiso   1.00
O291   O     0.83333   0.31546   0.21026   0.00000  Uiso   1.00
O292   O     0.83334   0.18453   0.21026   0.00000  Uiso   1.00
O293   O     0.83333   0.31547   0.28974   0.00000  Uiso   1.00
O294   O     0.75725   0.25000   0.28045   0.00000  Uiso   1.00
O295   O     0.90942   0.25000   0.21956   0.00000  Uiso   1.00
O296   O     0.75725   0.24999   0.20097   0.00000  Uiso   1.00
O297   O     0.90942   0.25000   0.29904   0.00000  Uiso   1.00
O298   O     0.80593   0.12894   0.13435   0.00000  Uiso   1.00
Zn299  Zn    0.83333   0.25000   0.30307   0.00000  Uiso   1.00
Zn300  Zn    0.83333   0.24999   0.19693   0.00000  Uiso   1.00
C301   C     0.16531   0.66364   0.24907   0.00000  Uiso   1.00
C302   C     0.14299   0.71793   0.44613   0.00000  Uiso   1.00
C303   C     0.16395   0.75362   0.02645   0.00000  Uiso   1.00
C304   C     0.16525   0.75411   0.47339   0.00000  Uiso   1.00
C305   C     0.06747   0.74779   0.23817   0.00000  Uiso   1.00
C306   C     0.26600   0.75161   0.26182   0.00000  Uiso   1.00
C307   C     0.01314   0.73968   0.23397   0.00000  Uiso   1.00
C308   C     0.32043   0.75971   0.26594   0.00000  Uiso   1.00
C309   C     0.13406   0.54799   0.28355   0.00000  Uiso   1.00
C310   C     0.12119   0.94759   0.21443   0.00000  Uiso   1.00
C311   C     0.14226   0.59341   0.28453   0.00000  Uiso   1.00
C312   C     0.16688   0.83613   0.25052   0.00000  Uiso   1.00
C313   C     0.12936   0.90250   0.21448   0.00000  Uiso   1.00
C314   C     0.15834   0.61521   0.24564   0.00000  Uiso   1.00
C315   C     0.16200   0.88395   0.25151   0.00000  Uiso   1.00
C316   C     0.16498   0.59043   0.20388   0.00000  Uiso   1.00
C317   C     0.18562   0.91079   0.29010   0.00000  Uiso   1.00
C318   C     0.16144   0.54372   0.20472   0.00000  Uiso   1.00
C319   C     0.18055   0.95705   0.28800   0.00000  Uiso   1.00
C320   C     0.14610   0.52296   0.24509   0.00000  Uiso   1.00
C321   C     0.14815   0.97501   0.24986   0.00000  Uiso   1.00
C322   C     0.32446   0.66109   0.22676   0.00000  Uiso   1.00
C323   C     0.11901   0.73951   0.04766   0.00000  Uiso   1.00
C324   C     0.01887   0.83669   0.27537   0.00000  Uiso   1.00
C325   C     0.17521   0.61191   0.15925   0.00000  Uiso   1.00
C326   C     0.21698   0.89168   0.33163   0.00000  Uiso   1.00
C327   C     0.22601   0.50169   0.16930   0.00000  Uiso   1.00
C328   C     0.26163   0.99951   0.31087   0.00000  Uiso   1.00
C329   C     0.04191   0.76753   0.00197   0.00000  Uiso   1.00
C330   C     0.17382   0.85884   0.48640   0.00000  Uiso   1.00
C331   C     0.25529   0.78832   0.13407   0.00000  Uiso   1.00
C332   C     0.10962   0.67981   0.37194   0.00000  Uiso   1.00
C333   C     0.18955   0.78871   0.44937   0.00000  Uiso   1.00
C334   C     0.12232   0.73653   0.09756   0.00000  Uiso   1.00
C335   C     0.19103   0.78483   0.39983   0.00000  Uiso   1.00
C336   C     0.20934   0.76631   0.10609   0.00000  Uiso   1.00
C337   C     0.14152   0.71690   0.39668   0.00000  Uiso   1.00
C338   C     0.20923   0.76579   0.05679   0.00000  Uiso   1.00
H339   H     0.12139   0.53194   0.31425   0.00000  Uiso   1.00
H340   H     0.30107   0.66197   0.25700   0.00000  Uiso   1.00
H341   H     0.03203   0.65212   0.23957   0.00000  Uiso   1.00
H342   H     0.30699   0.63491   0.20131   0.00000  Uiso   1.00
H343   H     0.32584   0.79769   0.32794   0.00000  Uiso   1.00
H344   H     0.03603   0.86158   0.30258   0.00000  Uiso   1.00
H345   H     0.31462   0.84896   0.25747   0.00000  Uiso   1.00
H346   H     0.04667   0.83346   0.24883   0.00000  Uiso   1.00
H347   H     0.22708   0.62691   0.11388   0.00000  Uiso   1.00
H348   H     0.28086   0.85862   0.35711   0.00000  Uiso   1.00
H349   H     0.16080   0.53021   0.13256   0.00000  Uiso   1.00
H350   H     0.09547   0.96146   0.18567   0.00000  Uiso   1.00
H351   H     0.23115   0.98185   0.13716   0.00000  Uiso   1.00
H352   H     0.23372   0.97982   0.20028   0.00000  Uiso   1.00
H353   H     0.25496   0.53016   0.17279   0.00000  Uiso   1.00
H354   H     0.21031   0.97695   0.35698   0.00000  Uiso   1.00
H355   H     0.28109   0.52269   0.33880   0.00000  Uiso   1.00
H356   H     0.25827   0.51724   0.27675   0.00000  Uiso   1.00
H357   H     0.28628   0.97001   0.30873   0.00000  Uiso   1.00
H358   H     0.04652   0.70663   0.03498   0.00000  Uiso   1.00
H359   H     0.00541   0.75635   0.47931   0.00000  Uiso   1.00
H360   H     0.06594   0.78826   0.48025   0.00000  Uiso   1.00
H361   H     0.13600   0.61148   0.31601   0.00000  Uiso   1.00
H362   H     0.03116   0.78795   0.03190   0.00000  Uiso   1.00
H363   H     0.24152   0.84307   0.45835   0.00000  Uiso   1.00
H364   H     0.19448   0.88738   0.00668   0.00000  Uiso   1.00
H365   H     0.14649   0.84285   0.00887   0.00000  Uiso   1.00
H366   H     0.15107   0.87156   0.45388   0.00000  Uiso   1.00
H367   H     0.00082   0.79603   0.14531   0.00000  Uiso   1.00
H368   H     0.08105   0.61664   0.37594   0.00000  Uiso   1.00
H369   H     0.10924   0.88187   0.18593   0.00000  Uiso   1.00
H370   H     0.08833   0.72507   0.11343   0.00000  Uiso   1.00
H371   H     0.21047   0.81058   0.38185   0.00000  Uiso   1.00
H372   H     0.24439   0.77649   0.04210   0.00000  Uiso   1.00
H373   H     0.12518   0.69056   0.46350   0.00000  Uiso   1.00
H374   H     0.00617   0.70196   0.17202   0.00000  Uiso   1.00
N375   N     0.16667   0.74999   0.12623   0.00000  Uiso   1.00
N376   N     0.16667   0.75001   0.37377   0.00000  Uiso   1.00
N377   N     0.32412   0.70378   0.20371   0.00000  Uiso   1.00
N378   N     0.01017   0.79439   0.29760   0.00000  Uiso   1.00
N379   N     0.17306   0.51749   0.16536   0.00000  Uiso   1.00
N380   N     0.21021   0.98603   0.32226   0.00000  Uiso   1.00
N381   N     0.07020   0.72910   0.01965   0.00000  Uiso   1.00
N382   N     0.21183   0.82764   0.47404   0.00000  Uiso   1.00
O383   O     0.16667   0.68453   0.28974   0.00000  Uiso   1.00
O384   O     0.22518   0.61129   0.14498   0.00000  Uiso   1.00
O385   O     0.20379   0.89686   0.37106   0.00000  Uiso   1.00
O386   O     0.26165   0.86818   0.32583   0.00000  Uiso   1.00
O387   O     0.24940   0.81824   0.16214   0.00000  Uiso   1.00
O388   O     0.30575   0.77765   0.12519   0.00000  Uiso   1.00
O389   O     0.08129   0.68591   0.33522   0.00000  Uiso   1.00
O390   O     0.10776   0.63835   0.39367   0.00000  Uiso   1.00
O391   O     0.16666   0.81546   0.21026   0.00000  Uiso   1.00
O392   O     0.16667   0.68453   0.21026   0.00000  Uiso   1.00
O393   O     0.16666   0.81547   0.28974   0.00000  Uiso   1.00
O394   O     0.09058   0.75000   0.28045   0.00000  Uiso   1.00
O395   O     0.24275   0.75000   0.21956   0.00000  Uiso   1.00
O396   O     0.09058   0.74999   0.20097   0.00000  Uiso   1.00
O397   O     0.24275   0.75000   0.29904   0.00000  Uiso   1.00
O398   O     0.13927   0.62894   0.13435   0.00000  Uiso   1.00
Zn399  Zn    0.16667   0.75000   0.30307   0.00000  Uiso   1.00
Zn400  Zn    0.16667   0.74999   0.19693   0.00000  Uiso   1.00
C401   C     0.49864   0.66364   0.24907   0.00000  Uiso   1.00
C402   C     0.47633   0.71793   0.44613   0.00000  Uiso   1.00
C403   C     0.49728   0.75362   0.02645   0.00000  Uiso   1.00
C404   C     0.49858   0.75411   0.47339   0.00000  Uiso   1.00
C405   C     0.40080   0.74779   0.23817   0.00000  Uiso   1.00
C406   C     0.59933   0.75161   0.26182   0.00000  Uiso   1.00
C407   C     0.34648   0.73968   0.23397   0.00000  Uiso   1.00
C408   C     0.65376   0.75971   0.26594   0.00000  Uiso   1.00
C409   C     0.46739   0.54799   0.28355   0.00000  Uiso   1.00
C410   C     0.45452   0.94759   0.21443   0.00000  Uiso   1.00
C411   C     0.47560   0.59341   0.28453   0.00000  Uiso   1.00
C412   C     0.50021   0.83613   0.25052   0.00000  Uiso   1.00
C413   C     0.46269   0.90250   0.21448   0.00000  Uiso   1.00
C414   C     0.49167   0.61521   0.24564   0.00000  Uiso   1.00
C415   C     0.49534   0.88395   0.25151   0.00000  Uiso   1.00
C416   C     0.49832   0.59043   0.20388   0.00000  Uiso   1.00
C417   C     0.51896   0.91079   0.29010   0.00000  Uiso   1.00
C418   C     0.49477   0.54372   0.20472   0.00000  Uiso   1.00
C419   C     0.51389   0.95705   0.28800   0.00000  Uiso   1.00
C420   C     0.47943   0.52296   0.24509   0.00000  Uiso   1.00
C421   C     0.48149   0.97501   0.24986   0.00000  Uiso   1.00
C422   C     0.65779   0.66109   0.22676   0.00000  Uiso   1.00
C423   C     0.45234   0.73951   0.04766   0.00000  Uiso   1.00
C424   C     0.35220   0.83669   0.27537   0.00000  Uiso   1.00
C425   C     0.50854   0.61191   0.15925   0.00000  Uiso   1.00
C426   C     0.55032   0.89168   0.33163   0.00000  Uiso   1.00
C427   C     0.55934   0.50169   0.16930   0.00000  Uiso   1.00
C428   C     0.59496   0.99951   0.31087   0.00000  Uiso   1.00
C429   C     0.37525   0.76753   0.00197   0.00000  Uiso   1.00
C430   C     0.50715   0.85884   0.48640   0.00000  Uiso   1.00
C431   C     0.58863   0.78832   0.13407   0.00000  Uiso   1.00
C432   C     0.44295   0.67981   0.37194   0.00000  Uiso   1.00
C433   C     0.52289   0.78871   0.44937   0.00000  Uiso   1.00
C434   C     0.45565   0.73653   0.09756   0.00000  Uiso   1.00
C435   C     0.52436   0.78483   0.39983   0.00000  Uiso   1.00
C436   C     0.54267   0.76631   0.10609   0.00000  Uiso   1.00
C437   C     0.47486   0.71690   0.39668   0.00000  Uiso   1.00
C438   C     0.54257   0.76579   0.05679   0.00000  Uiso   1.00
H439   H     0.45472   0.53194   0.31425   0.00000  Uiso   1.00
H440   H     0.63440   0.66197   0.25700   0.00000  Uiso   1.00
H441   H     0.36536   0.65212   0.23957   0.00000  Uiso   1.00
H442   H     0.64033   0.63491   0.20131   0.00000  Uiso   1.00
H443   H     0.65918   0.79769   0.32794   0.00000  Uiso   1.00
H444   H     0.36937   0.86158   0.30258   0.00000  Uiso   1.00
H445   H     0.64796   0.84896   0.25747   0.00000  Uiso   1.00
H446   H     0.38000   0.83346   0.24883   0.00000  Uiso   1.00
H447   H     0.56042   0.62691   0.11388   0.00000  Uiso   1.00
H448   H     0.61420   0.85862   0.35711   0.00000  Uiso   1.00
H449   H     0.49413   0.53021   0.13256   0.00000  Uiso   1.00
H450   H     0.42880   0.96146   0.18567   0.00000  Uiso   1.00
H451   H     0.56449   0.98185   0.13716   0.00000  Uiso   1.00
H452   H     0.56706   0.97982   0.20028   0.00000  Uiso   1.00
H453   H     0.58829   0.53016   0.17279   0.00000  Uiso   1.00
H454   H     0.54364   0.97695   0.35698   0.00000  Uiso   1.00
H455   H     0.61442   0.52269   0.33880   0.00000  Uiso   1.00
H456   H     0.59161   0.51724   0.27675   0.00000  Uiso   1.00
H457   H     0.61961   0.97001   0.30873   0.00000  Uiso   1.00
H458   H     0.37985   0.70663   0.03498   0.00000  Uiso   1.00
H459   H     0.33874   0.75635   0.47931   0.00000  Uiso   1.00
H460   H     0.39927   0.78826   0.48025   0.00000  Uiso   1.00
H461   H     0.46934   0.61148   0.31601   0.00000  Uiso   1.00
H462   H     0.36449   0.78795   0.03190   0.00000  Uiso   1.00
H463   H     0.57485   0.84307   0.45835   0.00000  Uiso   1.00
H464   H     0.52781   0.88738   0.00668   0.00000  Uiso   1.00
H465   H     0.47982   0.84285   0.00887   0.00000  Uiso   1.00
H466   H     0.48441   0.87156   0.45388   0.00000  Uiso   1.00
H467   H     0.33415   0.79603   0.14531   0.00000  Uiso   1.00
H468   H     0.41438   0.61664   0.37594   0.00000  Uiso   1.00
H469   H     0.44257   0.88187   0.18593   0.00000  Uiso   1.00
H470   H     0.42166   0.72507   0.11343   0.00000  Uiso   1.00
H471   H     0.54380   0.81058   0.38185   0.00000  Uiso   1.00
H472   H     0.57772   0.77649   0.04210   0.00000  Uiso   1.00
H473   H     0.45852   0.69056   0.46350   0.00000  Uiso   1.00
H474   H     0.33950   0.70196   0.17202   0.00000  Uiso   1.00
N475   N     0.50000   0.74999   0.12623   0.00000  Uiso   1.00
N476   N     0.50000   0.75001   0.37377   0.00000  Uiso   1.00
N477   N     0.65745   0.70378   0.20371   0.00000  Uiso   1.00
N478   N     0.34350   0.79439   0.29760   0.00000  Uiso   1.00
N479   N     0.50640   0.51749   0.16536   0.00000  Uiso   1.00
N480   N     0.54355   0.98603   0.32226   0.00000  Uiso   1.00
N481   N     0.40353   0.72910   0.01965   0.00000  Uiso   1.00
N482   N     0.54516   0.82764   0.47404   0.00000  Uiso   1.00
O483   O     0.50000   0.68453   0.28974   0.00000  Uiso   1.00
O484   O     0.55852   0.61129   0.14498   0.00000  Uiso   1.00
O485   O     0.53712   0.89686   0.37106   0.00000  Uiso   1.00
O486   O     0.59498   0.86818   0.32583   0.00000  Uiso   1.00
O487   O     0.58273   0.81824   0.16214   0.00000  Uiso   1.00
O488   O     0.63908   0.77765   0.12519   0.00000  Uiso   1.00
O489   O     0.41462   0.68591   0.33522   0.00000  Uiso   1.00
O490   O     0.44109   0.63835   0.39367   0.00000  Uiso   1.00
O491   O     0.50000   0.81546   0.21026   0.00000  Uiso   1.00
O492   O     0.50000   0.68453   0.21026   0.00000  Uiso   1.00
O493   O     0.50000   0.81547   0.28974   0.00000  Uiso   1.00
O494   O     0.42392   0.75000   0.28045   0.00000  Uiso   1.00
O495   O     0.57608   0.75000   0.21956   0.00000  Uiso   1.00
O496   O     0.42392   0.74999   0.20097   0.00000  Uiso   1.00
O497   O     0.57608   0.75000   0.29904   0.00000  Uiso   1.00
O498   O     0.47260   0.62894   0.13435   0.00000  Uiso   1.00
Zn499  Zn    0.50000   0.75000   0.30307   0.00000  Uiso   1.00
Zn500  Zn    0.50000   0.74999   0.19693   0.00000  Uiso   1.00
C501   C     0.83198   0.66364   0.24907   0.00000  Uiso   1.00
C502   C     0.80966   0.71793   0.44613   0.00000  Uiso   1.00
C503   C     0.83061   0.75362   0.02645   0.00000  Uiso   1.00
C504   C     0.83191   0.75411   0.47339   0.00000  Uiso   1.00
C505   C     0.73413   0.74779   0.23817   0.00000  Uiso   1.00
C506   C     0.93267   0.75161   0.26182   0.00000  Uiso   1.00
C507   C     0.67981   0.73968   0.23397   0.00000  Uiso   1.00
C508   C     0.98710   0.75971   0.26594   0.00000  Uiso   1.00
C509   C     0.80073   0.54799   0.28355   0.00000  Uiso   1.00
C510   C     0.78786   0.94759   0.21443   0.00000  Uiso   1.00
C511   C     0.80893   0.59341   0.28453   0.00000  Uiso   1.00
C512   C     0.83355   0.83613   0.25052   0.00000  Uiso   1.00
C513   C     0.79603   0.90250   0.21448   0.00000  Uiso   1.00
C514   C     0.82501   0.61521   0.24564   0.00000  Uiso   1.00
C515   C     0.82867   0.88395   0.25151   0.00000  Uiso   1.00
C516   C     0.83165   0.59043   0.20388   0.00000  Uiso   1.00
C517   C     0.85229   0.91079   0.29010   0.00000  Uiso   1.00
C518   C     0.82811   0.54372   0.20472   0.00000  Uiso   1.00
C519   C     0.84722   0.95705   0.28800   0.00000  Uiso   1.00
C520   C     0.81276   0.52296   0.24509   0.00000  Uiso   1.00
C521   C     0.81482   0.97501   0.24986   0.00000  Uiso   1.00
C522   C     0.99112   0.66109   0.22676   0.00000  Uiso   1.00
C523   C     0.78567   0.73951   0.04766   0.00000  Uiso   1.00
C524   C     0.68554   0.83669   0.27537   0.00000  Uiso   1.00
C525   C     0.84187   0.61191   0.15925   0.00000  Uiso   1.00
C526   C     0.88365   0.89168   0.33163   0.00000  Uiso   1.00
C527   C     0.89267   0.50169   0.16930   0.00000  Uiso   1.00
C528   C     0.92829   0.99951   0.31087   0.00000  Uiso   1.00
C529   C     0.70858   0.76753   0.00197   0.00000  Uiso   1.00
C530   C     0.84048   0.85884   0.48640   0.00000  Uiso   1.00
C531   C     0.92196   0.78832   0.13407   0.00000  Uiso   1.00
C532   C     0.77629   0.67981   0.37194   0.00000  Uiso   1.00
C533   C     0.85622   0.78871   0.44937   0.00000  Uiso   1.00
C534   C     0.78899   0.73653   0.09756   0.00000  Uiso   1.00
C535   C     0.85770   0.78483   0.39983   0.00000  Uiso   1.00
C536   C     0.87601   0.76631   0.10609   0.00000  Uiso   1.00
C537   C     0.80819   0.71690   0.39668   0.00000  Uiso   1.00
C538   C     0.87590   0.76579   0.05679   0.00000  Uiso   1.00
H539   H     0.78806   0.53194   0.31425   0.00000  Uiso   1.00
H540   H     0.96774   0.66197   0.25700   0.00000  Uiso   1.00
H541   H     0.69870   0.65212   0.23957   0.00000  Uiso   1.00
H542   H     0.97366   0.63491   0.20131   0.00000  Uiso   1.00
H543   H     0.99251   0.79769   0.32794   0.00000  Uiso   1.00
H544   H     0.70270   0.86158   0.30258   0.00000  Uiso   1.00
H545   H     0.98129   0.84896   0.25747   0.00000  Uiso   1.00
H546   H     0.71334   0.83346   0.24883   0.00000  Uiso   1.00
H547   H     0.89375   0.62691   0.11388   0.00000  Uiso   1.00
H548   H     0.94753   0.85862   0.35711   0.00000  Uiso   1.00
H549   H     0.82747   0.53021   0.13256   0.00000  Uiso   1.00
H550   H     0.76213   0.96146   0.18567   0.00000  Uiso   1.00
H551   H     0.89782   0.98185   0.13716   0.00000  Uiso   1.00
H552   H     0.90039   0.97982   0.20028   0.00000  Uiso   1.00
H553   H     0.92162   0.53016   0.17279   0.00000  Uiso   1.00
H554   H     0.87697   0.97695   0.35698   0.00000  Uiso   1.00
H555   H     0.94775   0.52269   0.33880   0.00000  Uiso   1.00
H556   H     0.92494   0.51724   0.27675   0.00000  Uiso   1.00
H557   H     0.95294   0.97001   0.30873   0.00000  Uiso   1.00
H558   H     0.71318   0.70663   0.03498   0.00000  Uiso   1.00
H559   H     0.67208   0.75635   0.47931   0.00000  Uiso   1.00
H560   H     0.73261   0.78826   0.48025   0.00000  Uiso   1.00
H561   H     0.80267   0.61148   0.31601   0.00000  Uiso   1.00
H562   H     0.69783   0.78795   0.03190   0.00000  Uiso   1.00
H563   H     0.90818   0.84307   0.45835   0.00000  Uiso   1.00
H564   H     0.86114   0.88738   0.00668   0.00000  Uiso   1.00
H565   H     0.81316   0.84285   0.00887   0.00000  Uiso   1.00
H566   H     0.81774   0.87156   0.45388   0.00000  Uiso   1.00
H567   H     0.66748   0.79603   0.14531   0.00000  Uiso   1.00
H568   H     0.74771   0.61664   0.37594   0.00000  Uiso   1.00
H569   H     0.77591   0.88187   0.18593   0.00000  Uiso   1.00
H570   H     0.75500   0.72507   0.11343   0.00000  Uiso   1.00
H571   H     0.87713   0.81058   0.38185   0.00000  Uiso   1.00
H572   H     0.91106   0.77649   0.04210   0.00000  Uiso   1.00
H573   H     0.79185   0.69056   0.46350   0.00000  Uiso   1.00
H574   H     0.67284   0.70196   0.17202   0.00000  Uiso   1.00
N575   N     0.83333   0.74999   0.12623   0.00000  Uiso   1.00
N576   N     0.83333   0.75001   0.37377   0.00000  Uiso   1.00
N577   N     0.99078   0.70378   0.20371   0.00000  Uiso   1.00
N578   N     0.67684   0.79439   0.29760   0.00000  Uiso   1.00
N579   N     0.83973   0.51749   0.16536   0.00000  Uiso   1.00
N580   N     0.87688   0.98603   0.32226   0.00000  Uiso   1.00
N581   N     0.73687   0.72910   0.01965   0.00000  Uiso   1.00
N582   N     0.87850   0.82764   0.47404   0.00000  Uiso   1.00
O583   O     0.83334   0.68453   0.28974   0.00000  Uiso   1.00
O584   O     0.89185   0.61129   0.14498   0.00000  Uiso   1.00
O585   O     0.87046   0.89686   0.37106   0.00000  Uiso   1.00
O586   O     0.92831   0.86818   0.32583   0.00000  Uiso   1.00
O587   O     0.91607   0.81824   0.16214   0.00000  Uiso   1.00
O588   O     0.97241   0.77765   0.12519   0.00000  Uiso   1.00
O589   O     0.74795   0.68591   0.33522   0.00000  Uiso   1.00
O590   O     0.77443   0.63835   0.39367   0.00000  Uiso   1.00
O591   O     0.83333   0.81546   0.21026   0.00000  Uiso   1.00
O592   O     0.83334   0.68453   0.21026   0.00000  Uiso   1.00
O593   O     0.83333   0.81547   0.28974   0.00000  Uiso   1.00
O594   O     0.75725   0.75000   0.28045   0.00000  Uiso   1.00
O595   O     0.90942   0.75000   0.21956   0.00000  Uiso   1.00
O596   O     0.75725   0.74999   0.20097   0.00000  Uiso   1.00
O597   O     0.90942   0.75000   0.29904   0.00000  Uiso   1.00
O598   O     0.80593   0.62894   0.13435   0.00000  Uiso   1.00
Zn599  Zn    0.83333   0.75000   0.30307   0.00000  Uiso   1.00
Zn600  Zn    0.83333   0.74999   0.19693   0.00000  Uiso   1.00
C601   C     0.16531   0.16364   0.74907   0.00000  Uiso   1.00
C602   C     0.14299   0.21793   0.94613   0.00000  Uiso   1.00
C603   C     0.16395   0.25362   0.52645   0.00000  Uiso   1.00
C604   C     0.16525   0.25411   0.97339   0.00000  Uiso   1.00
C605   C     0.06747   0.24779   0.73817   0.00000  Uiso   1.00
C606   C     0.26600   0.25161   0.76182   0.00000  Uiso   1.00
C607   C     0.01314   0.23968   0.73397   0.00000  Uiso   1.00
C608   C     0.32043   0.25971   0.76594   0.00000  Uiso   1.00
C609   C     0.13406   0.04799   0.78355   0.00000  Uiso   1.00
C610   C     0.12119   0.44759   0.71443   0.00000  Uiso   1.00
C611   C     0.14226   0.09341   0.78453   0.00000  Uiso   1.00
C612   C     0.16688   0.33613   0.75052   0.00000  Uiso   1.00
C613   C     0.12936   0.40250   0.71448   0.00000  Uiso   1.00
C614   C     0.15834   0.11521   0.74564   0.00000  Uiso   1.00
C615   C     0.16200   0.38395   0.75151   0.00000  Uiso   1.00
C616   C     0.16498   0.09043   0.70388   0.00000  Uiso   1.00
C617   C     0.18562   0.41079   0.79010   0.00000  Uiso   1.00
C618   C     0.16144   0.04372   0.70472   0.00000  Uiso   1.00
C619   C     0.18055   0.45705   0.78800   0.00000  Uiso   1.00
C620   C     0.14610   0.02296   0.74509   0.00000  Uiso   1.00
C621   C     0.14815   0.47501   0.74986   0.00000  Uiso   1.00
C622   C     0.32446   0.16109   0.72676   0.00000  Uiso   1.00
C623   C     0.11901   0.23951   0.54766   0.00000  Uiso   1.00
C624   C     0.01887   0.33669   0.77537   0.00000  Uiso   1.00
C625   C     0.17521   0.11191   0.65925   0.00000  Uiso   1.00
C626   C     0.21698   0.39168   0.83163   0.00000  Uiso   1.00
C627   C     0.22601   0.00169   0.66930   0.00000  Uiso   1.00
C628   C     0.26163   0.49951   0.81087   0.00000  Uiso   1.00
C629   C     0.04191   0.26753   0.50197   0.00000  Uiso   1.00
C630   C     0.17382   0.35884   0.98640   0.00000  Uiso   1.00
C631   C     0.25529   0.28832   0.63407   0.00000  Uiso   1.00
C632   C     0.10962   0.17981   0.87194   0.00000  Uiso   1.00
C633   C     0.18955   0.28871   0.94937   0.00000  Uiso   1.00
C634   C     0.12232   0.23653   0.59756   0.00000  Uiso   1.00
C635   C     0.19103   0.28483   0.89983   0.00000  Uiso   1.00
C636   C     0.20934   0.26631   0.60609   0.00000  Uiso   1.00
C637   C     0.14152   0.21690   0.89668   0.00000  Uiso   1.00
C638   C     0.20923   0.26579   0.55679   0.00000  Uiso   1.00
H639   H     0.12139   0.03194   0.81425   0.00000  Uiso   1.00
H640   H     0.30107   0.16197   0.75700   0.00000  Uiso   1.00
H641   H     0.03203   0.15212   0.73957   0.00000  Uiso   1.00
H642   H     0.30699   0.13491   0.70131   0.00000  Uiso   1.00
H643   H     0.32584   0.29769   0.82794   0.00000  Uiso   1.00
H644   H     0.03603   0.36158   0.80258   0.00000  Uiso   1.00
H645   H     0.31462   0.34896   0.75747   0.00000  Uiso   1.00
H646   H     0.04667   0.33346   0.74883   0.00000  Uiso   1.00
H647   H     0.22708   0.12691   0.61388   0.00000  Uiso   1.00
H648   H     0.28086   0.35862   0.85711   0.00000  Uiso   1.00
H649   H     0.16080   0.03021   0.63256   0.00000  Uiso   1.00
H650   H     0.09547   0.46146   0.68567   0.00000  Uiso   1.00
H651   H     0.23115   0.48185   0.63716   0.00000  Uiso   1.00
H652   H     0.23372   0.47982   0.70028   0.00000  Uiso   1.00
H653   H     0.25496   0.03016   0.67279   0.00000  Uiso   1.00
H654   H     0.21031   0.47695   0.85698   0.00000  Uiso   1.00
H655   H     0.28109   0.02269   0.83880   0.00000  Uiso   1.00
H656   H     0.25827   0.01724   0.77675   0.00000  Uiso   1.00
H657   H     0.28628   0.47001   0.80873   0.00000  Uiso   1.00
H658   H     0.04652   0.20663   0.53498   0.00000  Uiso   1.00
H659   H     0.00541   0.25635   0.97931   0.00000  Uiso   1.00
H660   H     0.06594   0.28826   0.98025   0.00000  Uiso   1.00
H661   H     0.13600   0.11148   0.81601   0.00000  Uiso   1.00
H662   H     0.03116   0.28795   0.53190   0.00000  Uiso   1.00
H663   H     0.24152   0.34307   0.95835   0.00000  Uiso   1.00
H664   H     0.19448   0.38738   0.50668   0.00000  Uiso   1.00
H665   H     0.14649   0.34285   0.50887   0.00000  Uiso   1.00
H666   H     0.15107   0.37156   0.95388   0.00000  Uiso   1.00
H667   H     0.00082   0.29603   0.64531   0.00000  Uiso   1.00
H668   H     0.08105   0.11664   0.87594   0.00000  Uiso   1.00
H669   H     0.10924   0.38187   0.68593   0.00000  Uiso   1.00
H670   H     0.08833   0.22507   0.61343   0.00000  Uiso   1.00
H671   H     0.21047   0.31058   0.88185   0.00000  Uiso   1.00
H672   H     0.24439   0.27649   0.54210   0.00000  Uiso   1.00
H673   H     0.12518   0.19056   0.96350   0.00000  Uiso   1.00
H674   H     0.00617   0.20196   0.67202   0.00000  Uiso   1.00
N675   N     0.16667   0.24999   0.62623   0.00000  Uiso   1.00
N676   N     0.16667   0.25001   0.87377   0.00000  Uiso   1.00
N677   N     0.32412   0.20378   0.70371   0.00000  Uiso   1.00
N678   N     0.01017   0.29439   0.79760   0.00000  Uiso   1.00
N679   N     0.17306   0.01749   0.66536   0.00000  Uiso   1.00
N680   N     0.21021   0.48603   0.82226   0.00000  Uiso   1.00
N681   N     0.07020   0.22910   0.51965   0.00000  Uiso   1.00
N682   N     0.21183   0.32764   0.97404   0.00000  Uiso   1.00
O683   O     0.16667   0.18453   0.78974   0.00000  Uiso   1.00
O684   O     0.22518   0.11129   0.64498   0.00000  Uiso   1.00
O685   O     0.20379   0.39686   0.87106   0.00000  Uiso   1.00
O686   O     0.26165   0.36818   0.82583   0.00000  Uiso   1.00
O687   O     0.24940   0.31824   0.66214   0.00000  Uiso   1.00
O688   O     0.30575   0.27765   0.62519   0.00000  Uiso   1.00
O689   O     0.08129   0.18591   0.83522   0.00000  Uiso   1.00
O690   O     0.10776   0.13835   0.89367   0.00000  Uiso   1.00
O691   O     0.16666   0.31546   0.71026   0.00000  Uiso   1.00
O692   O     0.16667   0.18453   0.71026   0.00000  Uiso   1.00
O693   O     0.16666   0.31547   0.78974   0.00000  Uiso   1.00
O694   O     0.09058   0.25000   0.78045   0.00000  Uiso   1.00
O695   O     0.24275   0.25000   0.71956   0.00000  Uiso   1.00
O696   O     0.09058   0.24999   0.70097   0.00000  Uiso   1.00
O697   O     0.24275   0.25000   0.79904   0.00000  Uiso   1.00
O698   O     0.13927   0.12894   0.63435   0.00000  Uiso   1.00
Zn699  Zn    0.16667   0.25000   0.80307   0.00000  Uiso   1.00
Zn700  Zn    0.16667   0.24999   0.69693   0.00000  Uiso   1.00
C701   C     0.49864   0.16364   0.74907   0.00000  Uiso   1.00
C702   C     0.47633   0.21793   0.94613   0.00000  Uiso   1.00
C703   C     0.49728   0.25362   0.52645   0.00000  Uiso   1.00
C704   C     0.49858   0.25411   0.97339   0.00000  Uiso   1.00
C705   C     0.40080   0.24779   0.73817   0.00000  Uiso   1.00
C706   C     0.59933   0.25161   0.76182   0.00000  Uiso   1.00
C707   C     0.34648   0.23968   0.73397   0.00000  Uiso   1.00
C708   C     0.65376   0.25971   0.76594   0.00000  Uiso   1.00
C709   C     0.46739   0.04799   0.78355   0.00000  Uiso   1.00
C710   C     0.45452   0.44759   0.71443   0.00000  Uiso   1.00
C711   C     0.47560   0.09341   0.78453   0.00000  Uiso   1.00
C712   C     0.50021   0.33613   0.75052   0.00000  Uiso   1.00
C713   C     0.46269   0.40250   0.71448   0.00000  Uiso   1.00
C714   C     0.49167   0.11521   0.74564   0.00000  Uiso   1.00
C715   C     0.49534   0.38395   0.75151   0.00000  Uiso   1.00
C716   C     0.49832   0.09043   0.70388   0.00000  Uiso   1.00
C717   C     0.51896   0.41079   0.79010   0.00000  Uiso   1.00
C718   C     0.49477   0.04372   0.70472   0.00000  Uiso   1.00
C719   C     0.51389   0.45705   0.78800   0.00000  Uiso   1.00
C720   C     0.47943   0.02296   0.74509   0.00000  Uiso   1.00
C721   C     0.48149   0.47501   0.74986   0.00000  Uiso   1.00
C722   C     0.65779   0.16109   0.72676   0.00000  Uiso   1.00
C723   C     0.45234   0.23951   0.54766   0.00000  Uiso   1.00
C724   C     0.35220   0.33669   0.77537   0.00000  Uiso   1.00
C725   C     0.50854   0.11191   0.65925   0.00000  Uiso   1.00
C726   C     0.55032   0.39168   0.83163   0.00000  Uiso   1.00
C727   C     0.55934   0.00169   0.66930   0.00000  Uiso   1.00
C728   C     0.59496   0.49951   0.81087   0.00000  Uiso   1.00
C729   C     0.37525   0.26753   0.50197   0.00000  Uiso   1.00
C730   C     0.50715   0.35884   0.98640   0.00000  Uiso   1.00
C731   C     0.58863   0.28832   0.63407   0.00000  Uiso   1.00
C732   C     0.44295   0.17981   0.87194   0.00000  Uiso   1.00
C733   C     0.52289   0.28871   0.94937   0.00000  Uiso   1.00
C734   C     0.45565   0.23653   0.59756   0.00000  Uiso   1.00
C735   C     0.52436   0.28483   0.89983   0.00000  Uiso   1.00
C736   C     0.54267   0.26631   0.60609   0.00000  Uiso   1.00
C737   C     0.47486   0.21690   0.89668   0.00000  Uiso   1.00
C738   C     0.54257   0.26579   0.55679   0.00000  Uiso   1.00
H739   H     0.45472   0.03194   0.81425   0.00000  Uiso   1.00
H740   H     0.63440   0.16197   0.75700   0.00000  Uiso   1.00
H741   H     0.36536   0.15212   0.73957   0.00000  Uiso   1.00
H742   H     0.64033   0.13491   0.70131   0.00000  Uiso   1.00
H743   H     0.65918   0.29769   0.82794   0.00000  Uiso   1.00
H744   H     0.36937   0.36158   0.80258   0.00000  Uiso   1.00
H745   H     0.64796   0.34896   0.75747   0.00000  Uiso   1.00
H746   H     0.38000   0.33346   0.74883   0.00000  Uiso   1.00
H747   H     0.56042   0.12691   0.61388   0.00000  Uiso   1.00
H748   H     0.61420   0.35862   0.85711   0.00000  Uiso   1.00
H749   H     0.49413   0.03021   0.63256   0.00000  Uiso   1.00
H750   H     0.42880   0.46146   0.68567   0.00000  Uiso   1.00
H751   H     0.56449   0.48185   0.63716   0.00000  Uiso   1.00
H752   H     0.56706   0.47982   0.70028   0.00000  Uiso   1.00
H753   H     0.58829   0.03016   0.67279   0.00000  Uiso   1.00
H754   H     0.54364   0.47695   0.85698   0.00000  Uiso   1.00
H755   H     0.61442   0.02269   0.83880   0.00000  Uiso   1.00
H756   H     0.59161   0.01724   0.77675   0.00000  Uiso   1.00
H757   H     0.61961   0.47001   0.80873   0.00000  Uiso   1.00
H758   H     0.37985   0.20663   0.53498   0.00000  Uiso   1.00
H759   H     0.33874   0.25635   0.97931   0.00000  Uiso   1.00
H760   H     0.39927   0.28826   0.98025   0.00000  Uiso   1.00
H761   H     0.46934   0.11148   0.81601   0.00000  Uiso   1.00
H762   H     0.36449   0.28795   0.53190   0.00000  Uiso   1.00
H763   H     0.57485   0.34307   0.95835   0.00000  Uiso   1.00
H764   H     0.52781   0.38738   0.50668   0.00000  Uiso   1.00
H765   H     0.47982   0.34285   0.50887   0.00000  Uiso   1.00
H766   H     0.48441   0.37156   0.95388   0.00000  Uiso   1.00
H767   H     0.33415   0.29603   0.64531   0.00000  Uiso   1.00
H768   H     0.41438   0.11664   0.87594   0.00000  Uiso   1.00
H769   H     0.44257   0.38187   0.68593   0.00000  Uiso   1.00
H770   H     0.42166   0.22507   0.61343   0.00000  Uiso   1.00
H771   H     0.54380   0.31058   0.88185   0.00000  Uiso   1.00
H772   H     0.57772   0.27649   0.54210   0.00000  Uiso   1.00
H773   H     0.45852   0.19056   0.96350   0.00000  Uiso   1.00
H774   H     0.33950   0.20196   0.67202   0.00000  Uiso   1.00
N775   N     0.50000   0.24999   0.62623   0.00000  Uiso   1.00
N776   N     0.50000   0.25001   0.87377   0.00000  Uiso   1.00
N777   N     0.65745   0.20378   0.70371   0.00000  Uiso   1.00
N778   N     0.34350   0.29439   0.79760   0.00000  Uiso   1.00
N779   N     0.50640   0.01749   0.66536   0.00000  Uiso   1.00
N780   N     0.54355   0.48603   0.82226   0.00000  Uiso   1.00
N781   N     0.40353   0.22910   0.51965   0.00000  Uiso   1.00
N782   N     0.54516   0.32764   0.97404   0.00000  Uiso   1.00
O783   O     0.50000   0.18453   0.78974   0.00000  Uiso   1.00
O784   O     0.55852   0.11129   0.64498   0.00000  Uiso   1.00
O785   O     0.53712   0.39686   0.87106   0.00000  Uiso   1.00
O786   O     0.59498   0.36818   0.82583   0.00000  Uiso   1.00
O787   O     0.58273   0.31824   0.66214   0.00000  Uiso   1.00
O788   O     0.63908   0.27765   0.62519   0.00000  Uiso   1.00
O789   O     0.41462   0.18591   0.83522   0.00000  Uiso   1.00
O790   O     0.44109   0.13835   0.89367   0.00000  Uiso   1.00
O791   O     0.50000   0.31546   0.71026   0.00000  Uiso   1.00
O792   O     0.50000   0.18453   0.71026   0.00000  Uiso   1.00
O793   O     0.50000   0.31547   0.78974   0.00000  Uiso   1.00
O794   O     0.42392   0.25000   0.78045   0.00000  Uiso   1.00
O795   O     0.57608   0.25000   0.71956   0.00000  Uiso   1.00
O796   O     0.42392   0.24999   0.70097   0.00000  Uiso   1.00
O797   O     0.57608   0.25000   0.79904   0.00000  Uiso   1.00
O798   O     0.47260   0.12894   0.63435   0.00000  Uiso   1.00
Zn799  Zn    0.50000   0.25000   0.80307   0.00000  Uiso   1.00
Zn800  Zn    0.50000   0.24999   0.69693   0.00000  Uiso   1.00
C801   C     0.83198   0.16364   0.74907   0.00000  Uiso   1.00
C802   C     0.80966   0.21793   0.94613   0.00000  Uiso   1.00
C803   C     0.83061   0.25362   0.52645   0.00000  Uiso   1.00
C804   C     0.83191   0.25411   0.97339   0.00000  Uiso   1.00
C805   C     0.73413   0.24779   0.73817   0.00000  Uiso   1.00
C806   C     0.93267   0.25161   0.76182   0.00000  Uiso   1.00
C807   C     0.67981   0.23968   0.73397   0.00000  Uiso   1.00
C808   C     0.98710   0.25971   0.76594   0.00000  Uiso   1.00
C809   C     0.80073   0.04799   0.78355   0.00000  Uiso   1.00
C810   C     0.78786   0.44759   0.71443   0.00000  Uiso   1.00
C811   C     0.80893   0.09341   0.78453   0.00000  Uiso   1.00
C812   C     0.83355   0.33613   0.75052   0.00000  Uiso   1.00
C813   C     0.79603   0.40250   0.71448   0.00000  Uiso   1.00
C814   C     0.82501   0.11521   0.74564   0.00000  Uiso   1.00
C815   C     0.82867   0.38395   0.75151   0.00000  Uiso   1.00
C816   C     0.83165   0.09043   0.70388   0.00000  Uiso   1.00
C817   C     0.85229   0.41079   0.79010   0.00000  Uiso   1.00
C818   C     0.82811   0.04372   0.70472   0.00000  Uiso   1.00
C819   C     0.84722   0.45705   0.78800   0.00000  Uiso   1.00
C820   C     0.81276   0.02296   0.74509   0.00000  Uiso   1.00
C821   C     0.81482   0.47501   0.74986   0.00000  Uiso   1.00
C822   C     0.99112   0.16109   0.72676   0.00000  Uiso   1.00
C823   C     0.78567   0.23951   0.54766   0.00000  Uiso   1.00
C824   C     0.68554   0.33669   0.77537   0.00000  Uiso   1.00
C825   C     0.84187   0.11191   0.65925   0.00000  Uiso   1.00
C826   C     0.88365   0.39168   0.83163   0.00000  Uiso   1.00
C827   C     0.89267   0.00169   0.66930   0.00000  Uiso   1.00
C828   C     0.92829   0.49951   0.81087   0.00000  Uiso   1.00
C829   C     0.70858   0.26753   0.50197   0.00000  Uiso   1.00
C830   C     0.84048   0.35884   0.98640   0.00000  Uiso   1.00
C831   C     0.92196   0.28832   0.63407   0.00000  Uiso   1.00
C832   C     0.77629   0.17981   0.87194   0.00000  Uiso   1.00
C833   C     0.85622   0.28871   0.94937   0.00000  Uiso   1.00
C834   C     0.78899   0.23653   0.59756   0.00000  Uiso   1.00
C835   C     0.85770   0.28483   0.89983   0.00000  Uiso   1.00
C836   C     0.87601   0.26631   0.60609   0.00000  Uiso   1.00
C837   C     0.80819   0.21690   0.89668   0.00000  Uiso   1.00
C838   C     0.87590   0.26579   0.55679   0.00000  Uiso   1.00
H839   H     0.78806   0.03194   0.81425   0.00000  Uiso   1.00
H840   H     0.96774   0.16197   0.75700   0.00000  Uiso   1.00
H841   H     0.69870   0.15212   0.73957   0.00000  Uiso   1.00
H842   H     0.97366   0.13491   0.70131   0.00000  Uiso   1.00
H843   H     0.99251   0.29769   0.82794   0.00000  Uiso   1.00
H844   H     0.70270   0.36158   0.80258   0.00000  Uiso   1.00
H845   H     0.98129   0.34896   0.75747   0.00000  Uiso   1.00
H846   H     0.71334   0.33346   0.74883   0.00000  Uiso   1.00
H847   H     0.89375   0.12691   0.61388   0.00000  Uiso   1.00
H848   H     0.94753   0.35862   0.85711   0.00000  Uiso   1.00
H849   H     0.82747   0.03021   0.63256   0.00000  Uiso   1.00
H850   H     0.76213   0.46146   0.68567   0.00000  Uiso   1.00
H851   H     0.89782   0.48185   0.63716   0.00000  Uiso   1.00
H852   H     0.90039   0.47982   0.70028   0.00000  Uiso   1.00
H853   H     0.92162   0.03016   0.67279   0.00000  Uiso   1.00
H854   H     0.87697   0.47695   0.85698   0.00000  Uiso   1.00
H855   H     0.94775   0.02269   0.83880   0.00000  Uiso   1.00
H856   H     0.92494   0.01724   0.77675   0.00000  Uiso   1.00
H857   H     0.95294   0.47001   0.80873   0.00000  Uiso   1.00
H858   H     0.71318   0.20663   0.53498   0.00000  Uiso   1.00
H859   H     0.67208   0.25635   0.97931   0.00000  Uiso   1.00
H860   H     0.73261   0.28826   0.98025   0.00000  Uiso   1.00
H861   H     0.80267   0.11148   0.81601   0.00000  Uiso   1.00
H862   H     0.69783   0.28795   0.53190   0.00000  Uiso   1.00
H863   H     0.90818   0.34307   0.95835   0.00000  Uiso   1.00
H864   H     0.86114   0.38738   0.50668   0.00000  Uiso   1.00
H865   H     0.81316   0.34285   0.50887   0.00000  Uiso   1.00
H866   H     0.81774   0.37156   0.95388   0.00000  Uiso   1.00
H867   H     0.66748   0.29603   0.64531   0.00000  Uiso   1.00
H868   H     0.74771   0.11664   0.87594   0.00000  Uiso   1.00
H869   H     0.77591   0.38187   0.68593   0.00000  Uiso   1.00
H870   H     0.75500   0.22507   0.61343   0.00000  Uiso   1.00
H871   H     0.87713   0.31058   0.88185   0.00000  Uiso   1.00
H872   H     0.91106   0.27649   0.54210   0.00000  Uiso   1.00
H873   H     0.79185   0.19056   0.96350   0.00000  Uiso   1.00
H874   H     0.67284   0.20196   0.67202   0.00000  Uiso   1.00
N875   N     0.83333   0.24999   0.62623   0.00000  Uiso   1.00
N876   N     0.83333   0.25001   0.87377   0.00000  Uiso   1.00
N877   N     0.99078   0.20378   0.70371   0.00000  Uiso   1.00
N878   N     0.67684   0.29439   0.79760   0.00000  Uiso   1.00
N879   N     0.83973   0.01749   0.66536   0.00000  Uiso   1.00
N880   N     0.87688   0.48603   0.82226   0.00000  Uiso   1.00
N881   N     0.73687   0.22910   0.51965   0.00000  Uiso   1.00
N882   N     0.87850   0.32764   0.97404   0.00000  Uiso   1.00
O883   O     0.83334   0.18453   0.78974   0.00000  Uiso   1.00
O884   O     0.89185   0.11129   0.64498   0.00000  Uiso   1.00
O885   O     0.87046   0.39686   0.87106   0.00000  Uiso   1.00
O886   O     0.92831   0.36818   0.82583   0.00000  Uiso   1.00
O887   O     0.91607   0.31824   0.66214   0.00000  Uiso   1.00
O888   O     0.97241   0.27765   0.62519   0.00000  Uiso   1.00
O889   O     0.74795   0.18591   0.83522   0.00000  Uiso   1.00
O890   O     0.77443   0.13835   0.89367   0.00000  Uiso   1.00
O891   O     0.83333   0.31546   0.71026   0.00000  Uiso   1.00
O892   O     0.83334   0.18453   0.71026   0.00000  Uiso   1.00
O893   O     0.83333   0.31547   0.78974   0.00000  Uiso   1.00
O894   O     0.75725   0.25000   0.78045   0.00000  Uiso   1.00
O895   O     0.90942   0.25000   0.71956   0.00000  Uiso   1.00
O896   O     0.75725   0.24999   0.70097   0.00000  Uiso   1.00
O897   O     0.90942   0.25000   0.79904   0.00000  Uiso   1.00
O898   O     0.80593   0.12894   0.63435   0.00000  Uiso   1.00
Zn899  Zn    0.83333   0.25000   0.80307   0.00000  Uiso   1.00
Zn900  Zn    0.83333   0.24999   0.69693   0.00000  Uiso   1.00
C901   C     0.16531   0.66364   0.74907   0.00000  Uiso   1.00
C902   C     0.14299   0.71793   0.94613   0.00000  Uiso   1.00
C903   C     0.16395   0.75362   0.52645   0.00000  Uiso   1.00
C904   C     0.16525   0.75411   0.97339   0.00000  Uiso   1.00
C905   C     0.06747   0.74779   0.73817   0.00000  Uiso   1.00
C906   C     0.26600   0.75161   0.76182   0.00000  Uiso   1.00
C907   C     0.01314   0.73968   0.73397   0.00000  Uiso   1.00
C908   C     0.32043   0.75971   0.76594   0.00000  Uiso   1.00
C909   C     0.13406   0.54799   0.78355   0.00000  Uiso   1.00
C910   C     0.12119   0.94759   0.71443   0.00000  Uiso   1.00
C911   C     0.14226   0.59341   0.78453   0.00000  Uiso   1.00
C912   C     0.16688   0.83613   0.75052   0.00000  Uiso   1.00
C913   C     0.12936   0.90250   0.71448   0.00000  Uiso   1.00
C914   C     0.15834   0.61521   0.74564   0.00000  Uiso   1.00
C915   C     0.16200   0.88395   0.75151   0.00000  Uiso   1.00
C916   C     0.16498   0.59043   0.70388   0.00000  Uiso   1.00
C917   C     0.18562   0.91079   0.79010   0.00000  Uiso   1.00
C918   C     0.16144   0.54372   0.70472   0.00000  Uiso   1.00
C919   C     0.18055   0.95705   0.78800   0.00000  Uiso   1.00
C920   C     0.14610   0.52296   0.74509   0.00000  Uiso   1.00
C921   C     0.14815   0.97501   0.74986   0.00000  Uiso   1.00
C922   C     0.32446   0.66109   0.72676   0.00000  Uiso   1.00
C923   C     0.11901   0.73951   0.54766   0.00000  Uiso   1.00
C924   C     0.01887   0.83669   0.77537   0.00000  Uiso   1.00
C925   C     0.17521   0.61191   0.65925   0.00000  Uiso   1.00
C926   C     0.21698   0.89168   0.83163   0.00000  Uiso   1.00
C927   C     0.22601   0.50169   0.66930   0.00000  Uiso   1.00
C928   C     0.26163   0.99951   0.81087   0.00000  Uiso   1.00
C929   C     0.04191   0.76753   0.50197   0.00000  Uiso   1.00
C930   C     0.17382   0.85884   0.98640   0.00000  Uiso   1.00
C931   C     0.25529   0.78832   0.63407   0.00000  Uiso   1.00
C932   C     0.10962   0.67981   0.87194   0.00000  Uiso   1.00
C933   C     0.18955   0.78871   0.94937   0.00000  Uiso   1.00
C934   C     0.12232   0.73653   0.59756   0.00000  Uiso   1.00
C935   C     0.19103   0.78483   0.89983   0.00000  Uiso   1.00
C936   C     0.20934   0.76631   0.60609   0.00000  Uiso   1.00
C937   C     0.14152   0.71690   0.89668   0.00000  Uiso   1.00
C938   C     0.20923   0.76579   0.55679   0.00000  Uiso   1.00
H939   H     0.12139   0.53194   0.81425   0.00000  Uiso   1.00
H940   H     0.30107   0.66197   0.75700   0.00000  Uiso   1.00
H941   H     0.03203   0.65212   0.73957   0.00000  Uiso   1.00
H942   H     0.30699   0.63491   0.70131   0.00000  Uiso   1.00
H943   H     0.32584   0.79769   0.82794   0.00000  Uiso   1.00
H944   H     0.03603   0.86158   0.80258   0.00000  Uiso   1.00
H945   H     0.31462   0.84896   0.75747   0.00000  Uiso   1.00
H946   H     0.04667   0.83346   0.74883   0.00000  Uiso   1.00
H947   H     0.22708   0.62691   0.61388   0.00000  Uiso   1.00
H948   H     0.28086   0.85862   0.85711   0.00000  Uiso   1.00
H949   H     0.16080   0.53021   0.63256   0.00000  Uiso   1.00
H950   H     0.09547   0.96146   0.68567   0.00000  Uiso   1.00
H951   H     0.23115   0.98185   0.63716   0.00000  Uiso   1.00
H952   H     0.23372   0.97982   0.70028   0.00000  Uiso   1.00
H953   H     0.25496   0.53016   0.67279   0.00000  Uiso   1.00
H954   H     0.21031   0.97695   0.85698   0.00000  Uiso   1.00
H955   H     0.28109   0.52269   0.83880   0.00000  Uiso   1.00
H956   H     0.25827   0.51724   0.77675   0.00000  Uiso   1.00
H957   H     0.28628   0.97001   0.80873   0.00000  Uiso   1.00
H958   H     0.04652   0.70663   0.53498   0.00000  Uiso   1.00
H959   H     0.00541   0.75635   0.97931   0.00000  Uiso   1.00
H960   H     0.06594   0.78826   0.98025   0.00000  Uiso   1.00
H961   H     0.13600   0.61148   0.81601   0.00000  Uiso   1.00
H962   H     0.03116   0.78795   0.53190   0.00000  Uiso   1.00
H963   H     0.24152   0.84307   0.95835   0.00000  Uiso   1.00
H964   H     0.19448   0.88738   0.50668   0.00000  Uiso   1.00
H965   H     0.14649   0.84285   0.50887   0.00000  Uiso   1.00
H966   H     0.15107   0.87156   0.95388   0.00000  Uiso   1.00
H967   H     0.00082   0.79603   0.64531   0.00000  Uiso   1.00
H968   H     0.08105   0.61664   0.87594   0.00000  Uiso   1.00
H969   H     0.10924   0.88187   0.68593   0.00000  Uiso   1.00
H970   H     0.08833   0.72507   0.61343   0.00000  Uiso   1.00
H971   H     0.21047   0.81058   0.88185   0.00000  Uiso   1.00
H972   H     0.24439   0.77649   0.54210   0.00000  Uiso   1.00
H973   H     0.12518   0.69056   0.96350   0.00000  Uiso   1.00
H974   H     0.00617   0.70196   0.67202   0.00000  Uiso   1.00
N975   N     0.16667   0.74999   0.62623   0.00000  Uiso   1.00
N976   N     0.16667   0.75001   0.87377   0.00000  Uiso   1.00
N977   N     0.32412   0.70378   0.70371   0.00000  Uiso   1.00
N978   N     0.01017   0.79439   0.79760   0.00000  Uiso   1.00
N979   N     0.17306   0.51749   0.66536   0.00000  Uiso   1.00
N980   N     0.21021   0.98603   0.82226   0.00000  Uiso   1.00
N981   N     0.07020   0.72910   0.51965   0.00000  Uiso   1.00
N982   N     0.21183   0.82764   0.97404   0.00000  Uiso   1.00
O983   O     0.16667   0.68453   0.78974   0.00000  Uiso   1.00
O984   O     0.22518   0.61129   0.64498   0.00000  Uiso   1.00
O985   O     0.20379   0.89686   0.87106   0.00000  Uiso   1.00
O986   O     0.26165   0.86818   0.82583   0.00000  Uiso   1.00
O987   O     0.24940   0.81824   0.66214   0.00000  Uiso   1.00
O988   O     0.30575   0.77765   0.62519   0.00000  Uiso   1.00
O989   O     0.08129   0.68591   0.83522   0.00000  Uiso   1.00
O990   O     0.10776   0.63835   0.89367   0.00000  Uiso   1.00
O991   O     0.16666   0.81546   0.71026   0.00000  Uiso   1.00
O992   O     0.16667   0.68453   0.71026   0.00000  Uiso   1.00
O993   O     0.16666   0.81547   0.78974   0.00000  Uiso   1.00
O994   O     0.09058   0.75000   0.78045   0.00000  Uiso   1.00
O995   O     0.24275   0.75000   0.71956   0.00000  Uiso   1.00
O996   O     0.09058   0.74999   0.70097   0.00000  Uiso   1.00
O997   O     0.24275   0.75000   0.79904   0.00000  Uiso   1.00
O998   O     0.13927   0.62894   0.63435   0.00000  Uiso   1.00
Zn999  Zn    0.16667   0.75000   0.80307   0.00000  Uiso   1.00
Zn1000 Zn    0.16667   0.74999   0.69693   0.00000  Uiso   1.00
C1001  C     0.49864   0.66364   0.74907   0.00000  Uiso   1.00
C1002  C     0.47633   0.71793   0.94613   0.00000  Uiso   1.00
C1003  C     0.49728   0.75362   0.52645   0.00000  Uiso   1.00
C1004  C     0.49858   0.75411   0.97339   0.00000  Uiso   1.00
C1005  C     0.40080   0.74779   0.73817   0.00000  Uiso   1.00
C1006  C     0.59933   0.75161   0.76182   0.00000  Uiso   1.00
C1007  C     0.34648   0.73968   0.73397   0.00000  Uiso   1.00
C1008  C     0.65376   0.75971   0.76594   0.00000  Uiso   1.00
C1009  C     0.46739   0.54799   0.78355   0.00000  Uiso   1.00
C1010  C     0.45452   0.94759   0.71443   0.00000  Uiso   1.00
C1011  C     0.47560   0.59341   0.78453   0.00000  Uiso   1.00
C1012  C     0.50021   0.83613   0.75052   0.00000  Uiso   1.00
C1013  C     0.46269   0.90250   0.71448   0.00000  Uiso   1.00
C1014  C     0.49167   0.61521   0.74564   0.00000  Uiso   1.00
C1015  C     0.49534   0.88395   0.75151   0.00000  Uiso   1.00
C1016  C     0.49832   0.59043   0.70388   0.00000  Uiso   1.00
C1017  C     0.51896   0.91079   0.79010   0.00000  Uiso   1.00
C1018  C     0.49477   0.54372   0.70472   0.00000  Uiso   1.00
C1019  C     0.51389   0.95705   0.78800   0.00000  Uiso   1.00
C1020  C     0.47943   0.52296   0.74509   0.00000  Uiso   1.00
C1021  C     0.48149   0.97501   0.74986   0.00000  Uiso   1.00
C1022  C     0.65779   0.66109   0.72676   0.00000  Uiso   1.00
C1023  C     0.45234   0.73951   0.54766   0.00000  Uiso   1.00
C1024  C     0.35220   0.83669   0.77537   0.00000  Uiso   1.00
C1025  C     0.50854   0.61191   0.65925   0.00000  Uiso   1.00
C1026  C     0.55032   0.89168   0.83163   0.00000  Uiso   1.00
C1027  C     0.55934   0.50169   0.66930   0.00000  Uiso   1.00
C1028  C     0.59496   0.99951   0.81087   0.00000  Uiso   1.00
C1029  C     0.37525   0.76753   0.50197   0.00000  Uiso   1.00
C1030  C     0.50715   0.85884   0.98640   0.00000  Uiso   1.00
C1031  C     0.58863   0.78832   0.63407   0.00000  Uiso   1.00
C1032  C     0.44295   0.67981   0.87194   0.00000  Uiso   1.00
C1033  C     0.52289   0.78871   0.94937   0.00000  Uiso   1.00
C1034  C     0.45565   0.73653   0.59756   0.00000  Uiso   1.00
C1035  C     0.52436   0.78483   0.89983   0.00000  Uiso   1.00
C1036  C     0.54267   0.76631   0.60609   0.00000  Uiso   1.00
C1037  C     0.47486   0.71690   0.89668   0.00000  Uiso   1.00
C1038  C     0.54257   0.76579   0.55679   0.00000  Uiso   1.00
H1039  H     0.45472   0.53194   0.81425   0.00000  Uiso   1.00
H1040  H     0.63440   0.66197   0.75700   0.00000  Uiso   1.00
H1041  H     0.36536   0.65212   0.73957   0.00000  Uiso   1.00
H1042  H     0.64033   0.63491   0.70131   0.00000  Uiso   1.00
H1043  H     0.65918   0.79769   0.82794   0.00000  Uiso   1.00
H1044  H     0.36937   0.86158   0.80258   0.00000  Uiso   1.00
H1045  H     0.64796   0.84896   0.75747   0.00000  Uiso   1.00
H1046  H     0.38000   0.83346   0.74883   0.00000  Uiso   1.00
H1047  H     0.56042   0.62691   0.61388   0.00000  Uiso   1.00
H1048  H     0.61420   0.85862   0.85711   0.00000  Uiso   1.00
H1049  H     0.49413   0.53021   0.63256   0.00000  Uiso   1.00
H1050  H     0.42880   0.96146   0.68567   0.00000  Uiso   1.00
H1051  H     0.56449   0.98185   0.63716   0.00000  Uiso   1.00
H1052  H     0.56706   0.97982   0.70028   0.00000  Uiso   1.00
H1053  H     0.58829   0.53016   0.67279   0.00000  Uiso   1.00
H1054  H     0.54364   0.97695   0.85698   0.00000  Uiso   1.00
H1055  H     0.61442   0.52269   0.83880   0.00000  Uiso   1.00
H1056  H     0.59161   0.51724   0.77675   0.00000  Uiso   1.00
H1057  H     0.61961   0.97001   0.80873   0.00000  Uiso   1.00
H1058  H     0.37985   0.70663   0.53498   0.00000  Uiso   1.00
H1059  H     0.33874   0.75635   0.97931   0.00000  Uiso   1.00
H1060  H     0.39927   0.78826   0.98025   0.00000  Uiso   1.00
H1061  H     0.46934   0.61148   0.81601   0.00000  Uiso   1.00
H1062  H     0.36449   0.78795   0.53190   0.00000  Uiso   1.00
H1063  H     0.57485   0.84307   0.95835   0.00000  Uiso   1.00
H1064  H     0.52781   0.88738   0.50668   0.00000  Uiso   1.00
H1065  H     0.47982   0.84285   0.50887   0.00000  Uiso   1.00
H1066  H     0.48441   0.87156   0.95388   0.00000  Uiso   1.00
H1067  H     0.33415   0.79603   0.64531   0.00000  Uiso   1.00
H1068  H     0.41438   0.61664   0.87594   0.00000  Uiso   1.00
H1069  H     0.44257   0.88187   0.68593   0.00000  Uiso   1.00
H1070  H     0.42166   0.72507   0.61343   0.00000  Uiso   1.00
H1071  H     0.54380   0.81058   0.88185   0.00000  Uiso   1.00
H1072  H     0.57772   0.77649   0.54210   0.00000  Uiso   1.00
H1073  H     0.45852   0.69056   0.96350   0.00000  Uiso   1.00
H1074  H     0.33950   0.70196   0.67202   0.00000  Uiso   1.00
N1075  N     0.50000   0.74999   0.62623   0.00000  Uiso   1.00
N1076  N     0.50000   0.75001   0.87377   0.00000  Uiso   1.00
N1077  N     0.65745   0.70378   0.70371   0.00000  Uiso   1.00
N1078  N     0.34350   0.79439   0.79760   0.00000  Uiso   1.00
N1079  N     0.50640   0.51749   0.66536   0.00000  Uiso   1.00
N1080  N     0.54355   0.98603   0.82226   0.00000  Uiso   1.00
N1081  N     0.40353   0.72910   0.51965   0.00000  Uiso   1.00
N1082  N     0.54516   0.82764   0.97404   0.00000  Uiso   1.00
O1083  O     0.50000   0.68453   0.78974   0.00000  Uiso   1.00
O1084  O     0.55852   0.61129   0.64498   0.00000  Uiso   1.00
O1085  O     0.53712   0.89686   0.87106   0.00000  Uiso   1.00
O1086  O     0.59498   0.86818   0.82583   0.00000  Uiso   1.00
O1087  O     0.58273   0.81824   0.66214   0.00000  Uiso   1.00
O1088  O     0.63908   0.77765   0.62519   0.00000  Uiso   1.00
O1089  O     0.41462   0.68591   0.83522   0.00000  Uiso   1.00
O1090  O     0.44109   0.63835   0.89367   0.00000  Uiso   1.00
O1091  O     0.50000   0.81546   0.71026   0.00000  Uiso   1.00
O1092  O     0.50000   0.68453   0.71026   0.00000  Uiso   1.00
O1093  O     0.50000   0.81547   0.78974   0.00000  Uiso   1.00
O1094  O     0.42392   0.75000   0.78045   0.00000  Uiso   1.00
O1095  O     0.57608   0.75000   0.71956   0.00000  Uiso   1.00
O1096  O     0.42392   0.74999   0.70097   0.00000  Uiso   1.00
O1097  O     0.57608   0.75000   0.79904   0.00000  Uiso   1.00
O1098  O     0.47260   0.62894   0.63435   0.00000  Uiso   1.00
Zn1099 Zn    0.50000   0.75000   0.80307   0.00000  Uiso   1.00
Zn1100 Zn    0.50000   0.74999   0.69693   0.00000  Uiso   1.00
C1101  C     0.83198   0.66364   0.74907   0.00000  Uiso   1.00
C1102  C     0.80966   0.71793   0.94613   0.00000  Uiso   1.00
C1103  C     0.83061   0.75362   0.52645   0.00000  Uiso   1.00
C1104  C     0.83191   0.75411   0.97339   0.00000  Uiso   1.00
C1105  C     0.73413   0.74779   0.73817   0.00000  Uiso   1.00
C1106  C     0.93267   0.75161   0.76182   0.00000  Uiso   1.00
C1107  C     0.67981   0.73968   0.73397   0.00000  Uiso   1.00
C1108  C     0.98710   0.75971   0.76594   0.00000  Uiso   1.00
C1109  C     0.80073   0.54799   0.78355   0.00000  Uiso   1.00
C1110  C     0.78786   0.94759   0.71443   0.00000  Uiso   1.00
C1111  C     0.80893   0.59341   0.78453   0.00000  Uiso   1.00
C1112  C     0.83355   0.83613   0.75052   0.00000  Uiso   1.00
C1113  C     0.79603   0.90250   0.71448   0.00000  Uiso   1.00
C1114  C     0.82501   0.61521   0.74564   0.00000  Uiso   1.00
C1115  C     0.82867   0.88395   0.75151   0.00000  Uiso   1.00
C1116  C     0.83165   0.59043   0.70388   0.00000  Uiso   1.00
C1117  C     0.85229   0.91079   0.79010   0.00000  Uiso   1.00
C1118  C     0.82811   0.54372   0.70472   0.00000  Uiso   1.00
C1119  C     0.84722   0.95705   0.78800   0.00000  Uiso   1.00
C1120  C     0.81276   0.52296   0.74509   0.00000  Uiso   1.00
C1121  C     0.81482   0.97501   0.74986   0.00000  Uiso   1.00
C1122  C     0.99112   0.66109   0.72676   0.00000  Uiso   1.00
C1123  C     0.78567   0.73951   0.54766   0.00000  Uiso   1.00
C1124  C     0.68554   0.83669   0.77537   0.00000  Uiso   1.00
C1125  C     0.84187   0.61191   0.65925   0.00000  Uiso   1.00
C1126  C     0.88365   0.89168   0.83163   0.00000  Uiso   1.00
C1127  C     0.89267   0.50169   0.66930   0.00000  Uiso   1.00
C1128  C     0.92829   0.99951   0.81087   0.00000  Uiso   1.00
C1129  C     0.70858   0.76753   0.50197   0.00000  Uiso   1.00
C1130  C     0.84048   0.85884   0.98640   0.00000  Uiso   1.00
C1131  C     0.92196   0.78832   0.63407   0.00000  Uiso   1.00
C1132  C     0.77629   0.67981   0.87194   0.00000  Uiso   1.00
C1133  C     0.85622   0.78871   0.94937   0.00000  Uiso   1.00
C1134  C     0.78899   0.73653   0.59756   0.00000  Uiso   1.00
C1135  C     0.85770   0.78483   0.89983   0.00000  Uiso   1.00
C1136  C     0.87601   0.76631   0.60609   0.00000  Uiso   1.00
C1137  C     0.80819   0.71690   0.89668   0.00000  Uiso   1.00
C1138  C     0.87590   0.76579   0.55679   0.00000  Uiso   1.00
H1139  H     0.78806   0.53194   0.81425   0.00000  Uiso   1.00
H1140  H     0.96774   0.66197   0.75700   0.00000  Uiso   1.00
H1141  H     0.69870   0.65212   0.73957   0.00000  Uiso   1.00
H1142  H     0.97366   0.63491   0.70131   0.00000  Uiso   1.00
H1143  H     0.99251   0.79769   0.82794   0.00000  Uiso   1.00
H1144  H     0.70270   0.86158   0.80258   0.00000  Uiso   1.00
H1145  H     0.98129   0.84896   0.75747   0.00000  Uiso   1.00
H1146  H     0.71334   0.83346   0.74883   0.00000  Uiso   1.00
H1147  H     0.89375   0.62691   0.61388   0.00000  Uiso   1.00
H1148  H     0.94753   0.85862   0.85711   0.00000  Uiso   1.00
H1149  H     0.82747   0.53021   0.63256   0.00000  Uiso   1.00
H1150  H     0.76213   0.96146   0.68567   0.00000  Uiso   1.00
H1151  H     0.89782   0.98185   0.63716   0.00000  Uiso   1.00
H1152  H     0.90039   0.97982   0.70028   0.00000  Uiso   1.00
H1153  H     0.92162   0.53016   0.67279   0.00000  Uiso   1.00
H1154  H     0.87697   0.97695   0.85698   0.00000  Uiso   1.00
H1155  H     0.94775   0.52269   0.83880   0.00000  Uiso   1.00
H1156  H     0.92494   0.51724   0.77675   0.00000  Uiso   1.00
H1157  H     0.95294   0.97001   0.80873   0.00000  Uiso   1.00
H1158  H     0.71318   0.70663   0.53498   0.00000  Uiso   1.00
H1159  H     0.67208   0.75635   0.97931   0.00000  Uiso   1.00
H1160  H     0.73261   0.78826   0.98025   0.00000  Uiso   1.00
H1161  H     0.80267   0.61148   0.81601   0.00000  Uiso   1.00
H1162  H     0.69783   0.78795   0.53190   0.00000  Uiso   1.00
H1163  H     0.90818   0.84307   0.95835   0.00000  Uiso   1.00
H1164  H     0.86114   0.88738   0.50668   0.00000  Uiso   1.00
H1165  H     0.81316   0.84285   0.50887   0.00000  Uiso   1.00
H1166  H     0.81774   0.87156   0.95388   0.00000  Uiso   1.00
H1167  H     0.66748   0.79603   0.64531   0.00000  Uiso   1.00
H1168  H     0.74771   0.61664   0.87594   0.00000  Uiso   1.00
H1169  H     0.77591   0.88187   0.68593   0.00000  Uiso   1.00
H1170  H     0.75500   0.72507   0.61343   0.00000  Uiso   1.00
H1171  H     0.87713   0.81058   0.88185   0.00000  Uiso   1.00
H1172  H     0.91106   0.77649   0.54210   0.00000  Uiso   1.00
H1173  H     0.79185   0.69056   0.96350   0.00000  Uiso   1.00
H1174  H     0.67284   0.70196   0.67202   0.00000  Uiso   1.00
N1175  N     0.83333   0.74999   0.62623   0.00000  Uiso   1.00
N1176  N     0.83333   0.75001   0.87377   0.00000  Uiso   1.00
N1177  N     0.99078   0.70378   0.70371   0.00000  Uiso   1.00
N1178  N     0.67684   0.79439   0.79760   0.00000  Uiso   1.00
N1179  N     0.83973   0.51749   0.66536   0.00000  Uiso   1.00
N1180  N     0.87688   0.98603   0.82226   0.00000  Uiso   1.00
N1181  N     0.73687   0.72910   0.51965   0.00000  Uiso   1.00
N1182  N     0.87850   0.82764   0.97404   0.00000  Uiso   1.00
O1183  O     0.83334   0.68453   0.78974   0.00000  Uiso   1.00
O1184  O     0.89185   0.61129   0.64498   0.00000  Uiso   1.00
O1185  O     0.87046   0.89686   0.87106   0.00000  Uiso   1.00
O1186  O     0.92831   0.86818   0.82583   0.00000  Uiso   1.00
O1187  O     0.91607   0.81824   0.66214   0.00000  Uiso   1.00
O1188  O     0.97241   0.77765   0.62519   0.00000  Uiso   1.00
O1189  O     0.74795   0.68591   0.83522   0.00000  Uiso   1.00
O1190  O     0.77443   0.63835   0.89367   0.00000  Uiso   1.00
O1191  O     0.83333   0.81546   0.71026   0.00000  Uiso   1.00
O1192  O     0.83334   0.68453   0.71026   0.00000  Uiso   1.00
O1193  O     0.83333   0.81547   0.78974   0.00000  Uiso   1.00
O1194  O     0.75725   0.75000   0.78045   0.00000  Uiso   1.00
O1195  O     0.90942   0.75000   0.71956   0.00000  Uiso   1.00
O1196  O     0.75725   0.74999   0.70097   0.00000  Uiso   1.00
O1197  O     0.90942   0.75000   0.79904   0.00000  Uiso   1.00
O1198  O     0.80593   0.62894   0.63435   0.00000  Uiso   1.00
Zn1199 Zn    0.83333   0.75000   0.80307   0.00000  Uiso   1.00
Zn1200 Zn    0.83333   0.74999   0.69693   0.00000  Uiso   1.00
loop_
_geom_bond_atom_site_label_1
_geom_bond_atom_site_label_2
_geom_bond_distance
_geom_bond_site_symmetry_2
_ccdc_geom_bond_type
C1     O92     1.282   .     A
C1     O83     1.307   .     A
C1     C14     1.461   .     S
C2     C4      1.393   .     A
C2     H73     1.083   .     S
C2     C37     1.405   .     A
C3     C23     1.424   .     A
C3     C38     1.397   .     A
C3     C604    1.517   1_554 S
C4     C33     1.422   .     A
C4     C603    1.517   .     S
C5     O94     1.275   .     A
C5     C7      1.400   .     S
C5     O96     1.280   .     A
C6     O97     1.281   .     A
C6     C8      1.402   .     S
C6     O95     1.276   .     A
C7     C208    1.343   1_455 S
C7     N277    1.432   1_455 S
C8     C107    1.343   .     S
C8     N178    1.433   .     S
C9     H39     1.084   .     S
C9     C20     1.393   .     A
C9     C11     1.373   .     A
C10    C21     1.395   .     A
C10    H50     1.084   .     S
C10    C13     1.377   .     A
C11    C14     1.394   .     A
C11    H61     1.074   .     S
C12    O91     1.297   .     A
C12    C15     1.446   .     S
C12    O93     1.286   .     A
C13    C15     1.398   .     A
C13    H69     1.084   .     S
C14    C16     1.427   .     A
C15    C17     1.417   .     A
C16    C25     1.482   .     S
C16    C18     1.404   .     A
C17    C19     1.401   .     A
C17    C26     1.480   .     S
C18    N79     1.430   .     S
C18    C20     1.408   .     A
C19    C21     1.409   .     A
C19    N80     1.429   .     S
C20    C321    1.451   1_545 S
C21    C320    1.451   .     S
C22    H40     1.111   .     S
C22    N77     1.448   .     S
C22    H42     1.108   .     S
C22    H141    1.112   .     S
C23    C34     1.418   .     A
C23    N81     1.424   .     S
C24    N78     1.450   .     S
C24    H44     1.110   .     S
C24    H46     1.109   .     S
C24    H245    1.111   1_455 S
C25    O84     1.396   .     S
C25    O98     1.223   .     D
C26    O86     1.393   .     S
C26    O85     1.223   .     D
C27    N79     1.447   .     S
C27    H53     1.111   .     S
C27    H351    1.110   1_545 S
C27    H352    1.109   1_545 S
C28    H57     1.111   .     S
C28    N80     1.446   .     S
C28    H355    1.110   .     S
C28    H356    1.110   .     S
C29    N81     1.447   .     S
C29    H62     1.112   .     S
C29    H659    1.111   1_554 S
C29    H660    1.110   1_554 S
C30    N82     1.447   .     S
C30    H66     1.112   .     S
C30    H664    1.110   .     S
C30    H665    1.110   .     S
C31    O87     1.221   .     D
C31    O88     1.398   .     S
C31    C36     1.473   .     S
C32    O90     1.400   .     S
C32    C37     1.479   .     S
C32    O89     1.218   .     D
C33    N82     1.423   .     S
C33    C35     1.420   .     A
C34    N75     1.364   .     A
C34    H70     1.081   .     S
C35    H71     1.077   .     S
C35    N76     1.364   .     A
C36    N75     1.379   .     A
C36    C38     1.404   .     A
C37    N76     1.383   .     A
C38    H72     1.084   .     S
H41    C222    1.112   1_455 S
H43    N178    1.030   .     S
H45    C124    1.111   .     S
H47    O84     1.014   .     S
H48    O86     1.014   .     S
H49    N79     1.031   .     S
H51    C327    1.110   .     S
H52    C327    1.109   .     S
H54    N80     1.029   .     S
H55    C328    1.110   1_545 S
H56    C328    1.110   1_545 S
H58    N81     1.032   .     S
H59    C629    1.111   .     S
H60    C629    1.110   .     S
H63    N82     1.032   .     S
H64    C630    1.110   1_554 S
H65    C630    1.110   1_554 S
H67    O288    1.014   1_455 S
H68    O90     1.014   .     S
H74    N277    1.032   1_455 S
N75    Zn100   2.015   .     S
N76    Zn99    2.015   .     S
N77    C107    1.432   .     S
N77    H174    1.032   .     S
N78    C208    1.433   1_455 S
N78    H243    1.030   1_455 S
O83    Zn99    1.998   .     S
O88    H167    1.014   .     S
O91    Zn100   1.998   .     S
O92    Zn100   2.008   .     S
O93    Zn99    2.008   .     S
O94    Zn99    1.982   .     S
O95    Zn100   1.982   .     S
O96    Zn100   1.973   .     S
O97    Zn99    1.973   .     S
C101   O192    1.282   .     A
C101   O183    1.307   .     A
C101   C114    1.461   .     S
C102   C104    1.393   .     A
C102   H173    1.083   .     S
C102   C137    1.405   .     A
C103   C123    1.424   .     A
C103   C138    1.397   .     A
C103   C704    1.517   1_554 S
C104   C133    1.422   .     A
C104   C703    1.517   .     S
C105   O194    1.275   .     A
C105   C107    1.400   .     S
C105   O196    1.280   .     A
C106   O197    1.281   .     A
C106   C108    1.402   .     S
C106   O195    1.276   .     A
C108   C207    1.343   .     S
C108   N278    1.433   .     S
C109   H139    1.084   .     S
C109   C120    1.393   .     A
C109   C111    1.373   .     A
C110   C121    1.395   .     A
C110   H150    1.084   .     S
C110   C113    1.377   .     A
C111   C114    1.394   .     A
C111   H161    1.074   .     S
C112   O191    1.297   .     A
C112   C115    1.446   .     S
C112   O193    1.286   .     A
C113   C115    1.398   .     A
C113   H169    1.084   .     S
C114   C116    1.427   .     A
C115   C117    1.417   .     A
C116   C125    1.482   .     S
C116   C118    1.404   .     A
C117   C119    1.401   .     A
C117   C126    1.480   .     S
C118   N179    1.430   .     S
C118   C120    1.408   .     A
C119   C121    1.409   .     A
C119   N180    1.429   .     S
C120   C421    1.451   1_545 S
C121   C420    1.451   .     S
C122   H140    1.111   .     S
C122   N177    1.448   .     S
C122   H142    1.108   .     S
C122   H241    1.112   .     S
C123   C134    1.418   .     A
C123   N181    1.424   .     S
C124   N178    1.450   .     S
C124   H144    1.110   .     S
C124   H146    1.109   .     S
C125   O184    1.396   .     S
C125   O198    1.223   .     D
C126   O186    1.393   .     S
C126   O185    1.223   .     D
C127   N179    1.447   .     S
C127   H153    1.111   .     S
C127   H451    1.110   1_545 S
C127   H452    1.109   1_545 S
C128   H157    1.111   .     S
C128   N180    1.446   .     S
C128   H455    1.110   .     S
C128   H456    1.110   .     S
C129   N181    1.447   .     S
C129   H162    1.112   .     S
C129   H759    1.111   1_554 S
C129   H760    1.110   1_554 S
C130   N182    1.447   .     S
C130   H166    1.112   .     S
C130   H764    1.110   .     S
C130   H765    1.110   .     S
C131   O187    1.221   .     D
C131   O188    1.398   .     S
C131   C136    1.473   .     S
C132   O190    1.400   .     S
C132   C137    1.479   .     S
C132   O189    1.218   .     D
C133   N182    1.423   .     S
C133   C135    1.420   .     A
C134   N175    1.364   .     A
C134   H170    1.081   .     S
C135   H171    1.077   .     S
C135   N176    1.364   .     A
C136   N175    1.379   .     A
C136   C138    1.404   .     A
C137   N176    1.383   .     A
C138   H172    1.084   .     S
H143   N278    1.030   .     S
H145   C224    1.111   .     S
H147   O184    1.014   .     S
H148   O186    1.014   .     S
H149   N179    1.031   .     S
H151   C427    1.110   .     S
H152   C427    1.109   .     S
H154   N180    1.029   .     S
H155   C428    1.110   1_545 S
H156   C428    1.110   1_545 S
H158   N181    1.032   .     S
H159   C729    1.111   .     S
H160   C729    1.110   .     S
H163   N182    1.032   .     S
H164   C730    1.110   1_554 S
H165   C730    1.110   1_554 S
H168   O190    1.014   .     S
N175   Zn200   2.015   .     S
N176   Zn199   2.015   .     S
N177   C207    1.432   .     S
N177   H274    1.032   .     S
O183   Zn199   1.998   .     S
O188   H267    1.014   .     S
O191   Zn200   1.998   .     S
O192   Zn200   2.008   .     S
O193   Zn199   2.008   .     S
O194   Zn199   1.982   .     S
O195   Zn200   1.982   .     S
O196   Zn200   1.973   .     S
O197   Zn199   1.973   .     S
C201   O292    1.282   .     A
C201   O283    1.307   .     A
C201   C214    1.461   .     S
C202   C204    1.393   .     A
C202   H273    1.083   .     S
C202   C237    1.405   .     A
C203   C223    1.424   .     A
C203   C238    1.397   .     A
C203   C804    1.517   1_554 S
C204   C233    1.422   .     A
C204   C803    1.517   .     S
C205   O294    1.275   .     A
C205   C207    1.400   .     S
C205   O296    1.280   .     A
C206   O297    1.281   .     A
C206   C208    1.402   .     S
C206   O295    1.276   .     A
C208   C7      1.343   1_655 S
C208   N78     1.433   1_655 S
C209   H239    1.084   .     S
C209   C220    1.393   .     A
C209   C211    1.373   .     A
C210   C221    1.395   .     A
C210   H250    1.084   .     S
C210   C213    1.377   .     A
C211   C214    1.394   .     A
C211   H261    1.074   .     S
C212   O291    1.297   .     A
C212   C215    1.446   .     S
C212   O293    1.286   .     A
C213   C215    1.398   .     A
C213   H269    1.084   .     S
C214   C216    1.427   .     A
C215   C217    1.417   .     A
C216   C225    1.482   .     S
C216   C218    1.404   .     A
C217   C219    1.401   .     A
C217   C226    1.480   .     S
C218   N279    1.430   .     S
C218   C220    1.408   .     A
C219   C221    1.409   .     A
C219   N280    1.429   .     S
C220   C521    1.451   1_545 S
C221   C520    1.451   .     S
C222   H240    1.111   .     S
C222   N277    1.448   .     S
C222   H242    1.108   .     S
C222   H41     1.112   1_655 S
C223   C234    1.418   .     A
C223   N281    1.424   .     S
C224   N278    1.450   .     S
C224   H244    1.110   .     S
C224   H246    1.109   .     S
C225   O284    1.396   .     S
C225   O298    1.223   .     D
C226   O286    1.393   .     S
C226   O285    1.223   .     D
C227   N279    1.447   .     S
C227   H253    1.111   .     S
C227   H551    1.110   1_545 S
C227   H552    1.109   1_545 S
C228   H257    1.111   .     S
C228   N280    1.446   .     S
C228   H555    1.110   .     S
C228   H556    1.110   .     S
C229   N281    1.447   .     S
C229   H262    1.112   .     S
C229   H859    1.111   1_554 S
C229   H860    1.110   1_554 S
C230   N282    1.447   .     S
C230   H266    1.112   .     S
C230   H864    1.110   .     S
C230   H865    1.110   .     S
C231   O287    1.221   .     D
C231   O288    1.398   .     S
C231   C236    1.473   .     S
C232   O290    1.400   .     S
C232   C237    1.479   .     S
C232   O289    1.218   .     D
C233   N282    1.423   .     S
C233   C235    1.420   .     A
C234   N275    1.364   .     A
C234   H270    1.081   .     S
C235   H271    1.077   .     S
C235   N276    1.364   .     A
C236   N275    1.379   .     A
C236   C238    1.404   .     A
C237   N276    1.383   .     A
C238   H272    1.084   .     S
H243   N78     1.030   1_655 S
H245   C24     1.111   1_655 S
H247   O284    1.014   .     S
H248   O286    1.014   .     S
H249   N279    1.031   .     S
H251   C527    1.110   .     S
H252   C527    1.109   .     S
H254   N280    1.029   .     S
H255   C528    1.110   1_545 S
H256   C528    1.110   1_545 S
H258   N281    1.032   .     S
H259   C829    1.111   .     S
H260   C829    1.110   .     S
H263   N282    1.032   .     S
H264   C830    1.110   1_554 S
H265   C830    1.110   1_554 S
H268   O290    1.014   .     S
N275   Zn300   2.015   .     S
N276   Zn299   2.015   .     S
N277   C7      1.432   1_655 S
N277   H74     1.032   1_655 S
O283   Zn299   1.998   .     S
O288   H67     1.014   1_655 S
O291   Zn300   1.998   .     S
O292   Zn300   2.008   .     S
O293   Zn299   2.008   .     S
O294   Zn299   1.982   .     S
O295   Zn300   1.982   .     S
O296   Zn300   1.973   .     S
O297   Zn299   1.973   .     S
C301   O392    1.282   .     A
C301   O383    1.307   .     A
C301   C314    1.461   .     S
C302   C304    1.393   .     A
C302   H373    1.083   .     S
C302   C337    1.405   .     A
C303   C323    1.424   .     A
C303   C338    1.397   .     A
C303   C904    1.517   1_554 S
C304   C333    1.422   .     A
C304   C903    1.517   .     S
C305   O394    1.275   .     A
C305   C307    1.400   .     S
C305   O396    1.280   .     A
C306   O397    1.281   .     A
C306   C308    1.402   .     S
C306   O395    1.276   .     A
C307   C508    1.343   1_455 S
C307   N577    1.432   1_455 S
C308   C407    1.343   .     S
C308   N478    1.433   .     S
C309   H339    1.084   .     S
C309   C320    1.393   .     A
C309   C311    1.373   .     A
C310   C321    1.395   .     A
C310   H350    1.084   .     S
C310   C313    1.377   .     A
C311   C314    1.394   .     A
C311   H361    1.074   .     S
C312   O391    1.297   .     A
C312   C315    1.446   .     S
C312   O393    1.286   .     A
C313   C315    1.398   .     A
C313   H369    1.084   .     S
C314   C316    1.427   .     A
C315   C317    1.417   .     A
C316   C325    1.482   .     S
C316   C318    1.404   .     A
C317   C319    1.401   .     A
C317   C326    1.480   .     S
C318   N379    1.430   .     S
C318   C320    1.408   .     A
C319   C321    1.409   .     A
C319   N380    1.429   .     S
C321   C20     1.451   1_565 S
C322   H340    1.111   .     S
C322   N377    1.448   .     S
C322   H342    1.108   .     S
C322   H441    1.112   .     S
C323   C334    1.418   .     A
C323   N381    1.424   .     S
C324   N378    1.450   .     S
C324   H344    1.110   .     S
C324   H346    1.109   .     S
C324   H545    1.111   1_455 S
C325   O384    1.396   .     S
C325   O398    1.223   .     D
C326   O386    1.393   .     S
C326   O385    1.223   .     D
C327   N379    1.447   .     S
C327   H353    1.111   .     S
C328   H357    1.111   .     S
C328   N380    1.446   .     S
C328   H55     1.110   1_565 S
C328   H56     1.110   1_565 S
C329   N381    1.447   .     S
C329   H362    1.112   .     S
C329   H959    1.111   1_554 S
C329   H960    1.110   1_554 S
C330   N382    1.447   .     S
C330   H366    1.112   .     S
C330   H964    1.110   .     S
C330   H965    1.110   .     S
C331   O387    1.221   .     D
C331   O388    1.398   .     S
C331   C336    1.473   .     S
C332   O390    1.400   .     S
C332   C337    1.479   .     S
C332   O389    1.218   .     D
C333   N382    1.423   .     S
C333   C335    1.420   .     A
C334   N375    1.364   .     A
C334   H370    1.081   .     S
C335   H371    1.077   .     S
C335   N376    1.364   .     A
C336   N375    1.379   .     A
C336   C338    1.404   .     A
C337   N376    1.383   .     A
C338   H372    1.084   .     S
H341   C522    1.112   1_455 S
H343   N478    1.030   .     S
H345   C424    1.111   .     S
H347   O384    1.014   .     S
H348   O386    1.014   .     S
H349   N379    1.031   .     S
H351   C27     1.110   1_565 S
H352   C27     1.109   1_565 S
H354   N380    1.029   .     S
H358   N381    1.032   .     S
H359   C929    1.111   .     S
H360   C929    1.110   .     S
H363   N382    1.032   .     S
H364   C930    1.110   1_554 S
H365   C930    1.110   1_554 S
H367   O588    1.014   1_455 S
H368   O390    1.014   .     S
H374   N577    1.032   1_455 S
N375   Zn400   2.015   .     S
N376   Zn399   2.015   .     S
N377   C407    1.432   .     S
N377   H474    1.032   .     S
N378   C508    1.433   1_455 S
N378   H543    1.030   1_455 S
O383   Zn399   1.998   .     S
O388   H467    1.014   .     S
O391   Zn400   1.998   .     S
O392   Zn400   2.008   .     S
O393   Zn399   2.008   .     S
O394   Zn399   1.982   .     S
O395   Zn400   1.982   .     S
O396   Zn400   1.973   .     S
O397   Zn399   1.973   .     S
C401   O492    1.282   .     A
C401   O483    1.307   .     A
C401   C414    1.461   .     S
C402   C404    1.393   .     A
C402   H473    1.083   .     S
C402   C437    1.405   .     A
C403   C423    1.424   .     A
C403   C438    1.397   .     A
C403   C1004   1.517   1_554 S
C404   C433    1.422   .     A
C404   C1003   1.517   .     S
C405   O494    1.275   .     A
C405   C407    1.400   .     S
C405   O496    1.280   .     A
C406   O497    1.281   .     A
C406   C408    1.402   .     S
C406   O495    1.276   .     A
C408   C507    1.343   .     S
C408   N578    1.433   .     S
C409   H439    1.084   .     S
C409   C420    1.393   .     A
C409   C411    1.373   .     A
C410   C421    1.395   .     A
C410   H450    1.084   .     S
C410   C413    1.377   .     A
C411   C414    1.394   .     A
C411   H461    1.074   .     S
C412   O491    1.297   .     A
C412   C415    1.446   .     S
C412   O493    1.286   .     A
C413   C415    1.398   .     A
C413   H469    1.084   .     S
C414   C416    1.427   .     A
C415   C417    1.417   .     A
C416   C425    1.482   .     S
C416   C418    1.404   .     A
C417   C419    1.401   .     A
C417   C426    1.480   .     S
C418   N479    1.430   .     S
C418   C420    1.408   .     A
C419   C421    1.409   .     A
C419   N480    1.429   .     S
C421   C120    1.451   1_565 S
C422   H440    1.111   .     S
C422   N477    1.448   .     S
C422   H442    1.108   .     S
C422   H541    1.112   .     S
C423   C434    1.418   .     A
C423   N481    1.424   .     S
C424   N478    1.450   .     S
C424   H444    1.110   .     S
C424   H446    1.109   .     S
C425   O484    1.396   .     S
C425   O498    1.223   .     D
C426   O486    1.393   .     S
C426   O485    1.223   .     D
C427   N479    1.447   .     S
C427   H453    1.111   .     S
C428   H457    1.111   .     S
C428   N480    1.446   .     S
C428   H155    1.110   1_565 S
C428   H156    1.110   1_565 S
C429   N481    1.447   .     S
C429   H462    1.112   .     S
C429   H1059   1.111   1_554 S
C429   H1060   1.110   1_554 S
C430   N482    1.447   .     S
C430   H466    1.112   .     S
C430   H1064   1.110   .     S
C430   H1065   1.110   .     S
C431   O487    1.221   .     D
C431   O488    1.398   .     S
C431   C436    1.473   .     S
C432   O490    1.400   .     S
C432   C437    1.479   .     S
C432   O489    1.218   .     D
C433   N482    1.423   .     S
C433   C435    1.420   .     A
C434   N475    1.364   .     A
C434   H470    1.081   .     S
C435   H471    1.077   .     S
C435   N476    1.364   .     A
C436   N475    1.379   .     A
C436   C438    1.404   .     A
C437   N476    1.383   .     A
C438   H472    1.084   .     S
H443   N578    1.030   .     S
H445   C524    1.111   .     S
H447   O484    1.014   .     S
H448   O486    1.014   .     S
H449   N479    1.031   .     S
H451   C127    1.110   1_565 S
H452   C127    1.109   1_565 S
H454   N480    1.029   .     S
H458   N481    1.032   .     S
H459   C1029   1.111   .     S
H460   C1029   1.110   .     S
H463   N482    1.032   .     S
H464   C1030   1.110   1_554 S
H465   C1030   1.110   1_554 S
H468   O490    1.014   .     S
N475   Zn500   2.015   .     S
N476   Zn499   2.015   .     S
N477   C507    1.432   .     S
N477   H574    1.032   .     S
O483   Zn499   1.998   .     S
O488   H567    1.014   .     S
O491   Zn500   1.998   .     S
O492   Zn500   2.008   .     S
O493   Zn499   2.008   .     S
O494   Zn499   1.982   .     S
O495   Zn500   1.982   .     S
O496   Zn500   1.973   .     S
O497   Zn499   1.973   .     S
C501   O592    1.282   .     A
C501   O583    1.307   .     A
C501   C514    1.461   .     S
C502   C504    1.393   .     A
C502   H573    1.083   .     S
C502   C537    1.405   .     A
C503   C523    1.424   .     A
C503   C538    1.397   .     A
C503   C1104   1.517   1_554 S
C504   C533    1.422   .     A
C504   C1103   1.517   .     S
C505   O594    1.275   .     A
C505   C507    1.400   .     S
C505   O596    1.280   .     A
C506   O597    1.281   .     A
C506   C508    1.402   .     S
C506   O595    1.276   .     A
C508   C307    1.343   1_655 S
C508   N378    1.433   1_655 S
C509   H539    1.084   .     S
C509   C520    1.393   .     A
C509   C511    1.373   .     A
C510   C521    1.395   .     A
C510   H550    1.084   .     S
C510   C513    1.377   .     A
C511   C514    1.394   .     A
C511   H561    1.074   .     S
C512   O591    1.297   .     A
C512   C515    1.446   .     S
C512   O593    1.286   .     A
C513   C515    1.398   .     A
C513   H569    1.084   .     S
C514   C516    1.427   .     A
C515   C517    1.417   .     A
C516   C525    1.482   .     S
C516   C518    1.404   .     A
C517   C519    1.401   .     A
C517   C526    1.480   .     S
C518   N579    1.430   .     S
C518   C520    1.408   .     A
C519   C521    1.409   .     A
C519   N580    1.429   .     S
C521   C220    1.451   1_565 S
C522   H540    1.111   .     S
C522   N577    1.448   .     S
C522   H542    1.108   .     S
C522   H341    1.112   1_655 S
C523   C534    1.418   .     A
C523   N581    1.424   .     S
C524   N578    1.450   .     S
C524   H544    1.110   .     S
C524   H546    1.109   .     S
C525   O584    1.396   .     S
C525   O598    1.223   .     D
C526   O586    1.393   .     S
C526   O585    1.223   .     D
C527   N579    1.447   .     S
C527   H553    1.111   .     S
C528   H557    1.111   .     S
C528   N580    1.446   .     S
C528   H255    1.110   1_565 S
C528   H256    1.110   1_565 S
C529   N581    1.447   .     S
C529   H562    1.112   .     S
C529   H1159   1.111   1_554 S
C529   H1160   1.110   1_554 S
C530   N582    1.447   .     S
C530   H566    1.112   .     S
C530   H1164   1.110   .     S
C530   H1165   1.110   .     S
C531   O587    1.221   .     D
C531   O588    1.398   .     S
C531   C536    1.473   .     S
C532   O590    1.400   .     S
C532   C537    1.479   .     S
C532   O589    1.218   .     D
C533   N582    1.423   .     S
C533   C535    1.420   .     A
C534   N575    1.364   .     A
C534   H570    1.081   .     S
C535   H571    1.077   .     S
C535   N576    1.364   .     A
C536   N575    1.379   .     A
C536   C538    1.404   .     A
C537   N576    1.383   .     A
C538   H572    1.084   .     S
H543   N378    1.030   1_655 S
H545   C324    1.111   1_655 S
H547   O584    1.014   .     S
H548   O586    1.014   .     S
H549   N579    1.031   .     S
H551   C227    1.110   1_565 S
H552   C227    1.109   1_565 S
H554   N580    1.029   .     S
H558   N581    1.032   .     S
H559   C1129   1.111   .     S
H560   C1129   1.110   .     S
H563   N582    1.032   .     S
H564   C1130   1.110   1_554 S
H565   C1130   1.110   1_554 S
H568   O590    1.014   .     S
N575   Zn600   2.015   .     S
N576   Zn599   2.015   .     S
N577   C307    1.432   1_655 S
N577   H374    1.032   1_655 S
O583   Zn599   1.998   .     S
O588   H367    1.014   1_655 S
O591   Zn600   1.998   .     S
O592   Zn600   2.008   .     S
O593   Zn599   2.008   .     S
O594   Zn599   1.982   .     S
O595   Zn600   1.982   .     S
O596   Zn600   1.973   .     S
O597   Zn599   1.973   .     S
C601   O692    1.282   .     A
C601   O683    1.307   .     A
C601   C614    1.461   .     S
C602   C604    1.393   .     A
C602   H673    1.083   .     S
C602   C637    1.405   .     A
C603   C623    1.424   .     A
C603   C638    1.397   .     A
C604   C633    1.422   .     A
C604   C3      1.517   1_556 S
C605   O694    1.275   .     A
C605   C607    1.400   .     S
C605   O696    1.280   .     A
C606   O697    1.281   .     A
C606   C608    1.402   .     S
C606   O695    1.276   .     A
C607   C808    1.343   1_455 S
C607   N877    1.432   1_455 S
C608   C707    1.343   .     S
C608   N778    1.433   .     S
C609   H639    1.084   .     S
C609   C620    1.393   .     A
C609   C611    1.373   .     A
C610   C621    1.395   .     A
C610   H650    1.084   .     S
C610   C613    1.377   .     A
C611   C614    1.394   .     A
C611   H661    1.074   .     S
C612   O691    1.297   .     A
C612   C615    1.446   .     S
C612   O693    1.286   .     A
C613   C615    1.398   .     A
C613   H669    1.084   .     S
C614   C616    1.427   .     A
C615   C617    1.417   .     A
C616   C625    1.482   .     S
C616   C618    1.404   .     A
C617   C619    1.401   .     A
C617   C626    1.480   .     S
C618   N679    1.430   .     S
C618   C620    1.408   .     A
C619   C621    1.409   .     A
C619   N680    1.429   .     S
C620   C921    1.451   1_545 S
C621   C920    1.451   .     S
C622   H640    1.111   .     S
C622   N677    1.448   .     S
C622   H642    1.108   .     S
C622   H741    1.112   .     S
C623   C634    1.418   .     A
C623   N681    1.424   .     S
C624   N678    1.450   .     S
C624   H644    1.110   .     S
C624   H646    1.109   .     S
C624   H845    1.111   1_455 S
C625   O684    1.396   .     S
C625   O698    1.223   .     D
C626   O686    1.393   .     S
C626   O685    1.223   .     D
C627   N679    1.447   .     S
C627   H653    1.111   .     S
C627   H951    1.110   1_545 S
C627   H952    1.109   1_545 S
C628   H657    1.111   .     S
C628   N680    1.446   .     S
C628   H955    1.110   .     S
C628   H956    1.110   .     S
C629   N681    1.447   .     S
C629   H662    1.112   .     S
C630   N682    1.447   .     S
C630   H666    1.112   .     S
C630   H64     1.110   1_556 S
C630   H65     1.110   1_556 S
C631   O687    1.221   .     D
C631   O688    1.398   .     S
C631   C636    1.473   .     S
C632   O690    1.400   .     S
C632   C637    1.479   .     S
C632   O689    1.218   .     D
C633   N682    1.423   .     S
C633   C635    1.420   .     A
C634   N675    1.364   .     A
C634   H670    1.081   .     S
C635   H671    1.077   .     S
C635   N676    1.364   .     A
C636   N675    1.379   .     A
C636   C638    1.404   .     A
C637   N676    1.383   .     A
C638   H672    1.084   .     S
H641   C822    1.112   1_455 S
H643   N778    1.030   .     S
H645   C724    1.111   .     S
H647   O684    1.014   .     S
H648   O686    1.014   .     S
H649   N679    1.031   .     S
H651   C927    1.110   .     S
H652   C927    1.109   .     S
H654   N680    1.029   .     S
H655   C928    1.110   1_545 S
H656   C928    1.110   1_545 S
H658   N681    1.032   .     S
H659   C29     1.111   1_556 S
H660   C29     1.110   1_556 S
H663   N682    1.032   .     S
H667   O888    1.014   1_455 S
H668   O690    1.014   .     S
H674   N877    1.032   1_455 S
N675   Zn700   2.015   .     S
N676   Zn699   2.015   .     S
N677   C707    1.432   .     S
N677   H774    1.032   .     S
N678   C808    1.433   1_455 S
N678   H843    1.030   1_455 S
O683   Zn699   1.998   .     S
O688   H767    1.014   .     S
O691   Zn700   1.998   .     S
O692   Zn700   2.008   .     S
O693   Zn699   2.008   .     S
O694   Zn699   1.982   .     S
O695   Zn700   1.982   .     S
O696   Zn700   1.973   .     S
O697   Zn699   1.973   .     S
C701   O792    1.282   .     A
C701   O783    1.307   .     A
C701   C714    1.461   .     S
C702   C704    1.393   .     A
C702   H773    1.083   .     S
C702   C737    1.405   .     A
C703   C723    1.424   .     A
C703   C738    1.397   .     A
C704   C733    1.422   .     A
C704   C103    1.517   1_556 S
C705   O794    1.275   .     A
C705   C707    1.400   .     S
C705   O796    1.280   .     A
C706   O797    1.281   .     A
C706   C708    1.402   .     S
C706   O795    1.276   .     A
C708   C807    1.343   .     S
C708   N878    1.433   .     S
C709   H739    1.084   .     S
C709   C720    1.393   .     A
C709   C711    1.373   .     A
C710   C721    1.395   .     A
C710   H750    1.084   .     S
C710   C713    1.377   .     A
C711   C714    1.394   .     A
C711   H761    1.074   .     S
C712   O791    1.297   .     A
C712   C715    1.446   .     S
C712   O793    1.286   .     A
C713   C715    1.398   .     A
C713   H769    1.084   .     S
C714   C716    1.427   .     A
C715   C717    1.417   .     A
C716   C725    1.482   .     S
C716   C718    1.404   .     A
C717   C719    1.401   .     A
C717   C726    1.480   .     S
C718   N779    1.430   .     S
C718   C720    1.408   .     A
C719   C721    1.409   .     A
C719   N780    1.429   .     S
C720   C1021   1.451   1_545 S
C721   C1020   1.451   .     S
C722   H740    1.111   .     S
C722   N777    1.448   .     S
C722   H742    1.108   .     S
C722   H841    1.112   .     S
C723   C734    1.418   .     A
C723   N781    1.424   .     S
C724   N778    1.450   .     S
C724   H744    1.110   .     S
C724   H746    1.109   .     S
C725   O784    1.396   .     S
C725   O798    1.223   .     D
C726   O786    1.393   .     S
C726   O785    1.223   .     D
C727   N779    1.447   .     S
C727   H753    1.111   .     S
C727   H1051   1.110   1_545 S
C727   H1052   1.109   1_545 S
C728   H757    1.111   .     S
C728   N780    1.446   .     S
C728   H1055   1.110   .     S
C728   H1056   1.110   .     S
C729   N781    1.447   .     S
C729   H762    1.112   .     S
C730   N782    1.447   .     S
C730   H766    1.112   .     S
C730   H164    1.110   1_556 S
C730   H165    1.110   1_556 S
C731   O787    1.221   .     D
C731   O788    1.398   .     S
C731   C736    1.473   .     S
C732   O790    1.400   .     S
C732   C737    1.479   .     S
C732   O789    1.218   .     D
C733   N782    1.423   .     S
C733   C735    1.420   .     A
C734   N775    1.364   .     A
C734   H770    1.081   .     S
C735   H771    1.077   .     S
C735   N776    1.364   .     A
C736   N775    1.379   .     A
C736   C738    1.404   .     A
C737   N776    1.383   .     A
C738   H772    1.084   .     S
H743   N878    1.030   .     S
H745   C824    1.111   .     S
H747   O784    1.014   .     S
H748   O786    1.014   .     S
H749   N779    1.031   .     S
H751   C1027   1.110   .     S
H752   C1027   1.109   .     S
H754   N780    1.029   .     S
H755   C1028   1.110   1_545 S
H756   C1028   1.110   1_545 S
H758   N781    1.032   .     S
H759   C129    1.111   1_556 S
H760   C129    1.110   1_556 S
H763   N782    1.032   .     S
H768   O790    1.014   .     S
N775   Zn800   2.015   .     S
N776   Zn799   2.015   .     S
N777   C807    1.432   .     S
N777   H874    1.032   .     S
O783   Zn799   1.998   .     S
O788   H867    1.014   .     S
O791   Zn800   1.998   .     S
O792   Zn800   2.008   .     S
O793   Zn799   2.008   .     S
O794   Zn799   1.982   .     S
O795   Zn800   1.982   .     S
O796   Zn800   1.973   .     S
O797   Zn799   1.973   .     S
C801   O892    1.282   .     A
C801   O883    1.307   .     A
C801   C814    1.461   .     S
C802   C804    1.393   .     A
C802   H873    1.083   .     S
C802   C837    1.405   .     A
C803   C823    1.424   .     A
C803   C838    1.397   .     A
C804   C833    1.422   .     A
C804   C203    1.517   1_556 S
C805   O894    1.275   .     A
C805   C807    1.400   .     S
C805   O896    1.280   .     A
C806   O897    1.281   .     A
C806   C808    1.402   .     S
C806   O895    1.276   .     A
C808   C607    1.343   1_655 S
C808   N678    1.433   1_655 S
C809   H839    1.084   .     S
C809   C820    1.393   .     A
C809   C811    1.373   .     A
C810   C821    1.395   .     A
C810   H850    1.084   .     S
C810   C813    1.377   .     A
C811   C814    1.394   .     A
C811   H861    1.074   .     S
C812   O891    1.297   .     A
C812   C815    1.446   .     S
C812   O893    1.286   .     A
C813   C815    1.398   .     A
C813   H869    1.084   .     S
C814   C816    1.427   .     A
C815   C817    1.417   .     A
C816   C825    1.482   .     S
C816   C818    1.404   .     A
C817   C819    1.401   .     A
C817   C826    1.480   .     S
C818   N879    1.430   .     S
C818   C820    1.408   .     A
C819   C821    1.409   .     A
C819   N880    1.429   .     S
C820   C1121   1.451   1_545 S
C821   C1120   1.451   .     S
C822   H840    1.111   .     S
C822   N877    1.448   .     S
C822   H842    1.108   .     S
C822   H641    1.112   1_655 S
C823   C834    1.418   .     A
C823   N881    1.424   .     S
C824   N878    1.450   .     S
C824   H844    1.110   .     S
C824   H846    1.109   .     S
C825   O884    1.396   .     S
C825   O898    1.223   .     D
C826   O886    1.393   .     S
C826   O885    1.223   .     D
C827   N879    1.447   .     S
C827   H853    1.111   .     S
C827   H1151   1.110   1_545 S
C827   H1152   1.109   1_545 S
C828   H857    1.111   .     S
C828   N880    1.446   .     S
C828   H1155   1.110   .     S
C828   H1156   1.110   .     S
C829   N881    1.447   .     S
C829   H862    1.112   .     S
C830   N882    1.447   .     S
C830   H866    1.112   .     S
C830   H264    1.110   1_556 S
C830   H265    1.110   1_556 S
C831   O887    1.221   .     D
C831   O888    1.398   .     S
C831   C836    1.473   .     S
C832   O890    1.400   .     S
C832   C837    1.479   .     S
C832   O889    1.218   .     D
C833   N882    1.423   .     S
C833   C835    1.420   .     A
C834   N875    1.364   .     A
C834   H870    1.081   .     S
C835   H871    1.077   .     S
C835   N876    1.364   .     A
C836   N875    1.379   .     A
C836   C838    1.404   .     A
C837   N876    1.383   .     A
C838   H872    1.084   .     S
H843   N678    1.030   1_655 S
H845   C624    1.111   1_655 S
H847   O884    1.014   .     S
H848   O886    1.014   .     S
H849   N879    1.031   .     S
H851   C1127   1.110   .     S
H852   C1127   1.109   .     S
H854   N880    1.029   .     S
H855   C1128   1.110   1_545 S
H856   C1128   1.110   1_545 S
H858   N881    1.032   .     S
H859   C229    1.111   1_556 S
H860   C229    1.110   1_556 S
H863   N882    1.032   .     S
H868   O890    1.014   .     S
N875   Zn900   2.015   .     S
N876   Zn899   2.015   .     S
N877   C607    1.432   1_655 S
N877   H674    1.032   1_655 S
O883   Zn899   1.998   .     S
O888   H667    1.014   1_655 S
O891   Zn900   1.998   .     S
O892   Zn900   2.008   .     S
O893   Zn899   2.008   .     S
O894   Zn899   1.982   .     S
O895   Zn900   1.982   .     S
O896   Zn900   1.973   .     S
O897   Zn899   1.973   .     S
C901   O992    1.282   .     A
C901   O983    1.307   .     A
C901   C914    1.461   .     S
C902   C904    1.393   .     A
C902   H973    1.083   .     S
C902   C937    1.405   .     A
C903   C923    1.424   .     A
C903   C938    1.397   .     A
C904   C933    1.422   .     A
C904   C303    1.517   1_556 S
C905   O994    1.275   .     A
C905   C907    1.400   .     S
C905   O996    1.280   .     A
C906   O997    1.281   .     A
C906   C908    1.402   .     S
C906   O995    1.276   .     A
C907   C1108   1.343   1_455 S
C907   N1177   1.432   1_455 S
C908   C1007   1.343   .     S
C908   N1078   1.433   .     S
C909   H939    1.084   .     S
C909   C920    1.393   .     A
C909   C911    1.373   .     A
C910   C921    1.395   .     A
C910   H950    1.084   .     S
C910   C913    1.377   .     A
C911   C914    1.394   .     A
C911   H961    1.074   .     S
C912   O991    1.297   .     A
C912   C915    1.446   .     S
C912   O993    1.286   .     A
C913   C915    1.398   .     A
C913   H969    1.084   .     S
C914   C916    1.427   .     A
C915   C917    1.417   .     A
C916   C925    1.482   .     S
C916   C918    1.404   .     A
C917   C919    1.401   .     A
C917   C926    1.480   .     S
C918   N979    1.430   .     S
C918   C920    1.408   .     A
C919   C921    1.409   .     A
C919   N980    1.429   .     S
C921   C620    1.451   1_565 S
C922   H940    1.111   .     S
C922   N977    1.448   .     S
C922   H942    1.108   .     S
C922   H1041   1.112   .     S
C923   C934    1.418   .     A
C923   N981    1.424   .     S
C924   N978    1.450   .     S
C924   H944    1.110   .     S
C924   H946    1.109   .     S
C924   H1145   1.111   1_455 S
C925   O984    1.396   .     S
C925   O998    1.223   .     D
C926   O986    1.393   .     S
C926   O985    1.223   .     D
C927   N979    1.447   .     S
C927   H953    1.111   .     S
C928   H957    1.111   .     S
C928   N980    1.446   .     S
C928   H655    1.110   1_565 S
C928   H656    1.110   1_565 S
C929   N981    1.447   .     S
C929   H962    1.112   .     S
C930   N982    1.447   .     S
C930   H966    1.112   .     S
C930   H364    1.110   1_556 S
C930   H365    1.110   1_556 S
C931   O987    1.221   .     D
C931   O988    1.398   .     S
C931   C936    1.473   .     S
C932   O990    1.400   .     S
C932   C937    1.479   .     S
C932   O989    1.218   .     D
C933   N982    1.423   .     S
C933   C935    1.420   .     A
C934   N975    1.364   .     A
C934   H970    1.081   .     S
C935   H971    1.077   .     S
C935   N976    1.364   .     A
C936   N975    1.379   .     A
C936   C938    1.404   .     A
C937   N976    1.383   .     A
C938   H972    1.084   .     S
H941   C1122   1.112   1_455 S
H943   N1078   1.030   .     S
H945   C1024   1.111   .     S
H947   O984    1.014   .     S
H948   O986    1.014   .     S
H949   N979    1.031   .     S
H951   C627    1.110   1_565 S
H952   C627    1.109   1_565 S
H954   N980    1.029   .     S
H958   N981    1.032   .     S
H959   C329    1.111   1_556 S
H960   C329    1.110   1_556 S
H963   N982    1.032   .     S
H967   O1188   1.014   1_455 S
H968   O990    1.014   .     S
H974   N1177   1.032   1_455 S
N975   Zn1000  2.015   .     S
N976   Zn999   2.015   .     S
N977   C1007   1.432   .     S
N977   H1074   1.032   .     S
N978   C1108   1.433   1_455 S
N978   H1143   1.030   1_455 S
O983   Zn999   1.998   .     S
O988   H1067   1.014   .     S
O991   Zn1000  1.998   .     S
O992   Zn1000  2.008   .     S
O993   Zn999   2.008   .     S
O994   Zn999   1.982   .     S
O995   Zn1000  1.982   .     S
O996   Zn1000  1.973   .     S
O997   Zn999   1.973   .     S
C1001  O1092   1.282   .     A
C1001  O1083   1.307   .     A
C1001  C1014   1.461   .     S
C1002  C1004   1.393   .     A
C1002  H1073   1.083   .     S
C1002  C1037   1.405   .     A
C1003  C1023   1.424   .     A
C1003  C1038   1.397   .     A
C1004  C1033   1.422   .     A
C1004  C403    1.517   1_556 S
C1005  O1094   1.275   .     A
C1005  C1007   1.400   .     S
C1005  O1096   1.280   .     A
C1006  O1097   1.281   .     A
C1006  C1008   1.402   .     S
C1006  O1095   1.276   .     A
C1008  C1107   1.343   .     S
C1008  N1178   1.433   .     S
C1009  H1039   1.084   .     S
C1009  C1020   1.393   .     A
C1009  C1011   1.373   .     A
C1010  C1021   1.395   .     A
C1010  H1050   1.084   .     S
C1010  C1013   1.377   .     A
C1011  C1014   1.394   .     A
C1011  H1061   1.074   .     S
C1012  O1091   1.297   .     A
C1012  C1015   1.446   .     S
C1012  O1093   1.286   .     A
C1013  C1015   1.398   .     A
C1013  H1069   1.084   .     S
C1014  C1016   1.427   .     A
C1015  C1017   1.417   .     A
C1016  C1025   1.482   .     S
C1016  C1018   1.404   .     A
C1017  C1019   1.401   .     A
C1017  C1026   1.480   .     S
C1018  N1079   1.430   .     S
C1018  C1020   1.408   .     A
C1019  C1021   1.409   .     A
C1019  N1080   1.429   .     S
C1021  C720    1.451   1_565 S
C1022  H1040   1.111   .     S
C1022  N1077   1.448   .     S
C1022  H1042   1.108   .     S
C1022  H1141   1.112   .     S
C1023  C1034   1.418   .     A
C1023  N1081   1.424   .     S
C1024  N1078   1.450   .     S
C1024  H1044   1.110   .     S
C1024  H1046   1.109   .     S
C1025  O1084   1.396   .     S
C1025  O1098   1.223   .     D
C1026  O1086   1.393   .     S
C1026  O1085   1.223   .     D
C1027  N1079   1.447   .     S
C1027  H1053   1.111   .     S
C1028  H1057   1.111   .     S
C1028  N1080   1.446   .     S
C1028  H755    1.110   1_565 S
C1028  H756    1.110   1_565 S
C1029  N1081   1.447   .     S
C1029  H1062   1.112   .     S
C1030  N1082   1.447   .     S
C1030  H1066   1.112   .     S
C1030  H464    1.110   1_556 S
C1030  H465    1.110   1_556 S
C1031  O1087   1.221   .     D
C1031  O1088   1.398   .     S
C1031  C1036   1.473   .     S
C1032  O1090   1.400   .     S
C1032  C1037   1.479   .     S
C1032  O1089   1.218   .     D
C1033  N1082   1.423   .     S
C1033  C1035   1.420   .     A
C1034  N1075   1.364   .     A
C1034  H1070   1.081   .     S
C1035  H1071   1.077   .     S
C1035  N1076   1.364   .     A
C1036  N1075   1.379   .     A
C1036  C1038   1.404   .     A
C1037  N1076   1.383   .     A
C1038  H1072   1.084   .     S
H1043  N1178   1.030   .     S
H1045  C1124   1.111   .     S
H1047  O1084   1.014   .     S
H1048  O1086   1.014   .     S
H1049  N1079   1.031   .     S
H1051  C727    1.110   1_565 S
H1052  C727    1.109   1_565 S
H1054  N1080   1.029   .     S
H1058  N1081   1.032   .     S
H1059  C429    1.111   1_556 S
H1060  C429    1.110   1_556 S
H1063  N1082   1.032   .     S
H1068  O1090   1.014   .     S
N1075  Zn1100  2.015   .     S
N1076  Zn1099  2.015   .     S
N1077  C1107   1.432   .     S
N1077  H1174   1.032   .     S
O1083  Zn1099  1.998   .     S
O1088  H1167   1.014   .     S
O1091  Zn1100  1.998   .     S
O1092  Zn1100  2.008   .     S
O1093  Zn1099  2.008   .     S
O1094  Zn1099  1.982   .     S
O1095  Zn1100  1.982   .     S
O1096  Zn1100  1.973   .     S
O1097  Zn1099  1.973   .     S
C1101  O1192   1.282   .     A
C1101  O1183   1.307   .     A
C1101  C1114   1.461   .     S
C1102  C1104   1.393   .     A
C1102  H1173   1.083   .     S
C1102  C1137   1.405   .     A
C1103  C1123   1.424   .     A
C1103  C1138   1.397   .     A
C1104  C1133   1.422   .     A
C1104  C503    1.517   1_556 S
C1105  O1194   1.275   .     A
C1105  C1107   1.400   .     S
C1105  O1196   1.280   .     A
C1106  O1197   1.281   .     A
C1106  C1108   1.402   .     S
C1106  O1195   1.276   .     A
C1108  C907    1.343   1_655 S
C1108  N978    1.433   1_655 S
C1109  H1139   1.084   .     S
C1109  C1120   1.393   .     A
C1109  C1111   1.373   .     A
C1110  C1121   1.395   .     A
C1110  H1150   1.084   .     S
C1110  C1113   1.377   .     A
C1111  C1114   1.394   .     A
C1111  H1161   1.074   .     S
C1112  O1191   1.297   .     A
C1112  C1115   1.446   .     S
C1112  O1193   1.286   .     A
C1113  C1115   1.398   .     A
C1113  H1169   1.084   .     S
C1114  C1116   1.427   .     A
C1115  C1117   1.417   .     A
C1116  C1125   1.482   .     S
C1116  C1118   1.404   .     A
C1117  C1119   1.401   .     A
C1117  C1126   1.480   .     S
C1118  N1179   1.430   .     S
C1118  C1120   1.408   .     A
C1119  C1121   1.409   .     A
C1119  N1180   1.429   .     S
C1121  C820    1.451   1_565 S
C1122  H1140   1.111   .     S
C1122  N1177   1.448   .     S
C1122  H1142   1.108   .     S
C1122  H941    1.112   1_655 S
C1123  C1134   1.418   .     A
C1123  N1181   1.424   .     S
C1124  N1178   1.450   .     S
C1124  H1144   1.110   .     S
C1124  H1146   1.109   .     S
C1125  O1184   1.396   .     S
C1125  O1198   1.223   .     D
C1126  O1186   1.393   .     S
C1126  O1185   1.223   .     D
C1127  N1179   1.447   .     S
C1127  H1153   1.111   .     S
C1128  H1157   1.111   .     S
C1128  N1180   1.446   .     S
C1128  H855    1.110   1_565 S
C1128  H856    1.110   1_565 S
C1129  N1181   1.447   .     S
C1129  H1162   1.112   .     S
C1130  N1182   1.447   .     S
C1130  H1166   1.112   .     S
C1130  H564    1.110   1_556 S
C1130  H565    1.110   1_556 S
C1131  O1187   1.221   .     D
C1131  O1188   1.398   .     S
C1131  C1136   1.473   .     S
C1132  O1190   1.400   .     S
C1132  C1137   1.479   .     S
C1132  O1189   1.218   .     D
C1133  N1182   1.423   .     S
C1133  C1135   1.420   .     A
C1134  N1175   1.364   .     A
C1134  H1170   1.081   .     S
C1135  H1171   1.077   .     S
C1135  N1176   1.364   .     A
C1136  N1175   1.379   .     A
C1136  C1138   1.404   .     A
C1137  N1176   1.383   .     A
C1138  H1172   1.084   .     S
H1143  N978    1.030   1_655 S
H1145  C924    1.111   1_655 S
H1147  O1184   1.014   .     S
H1148  O1186   1.014   .     S
H1149  N1179   1.031   .     S
H1151  C827    1.110   1_565 S
H1152  C827    1.109   1_565 S
H1154  N1180   1.029   .     S
H1158  N1181   1.032   .     S
H1159  C529    1.111   1_556 S
H1160  C529    1.110   1_556 S
H1163  N1182   1.032   .     S
H1168  O1190   1.014   .     S
N1175  Zn1200  2.015   .     S
N1176  Zn1199  2.015   .     S
N1177  C907    1.432   1_655 S
N1177  H974    1.032   1_655 S
O1183  Zn1199  1.998   .     S
O1188  H967    1.014   1_655 S
O1191  Zn1200  1.998   .     S
O1192  Zn1200  2.008   .     S
O1193  Zn1199  2.008   .     S
O1194  Zn1199  1.982   .     S
O1195  Zn1200  1.982   .     S
O1196  Zn1200  1.973   .     S
O1197  Zn1199  1.973   .     S
