data_str_m3_o1_o16_pcu_sym.207
_audit_creation_date              2020-01-03
_audit_creation_method            'Materials Studio'
_symmetry_space_group_name_H-M    'P1'
_symmetry_Int_Tables_number       1
_symmetry_cell_setting            triclinic
loop_
_symmetry_equiv_pos_as_xyz
  x,y,z
_cell_length_a                    29.5103
_cell_length_b                    32.0061
_cell_length_c                    26.0925
_cell_angle_alpha                 90.0162
_cell_angle_beta                  71.7949
_cell_angle_gamma                 90.1053
loop_
_atom_site_label
_atom_site_type_symbol
_atom_site_fract_x
_atom_site_fract_y
_atom_site_fract_z
_atom_site_U_iso_or_equiv
_atom_site_adp_type
_atom_site_occupancy
C1     C     0.16678   0.24665   0.24979   0.00000  Uiso   1.00
C2     C     0.15126   0.20019   0.48522   0.00000  Uiso   1.00
C3     C     0.16514   0.20045   0.42878   0.00000  Uiso   1.00
C4     C     0.18612   0.18895   0.01016   0.00000  Uiso   1.00
C5     C     0.23432   0.18138   0.47813   0.00000  Uiso   1.00
C6     C     0.24815   0.19274   0.42378   0.00000  Uiso   1.00
C7     C     0.21415   0.20397   0.40011   0.00000  Uiso   1.00
C8     C     0.17391   0.18305   0.06558   0.00000  Uiso   1.00
C9     C     0.25412   0.16102   0.05811   0.00000  Uiso   1.00
C10    C     0.12973   0.19730   0.40278   0.00000  Uiso   1.00
C11    C     0.19250   0.31217   0.27732   0.00000  Uiso   1.00
C12    C     0.14210   0.17798   0.34843   0.00000  Uiso   1.00
C13    C     0.19241   0.02166   0.27660   0.00000  Uiso   1.00
C14    C     0.16728   0.04247   0.24696   0.00000  Uiso   1.00
C15    C     0.14269   0.02073   0.21694   0.00000  Uiso   1.00
C16    C     0.14236   0.31115   0.21865   0.00000  Uiso   1.00
C17    C     0.16708   0.29067   0.24879   0.00000  Uiso   1.00
C18    C     0.29966   0.14185   0.28495   0.00000  Uiso   1.00
C19    C     0.01431   0.14183   0.28491   0.00000  Uiso   1.00
C20    C     0.03366   0.19153   0.21512   0.00000  Uiso   1.00
C21    C     0.31902   0.19150   0.21509   0.00000  Uiso   1.00
C22    C     0.16698   0.08666   0.24847   0.00000  Uiso   1.00
C23    C     0.19257   0.16680   0.14793   0.00000  Uiso   1.00
C24    C     0.26749   0.16461   0.00206   0.00000  Uiso   1.00
C25    C     0.20763   0.17039   0.08956   0.00000  Uiso   1.00
C26    C     0.08356   0.21227   0.43001   0.00000  Uiso   1.00
C27    C     0.07040   0.21956   0.48611   0.00000  Uiso   1.00
C28    C     0.10339   0.21079   0.01363   0.00000  Uiso   1.00
H29    H     0.27939   0.14933   0.07715   0.00000  Uiso   1.00
H30    H     0.21129   0.03852   0.29976   0.00000  Uiso   1.00
H31    H     0.12378   0.29377   0.19561   0.00000  Uiso   1.00
H32    H     0.27374   0.12203   0.31293   0.00000  Uiso   1.00
H33    H     0.02480   0.12193   0.31271   0.00000  Uiso   1.00
H34    H     0.05957   0.21142   0.18722   0.00000  Uiso   1.00
H35    H     0.30857   0.21133   0.18717   0.00000  Uiso   1.00
H36    H     0.28499   0.19321   0.39900   0.00000  Uiso   1.00
H37    H     0.13796   0.18799   0.09120   0.00000  Uiso   1.00
H38    H     0.09146   0.21494   0.05672   0.00000  Uiso   1.00
H39    H     0.22674   0.21481   0.35878   0.00000  Uiso   1.00
H40    H     0.21151   0.29588   0.30075   0.00000  Uiso   1.00
N41    N     0.04760   0.16668   0.25001   0.00000  Uiso   1.00
N42    N     0.28573   0.16665   0.25000   0.00000  Uiso   1.00
O43    O     0.12846   0.22775   0.25000   0.00000  Uiso   1.00
O44    O     0.20490   0.22774   0.25000   0.00000  Uiso   1.00
O45    O     0.10947   0.16666   0.32681   0.00000  Uiso   1.00
O46    O     0.18591   0.16665   0.32681   0.00000  Uiso   1.00
O47    O     0.12843   0.10559   0.24999   0.00000  Uiso   1.00
O48    O     0.20488   0.10558   0.24999   0.00000  Uiso   1.00
O49    O     0.14742   0.16668   0.17319   0.00000  Uiso   1.00
O50    O     0.22387   0.16667   0.17319   0.00000  Uiso   1.00
Zn51   Zn    0.11562   0.16667   0.25000   0.00000  Uiso   1.00
Zn52   Zn    0.21771   0.16666   0.25000   0.00000  Uiso   1.00
Br53   Br    0.11177   0.04718   0.17056   0.00000  Uiso   1.00
C54    C     0.31487   0.14756   0.47093   0.00000  Uiso   1.00
H55    H     0.00923   0.14480   0.49001   0.00000  Uiso   1.00
O56    O     0.32268   0.13394   0.42530   0.00000  Uiso   1.00
Br57   Br    0.04259   0.22974   0.38905   0.00000  Uiso   1.00
C58    C     0.02214   0.23538   0.01668   0.00000  Uiso   1.00
H59    H     0.32926   0.24183   0.49652   0.00000  Uiso   1.00
O60    O     0.01077   0.24131   0.06530   0.00000  Uiso   1.00
C61    C     0.50011   0.24665   0.24979   0.00000  Uiso   1.00
C62    C     0.48460   0.20019   0.48522   0.00000  Uiso   1.00
C63    C     0.49847   0.20045   0.42878   0.00000  Uiso   1.00
C64    C     0.51945   0.18895   0.01016   0.00000  Uiso   1.00
C65    C     0.56765   0.18138   0.47813   0.00000  Uiso   1.00
C66    C     0.58148   0.19274   0.42378   0.00000  Uiso   1.00
C67    C     0.54749   0.20397   0.40011   0.00000  Uiso   1.00
C68    C     0.50724   0.18305   0.06558   0.00000  Uiso   1.00
C69    C     0.58745   0.16102   0.05811   0.00000  Uiso   1.00
C70    C     0.46306   0.19730   0.40278   0.00000  Uiso   1.00
C71    C     0.52583   0.31217   0.27732   0.00000  Uiso   1.00
C72    C     0.47543   0.17798   0.34843   0.00000  Uiso   1.00
C73    C     0.52575   0.02166   0.27660   0.00000  Uiso   1.00
C74    C     0.50061   0.04247   0.24696   0.00000  Uiso   1.00
C75    C     0.47603   0.02073   0.21694   0.00000  Uiso   1.00
C76    C     0.47569   0.31115   0.21865   0.00000  Uiso   1.00
C77    C     0.50042   0.29067   0.24879   0.00000  Uiso   1.00
C78    C     0.63299   0.14185   0.28495   0.00000  Uiso   1.00
C79    C     0.34764   0.14183   0.28491   0.00000  Uiso   1.00
C80    C     0.36699   0.19153   0.21512   0.00000  Uiso   1.00
C81    C     0.65235   0.19150   0.21509   0.00000  Uiso   1.00
C82    C     0.50032   0.08666   0.24847   0.00000  Uiso   1.00
C83    C     0.52590   0.16680   0.14793   0.00000  Uiso   1.00
C84    C     0.60083   0.16461   0.00206   0.00000  Uiso   1.00
C85    C     0.54096   0.17039   0.08956   0.00000  Uiso   1.00
C86    C     0.41690   0.21227   0.43001   0.00000  Uiso   1.00
C87    C     0.40373   0.21956   0.48611   0.00000  Uiso   1.00
C88    C     0.43672   0.21079   0.01363   0.00000  Uiso   1.00
H89    H     0.61273   0.14933   0.07715   0.00000  Uiso   1.00
H90    H     0.54462   0.03852   0.29976   0.00000  Uiso   1.00
H91    H     0.45711   0.29377   0.19561   0.00000  Uiso   1.00
H92    H     0.60707   0.12203   0.31293   0.00000  Uiso   1.00
H93    H     0.35814   0.12193   0.31271   0.00000  Uiso   1.00
H94    H     0.39290   0.21142   0.18722   0.00000  Uiso   1.00
H95    H     0.64191   0.21133   0.18717   0.00000  Uiso   1.00
H96    H     0.61833   0.19321   0.39900   0.00000  Uiso   1.00
H97    H     0.47130   0.18799   0.09120   0.00000  Uiso   1.00
H98    H     0.42480   0.21494   0.05672   0.00000  Uiso   1.00
H99    H     0.56008   0.21481   0.35878   0.00000  Uiso   1.00
H100   H     0.54484   0.29588   0.30075   0.00000  Uiso   1.00
N101   N     0.38093   0.16668   0.25001   0.00000  Uiso   1.00
N102   N     0.61906   0.16665   0.25000   0.00000  Uiso   1.00
O103   O     0.46179   0.22775   0.25000   0.00000  Uiso   1.00
O104   O     0.53823   0.22774   0.25000   0.00000  Uiso   1.00
O105   O     0.44280   0.16666   0.32681   0.00000  Uiso   1.00
O106   O     0.51924   0.16665   0.32681   0.00000  Uiso   1.00
O107   O     0.46177   0.10559   0.24999   0.00000  Uiso   1.00
O108   O     0.53821   0.10558   0.24999   0.00000  Uiso   1.00
O109   O     0.48076   0.16668   0.17319   0.00000  Uiso   1.00
O110   O     0.55720   0.16667   0.17319   0.00000  Uiso   1.00
Zn111  Zn    0.44896   0.16667   0.25000   0.00000  Uiso   1.00
Zn112  Zn    0.55104   0.16666   0.25000   0.00000  Uiso   1.00
Br113  Br    0.44511   0.04718   0.17056   0.00000  Uiso   1.00
C114   C     0.64820   0.14756   0.47093   0.00000  Uiso   1.00
H115   H     0.34256   0.14480   0.49001   0.00000  Uiso   1.00
O116   O     0.65601   0.13394   0.42530   0.00000  Uiso   1.00
Br117  Br    0.37593   0.22974   0.38905   0.00000  Uiso   1.00
C118   C     0.35548   0.23538   0.01668   0.00000  Uiso   1.00
H119   H     0.66259   0.24183   0.49652   0.00000  Uiso   1.00
O120   O     0.34410   0.24131   0.06530   0.00000  Uiso   1.00
C121   C     0.83344   0.24665   0.24979   0.00000  Uiso   1.00
C122   C     0.81793   0.20019   0.48522   0.00000  Uiso   1.00
C123   C     0.83181   0.20045   0.42878   0.00000  Uiso   1.00
C124   C     0.85278   0.18895   0.01016   0.00000  Uiso   1.00
C125   C     0.90098   0.18138   0.47813   0.00000  Uiso   1.00
C126   C     0.91481   0.19274   0.42378   0.00000  Uiso   1.00
C127   C     0.88082   0.20397   0.40011   0.00000  Uiso   1.00
C128   C     0.84058   0.18305   0.06558   0.00000  Uiso   1.00
C129   C     0.92078   0.16102   0.05811   0.00000  Uiso   1.00
C130   C     0.79639   0.19730   0.40278   0.00000  Uiso   1.00
C131   C     0.85917   0.31217   0.27732   0.00000  Uiso   1.00
C132   C     0.80877   0.17798   0.34843   0.00000  Uiso   1.00
C133   C     0.85908   0.02166   0.27660   0.00000  Uiso   1.00
C134   C     0.83395   0.04247   0.24696   0.00000  Uiso   1.00
C135   C     0.80936   0.02073   0.21694   0.00000  Uiso   1.00
C136   C     0.80903   0.31115   0.21865   0.00000  Uiso   1.00
C137   C     0.83375   0.29067   0.24879   0.00000  Uiso   1.00
C138   C     0.96633   0.14185   0.28495   0.00000  Uiso   1.00
C139   C     0.68098   0.14183   0.28491   0.00000  Uiso   1.00
C140   C     0.70032   0.19153   0.21512   0.00000  Uiso   1.00
C141   C     0.98569   0.19150   0.21509   0.00000  Uiso   1.00
C142   C     0.83365   0.08666   0.24847   0.00000  Uiso   1.00
C143   C     0.85924   0.16680   0.14793   0.00000  Uiso   1.00
C144   C     0.93416   0.16461   0.00206   0.00000  Uiso   1.00
C145   C     0.87429   0.17039   0.08956   0.00000  Uiso   1.00
C146   C     0.75023   0.21227   0.43001   0.00000  Uiso   1.00
C147   C     0.73707   0.21956   0.48611   0.00000  Uiso   1.00
C148   C     0.77005   0.21079   0.01363   0.00000  Uiso   1.00
H149   H     0.94606   0.14933   0.07715   0.00000  Uiso   1.00
H150   H     0.87795   0.03852   0.29976   0.00000  Uiso   1.00
H151   H     0.79045   0.29377   0.19561   0.00000  Uiso   1.00
H152   H     0.94040   0.12203   0.31293   0.00000  Uiso   1.00
H153   H     0.69147   0.12193   0.31271   0.00000  Uiso   1.00
H154   H     0.72624   0.21142   0.18722   0.00000  Uiso   1.00
H155   H     0.97524   0.21133   0.18717   0.00000  Uiso   1.00
H156   H     0.95166   0.19321   0.39900   0.00000  Uiso   1.00
H157   H     0.80463   0.18799   0.09120   0.00000  Uiso   1.00
H158   H     0.75813   0.21494   0.05672   0.00000  Uiso   1.00
H159   H     0.89341   0.21481   0.35878   0.00000  Uiso   1.00
H160   H     0.87818   0.29588   0.30075   0.00000  Uiso   1.00
N161   N     0.71426   0.16668   0.25001   0.00000  Uiso   1.00
N162   N     0.95239   0.16665   0.25000   0.00000  Uiso   1.00
O163   O     0.79512   0.22775   0.25000   0.00000  Uiso   1.00
O164   O     0.87157   0.22774   0.25000   0.00000  Uiso   1.00
O165   O     0.77613   0.16666   0.32681   0.00000  Uiso   1.00
O166   O     0.85258   0.16665   0.32681   0.00000  Uiso   1.00
O167   O     0.79510   0.10559   0.24999   0.00000  Uiso   1.00
O168   O     0.87154   0.10558   0.24999   0.00000  Uiso   1.00
O169   O     0.81409   0.16668   0.17319   0.00000  Uiso   1.00
O170   O     0.89053   0.16667   0.17319   0.00000  Uiso   1.00
Zn171  Zn    0.78229   0.16667   0.25000   0.00000  Uiso   1.00
Zn172  Zn    0.88438   0.16666   0.25000   0.00000  Uiso   1.00
Br173  Br    0.77844   0.04718   0.17056   0.00000  Uiso   1.00
C174   C     0.98153   0.14756   0.47093   0.00000  Uiso   1.00
H175   H     0.67589   0.14480   0.49001   0.00000  Uiso   1.00
O176   O     0.98935   0.13394   0.42530   0.00000  Uiso   1.00
Br177  Br    0.70926   0.22974   0.38905   0.00000  Uiso   1.00
C178   C     0.68881   0.23538   0.01668   0.00000  Uiso   1.00
H179   H     0.99592   0.24183   0.49652   0.00000  Uiso   1.00
O180   O     0.67743   0.24131   0.06530   0.00000  Uiso   1.00
C181   C     0.16678   0.57998   0.24979   0.00000  Uiso   1.00
C182   C     0.15126   0.53352   0.48522   0.00000  Uiso   1.00
C183   C     0.16514   0.53378   0.42878   0.00000  Uiso   1.00
C184   C     0.18612   0.52228   0.01016   0.00000  Uiso   1.00
C185   C     0.23432   0.51471   0.47813   0.00000  Uiso   1.00
C186   C     0.24815   0.52607   0.42378   0.00000  Uiso   1.00
C187   C     0.21415   0.53730   0.40011   0.00000  Uiso   1.00
C188   C     0.17391   0.51638   0.06558   0.00000  Uiso   1.00
C189   C     0.25412   0.49436   0.05811   0.00000  Uiso   1.00
C190   C     0.12973   0.53063   0.40278   0.00000  Uiso   1.00
C191   C     0.19250   0.64550   0.27732   0.00000  Uiso   1.00
C192   C     0.14210   0.51132   0.34843   0.00000  Uiso   1.00
C193   C     0.19241   0.35499   0.27660   0.00000  Uiso   1.00
C194   C     0.16728   0.37581   0.24696   0.00000  Uiso   1.00
C195   C     0.14269   0.35406   0.21694   0.00000  Uiso   1.00
C196   C     0.14236   0.64449   0.21865   0.00000  Uiso   1.00
C197   C     0.16708   0.62400   0.24879   0.00000  Uiso   1.00
C198   C     0.29966   0.47518   0.28495   0.00000  Uiso   1.00
C199   C     0.01431   0.47517   0.28491   0.00000  Uiso   1.00
C200   C     0.03366   0.52487   0.21512   0.00000  Uiso   1.00
C201   C     0.31902   0.52483   0.21509   0.00000  Uiso   1.00
C202   C     0.16698   0.41999   0.24847   0.00000  Uiso   1.00
C203   C     0.19257   0.50014   0.14793   0.00000  Uiso   1.00
C204   C     0.26749   0.49795   0.00206   0.00000  Uiso   1.00
C205   C     0.20763   0.50372   0.08956   0.00000  Uiso   1.00
C206   C     0.08356   0.54561   0.43001   0.00000  Uiso   1.00
C207   C     0.07040   0.55290   0.48611   0.00000  Uiso   1.00
C208   C     0.10339   0.54412   0.01363   0.00000  Uiso   1.00
H209   H     0.27939   0.48267   0.07715   0.00000  Uiso   1.00
H210   H     0.21129   0.37185   0.29976   0.00000  Uiso   1.00
H211   H     0.12378   0.62710   0.19561   0.00000  Uiso   1.00
H212   H     0.27374   0.45536   0.31293   0.00000  Uiso   1.00
H213   H     0.02480   0.45526   0.31271   0.00000  Uiso   1.00
H214   H     0.05957   0.54475   0.18722   0.00000  Uiso   1.00
H215   H     0.30857   0.54466   0.18717   0.00000  Uiso   1.00
H216   H     0.28499   0.52654   0.39900   0.00000  Uiso   1.00
H217   H     0.13796   0.52133   0.09120   0.00000  Uiso   1.00
H218   H     0.09146   0.54828   0.05672   0.00000  Uiso   1.00
H219   H     0.22674   0.54814   0.35878   0.00000  Uiso   1.00
H220   H     0.21151   0.62922   0.30075   0.00000  Uiso   1.00
N221   N     0.04760   0.50001   0.25001   0.00000  Uiso   1.00
N222   N     0.28573   0.49998   0.25000   0.00000  Uiso   1.00
O223   O     0.12846   0.56108   0.25000   0.00000  Uiso   1.00
O224   O     0.20490   0.56107   0.25000   0.00000  Uiso   1.00
O225   O     0.10947   0.50000   0.32681   0.00000  Uiso   1.00
O226   O     0.18591   0.49999   0.32681   0.00000  Uiso   1.00
O227   O     0.12843   0.43893   0.24999   0.00000  Uiso   1.00
O228   O     0.20488   0.43892   0.24999   0.00000  Uiso   1.00
O229   O     0.14742   0.50001   0.17319   0.00000  Uiso   1.00
O230   O     0.22387   0.50000   0.17319   0.00000  Uiso   1.00
Zn231  Zn    0.11562   0.50001   0.25000   0.00000  Uiso   1.00
Zn232  Zn    0.21771   0.49999   0.25000   0.00000  Uiso   1.00
Br233  Br    0.11177   0.38052   0.17056   0.00000  Uiso   1.00
C234   C     0.31487   0.48089   0.47093   0.00000  Uiso   1.00
H235   H     0.00923   0.47813   0.49001   0.00000  Uiso   1.00
O236   O     0.32268   0.46727   0.42530   0.00000  Uiso   1.00
Br237  Br    0.04259   0.56308   0.38905   0.00000  Uiso   1.00
C238   C     0.02214   0.56871   0.01668   0.00000  Uiso   1.00
H239   H     0.32926   0.57516   0.49652   0.00000  Uiso   1.00
O240   O     0.01077   0.57464   0.06530   0.00000  Uiso   1.00
C241   C     0.50011   0.57998   0.24979   0.00000  Uiso   1.00
C242   C     0.48460   0.53352   0.48522   0.00000  Uiso   1.00
C243   C     0.49847   0.53378   0.42878   0.00000  Uiso   1.00
C244   C     0.51945   0.52228   0.01016   0.00000  Uiso   1.00
C245   C     0.56765   0.51471   0.47813   0.00000  Uiso   1.00
C246   C     0.58148   0.52607   0.42378   0.00000  Uiso   1.00
C247   C     0.54749   0.53730   0.40011   0.00000  Uiso   1.00
C248   C     0.50724   0.51638   0.06558   0.00000  Uiso   1.00
C249   C     0.58745   0.49436   0.05811   0.00000  Uiso   1.00
C250   C     0.46306   0.53063   0.40278   0.00000  Uiso   1.00
C251   C     0.52583   0.64550   0.27732   0.00000  Uiso   1.00
C252   C     0.47543   0.51132   0.34843   0.00000  Uiso   1.00
C253   C     0.52575   0.35499   0.27660   0.00000  Uiso   1.00
C254   C     0.50061   0.37581   0.24696   0.00000  Uiso   1.00
C255   C     0.47603   0.35406   0.21694   0.00000  Uiso   1.00
C256   C     0.47569   0.64449   0.21865   0.00000  Uiso   1.00
C257   C     0.50042   0.62400   0.24879   0.00000  Uiso   1.00
C258   C     0.63299   0.47518   0.28495   0.00000  Uiso   1.00
C259   C     0.34764   0.47517   0.28491   0.00000  Uiso   1.00
C260   C     0.36699   0.52487   0.21512   0.00000  Uiso   1.00
C261   C     0.65235   0.52483   0.21509   0.00000  Uiso   1.00
C262   C     0.50032   0.41999   0.24847   0.00000  Uiso   1.00
C263   C     0.52590   0.50014   0.14793   0.00000  Uiso   1.00
C264   C     0.60083   0.49795   0.00206   0.00000  Uiso   1.00
C265   C     0.54096   0.50372   0.08956   0.00000  Uiso   1.00
C266   C     0.41690   0.54561   0.43001   0.00000  Uiso   1.00
C267   C     0.40373   0.55290   0.48611   0.00000  Uiso   1.00
C268   C     0.43672   0.54412   0.01363   0.00000  Uiso   1.00
H269   H     0.61273   0.48267   0.07715   0.00000  Uiso   1.00
H270   H     0.54462   0.37185   0.29976   0.00000  Uiso   1.00
H271   H     0.45711   0.62710   0.19561   0.00000  Uiso   1.00
H272   H     0.60707   0.45536   0.31293   0.00000  Uiso   1.00
H273   H     0.35814   0.45526   0.31271   0.00000  Uiso   1.00
H274   H     0.39290   0.54475   0.18722   0.00000  Uiso   1.00
H275   H     0.64191   0.54466   0.18717   0.00000  Uiso   1.00
H276   H     0.61833   0.52654   0.39900   0.00000  Uiso   1.00
H277   H     0.47130   0.52133   0.09120   0.00000  Uiso   1.00
H278   H     0.42480   0.54828   0.05672   0.00000  Uiso   1.00
H279   H     0.56008   0.54814   0.35878   0.00000  Uiso   1.00
H280   H     0.54484   0.62922   0.30075   0.00000  Uiso   1.00
N281   N     0.38093   0.50001   0.25001   0.00000  Uiso   1.00
N282   N     0.61906   0.49998   0.25000   0.00000  Uiso   1.00
O283   O     0.46179   0.56108   0.25000   0.00000  Uiso   1.00
O284   O     0.53823   0.56107   0.25000   0.00000  Uiso   1.00
O285   O     0.44280   0.50000   0.32681   0.00000  Uiso   1.00
O286   O     0.51924   0.49999   0.32681   0.00000  Uiso   1.00
O287   O     0.46177   0.43893   0.24999   0.00000  Uiso   1.00
O288   O     0.53821   0.43892   0.24999   0.00000  Uiso   1.00
O289   O     0.48076   0.50001   0.17319   0.00000  Uiso   1.00
O290   O     0.55720   0.50000   0.17319   0.00000  Uiso   1.00
Zn291  Zn    0.44896   0.50001   0.25000   0.00000  Uiso   1.00
Zn292  Zn    0.55104   0.49999   0.25000   0.00000  Uiso   1.00
Br293  Br    0.44511   0.38052   0.17056   0.00000  Uiso   1.00
C294   C     0.64820   0.48089   0.47093   0.00000  Uiso   1.00
H295   H     0.34256   0.47813   0.49001   0.00000  Uiso   1.00
O296   O     0.65601   0.46727   0.42530   0.00000  Uiso   1.00
Br297  Br    0.37593   0.56308   0.38905   0.00000  Uiso   1.00
C298   C     0.35548   0.56871   0.01668   0.00000  Uiso   1.00
H299   H     0.66259   0.57516   0.49652   0.00000  Uiso   1.00
O300   O     0.34410   0.57464   0.06530   0.00000  Uiso   1.00
C301   C     0.83344   0.57998   0.24979   0.00000  Uiso   1.00
C302   C     0.81793   0.53352   0.48522   0.00000  Uiso   1.00
C303   C     0.83181   0.53378   0.42878   0.00000  Uiso   1.00
C304   C     0.85278   0.52228   0.01016   0.00000  Uiso   1.00
C305   C     0.90098   0.51471   0.47813   0.00000  Uiso   1.00
C306   C     0.91481   0.52607   0.42378   0.00000  Uiso   1.00
C307   C     0.88082   0.53730   0.40011   0.00000  Uiso   1.00
C308   C     0.84058   0.51638   0.06558   0.00000  Uiso   1.00
C309   C     0.92078   0.49436   0.05811   0.00000  Uiso   1.00
C310   C     0.79639   0.53063   0.40278   0.00000  Uiso   1.00
C311   C     0.85917   0.64550   0.27732   0.00000  Uiso   1.00
C312   C     0.80877   0.51132   0.34843   0.00000  Uiso   1.00
C313   C     0.85908   0.35499   0.27660   0.00000  Uiso   1.00
C314   C     0.83395   0.37581   0.24696   0.00000  Uiso   1.00
C315   C     0.80936   0.35406   0.21694   0.00000  Uiso   1.00
C316   C     0.80903   0.64449   0.21865   0.00000  Uiso   1.00
C317   C     0.83375   0.62400   0.24879   0.00000  Uiso   1.00
C318   C     0.96633   0.47518   0.28495   0.00000  Uiso   1.00
C319   C     0.68098   0.47517   0.28491   0.00000  Uiso   1.00
C320   C     0.70032   0.52487   0.21512   0.00000  Uiso   1.00
C321   C     0.98569   0.52483   0.21509   0.00000  Uiso   1.00
C322   C     0.83365   0.41999   0.24847   0.00000  Uiso   1.00
C323   C     0.85924   0.50014   0.14793   0.00000  Uiso   1.00
C324   C     0.93416   0.49795   0.00206   0.00000  Uiso   1.00
C325   C     0.87429   0.50372   0.08956   0.00000  Uiso   1.00
C326   C     0.75023   0.54561   0.43001   0.00000  Uiso   1.00
C327   C     0.73707   0.55290   0.48611   0.00000  Uiso   1.00
C328   C     0.77005   0.54412   0.01363   0.00000  Uiso   1.00
H329   H     0.94606   0.48267   0.07715   0.00000  Uiso   1.00
H330   H     0.87795   0.37185   0.29976   0.00000  Uiso   1.00
H331   H     0.79045   0.62710   0.19561   0.00000  Uiso   1.00
H332   H     0.94040   0.45536   0.31293   0.00000  Uiso   1.00
H333   H     0.69147   0.45526   0.31271   0.00000  Uiso   1.00
H334   H     0.72624   0.54475   0.18722   0.00000  Uiso   1.00
H335   H     0.97524   0.54466   0.18717   0.00000  Uiso   1.00
H336   H     0.95166   0.52654   0.39900   0.00000  Uiso   1.00
H337   H     0.80463   0.52133   0.09120   0.00000  Uiso   1.00
H338   H     0.75813   0.54828   0.05672   0.00000  Uiso   1.00
H339   H     0.89341   0.54814   0.35878   0.00000  Uiso   1.00
H340   H     0.87818   0.62922   0.30075   0.00000  Uiso   1.00
N341   N     0.71426   0.50001   0.25001   0.00000  Uiso   1.00
N342   N     0.95239   0.49998   0.25000   0.00000  Uiso   1.00
O343   O     0.79512   0.56108   0.25000   0.00000  Uiso   1.00
O344   O     0.87157   0.56107   0.25000   0.00000  Uiso   1.00
O345   O     0.77613   0.50000   0.32681   0.00000  Uiso   1.00
O346   O     0.85258   0.49999   0.32681   0.00000  Uiso   1.00
O347   O     0.79510   0.43893   0.24999   0.00000  Uiso   1.00
O348   O     0.87154   0.43892   0.24999   0.00000  Uiso   1.00
O349   O     0.81409   0.50001   0.17319   0.00000  Uiso   1.00
O350   O     0.89053   0.50000   0.17319   0.00000  Uiso   1.00
Zn351  Zn    0.78229   0.50001   0.25000   0.00000  Uiso   1.00
Zn352  Zn    0.88438   0.49999   0.25000   0.00000  Uiso   1.00
Br353  Br    0.77844   0.38052   0.17056   0.00000  Uiso   1.00
C354   C     0.98153   0.48089   0.47093   0.00000  Uiso   1.00
H355   H     0.67589   0.47813   0.49001   0.00000  Uiso   1.00
O356   O     0.98935   0.46727   0.42530   0.00000  Uiso   1.00
Br357  Br    0.70926   0.56308   0.38905   0.00000  Uiso   1.00
C358   C     0.68881   0.56871   0.01668   0.00000  Uiso   1.00
H359   H     0.99592   0.57516   0.49652   0.00000  Uiso   1.00
O360   O     0.67743   0.57464   0.06530   0.00000  Uiso   1.00
C361   C     0.16678   0.91331   0.24979   0.00000  Uiso   1.00
C362   C     0.15126   0.86686   0.48522   0.00000  Uiso   1.00
C363   C     0.16514   0.86711   0.42878   0.00000  Uiso   1.00
C364   C     0.18612   0.85561   0.01016   0.00000  Uiso   1.00
C365   C     0.23432   0.84804   0.47813   0.00000  Uiso   1.00
C366   C     0.24815   0.85941   0.42378   0.00000  Uiso   1.00
C367   C     0.21415   0.87063   0.40011   0.00000  Uiso   1.00
C368   C     0.17391   0.84971   0.06558   0.00000  Uiso   1.00
C369   C     0.25412   0.82769   0.05811   0.00000  Uiso   1.00
C370   C     0.12973   0.86396   0.40278   0.00000  Uiso   1.00
C371   C     0.19250   0.97884   0.27732   0.00000  Uiso   1.00
C372   C     0.14210   0.84465   0.34843   0.00000  Uiso   1.00
C373   C     0.19241   0.68832   0.27660   0.00000  Uiso   1.00
C374   C     0.16728   0.70914   0.24696   0.00000  Uiso   1.00
C375   C     0.14269   0.68740   0.21694   0.00000  Uiso   1.00
C376   C     0.14236   0.97782   0.21865   0.00000  Uiso   1.00
C377   C     0.16708   0.95734   0.24879   0.00000  Uiso   1.00
C378   C     0.29966   0.80851   0.28495   0.00000  Uiso   1.00
C379   C     0.01431   0.80850   0.28491   0.00000  Uiso   1.00
C380   C     0.03366   0.85820   0.21512   0.00000  Uiso   1.00
C381   C     0.31902   0.85816   0.21509   0.00000  Uiso   1.00
C382   C     0.16698   0.75333   0.24847   0.00000  Uiso   1.00
C383   C     0.19257   0.83347   0.14793   0.00000  Uiso   1.00
C384   C     0.26749   0.83128   0.00206   0.00000  Uiso   1.00
C385   C     0.20763   0.83705   0.08956   0.00000  Uiso   1.00
C386   C     0.08356   0.87894   0.43001   0.00000  Uiso   1.00
C387   C     0.07040   0.88623   0.48611   0.00000  Uiso   1.00
C388   C     0.10339   0.87745   0.01363   0.00000  Uiso   1.00
H389   H     0.27939   0.81600   0.07715   0.00000  Uiso   1.00
H390   H     0.21129   0.70519   0.29976   0.00000  Uiso   1.00
H391   H     0.12378   0.96043   0.19561   0.00000  Uiso   1.00
H392   H     0.27374   0.78869   0.31293   0.00000  Uiso   1.00
H393   H     0.02480   0.78860   0.31271   0.00000  Uiso   1.00
H394   H     0.05957   0.87808   0.18722   0.00000  Uiso   1.00
H395   H     0.30857   0.87800   0.18717   0.00000  Uiso   1.00
H396   H     0.28499   0.85988   0.39900   0.00000  Uiso   1.00
H397   H     0.13796   0.85466   0.09120   0.00000  Uiso   1.00
H398   H     0.09146   0.88161   0.05672   0.00000  Uiso   1.00
H399   H     0.22674   0.88147   0.35878   0.00000  Uiso   1.00
H400   H     0.21151   0.96255   0.30075   0.00000  Uiso   1.00
N401   N     0.04760   0.83334   0.25001   0.00000  Uiso   1.00
N402   N     0.28573   0.83331   0.25000   0.00000  Uiso   1.00
O403   O     0.12846   0.89442   0.25000   0.00000  Uiso   1.00
O404   O     0.20490   0.89441   0.25000   0.00000  Uiso   1.00
O405   O     0.10947   0.83333   0.32681   0.00000  Uiso   1.00
O406   O     0.18591   0.83332   0.32681   0.00000  Uiso   1.00
O407   O     0.12843   0.77226   0.24999   0.00000  Uiso   1.00
O408   O     0.20488   0.77225   0.24999   0.00000  Uiso   1.00
O409   O     0.14742   0.83335   0.17319   0.00000  Uiso   1.00
O410   O     0.22387   0.83334   0.17319   0.00000  Uiso   1.00
Zn411  Zn    0.11562   0.83334   0.25000   0.00000  Uiso   1.00
Zn412  Zn    0.21771   0.83333   0.25000   0.00000  Uiso   1.00
Br413  Br    0.11177   0.71385   0.17056   0.00000  Uiso   1.00
C414   C     0.31487   0.81423   0.47093   0.00000  Uiso   1.00
H415   H     0.00923   0.81146   0.49001   0.00000  Uiso   1.00
O416   O     0.32268   0.80061   0.42530   0.00000  Uiso   1.00
Br417  Br    0.04259   0.89641   0.38905   0.00000  Uiso   1.00
C418   C     0.02214   0.90204   0.01668   0.00000  Uiso   1.00
H419   H     0.32926   0.90849   0.49652   0.00000  Uiso   1.00
O420   O     0.01077   0.90797   0.06530   0.00000  Uiso   1.00
C421   C     0.50011   0.91331   0.24979   0.00000  Uiso   1.00
C422   C     0.48460   0.86686   0.48522   0.00000  Uiso   1.00
C423   C     0.49847   0.86711   0.42878   0.00000  Uiso   1.00
C424   C     0.51945   0.85561   0.01016   0.00000  Uiso   1.00
C425   C     0.56765   0.84804   0.47813   0.00000  Uiso   1.00
C426   C     0.58148   0.85941   0.42378   0.00000  Uiso   1.00
C427   C     0.54749   0.87063   0.40011   0.00000  Uiso   1.00
C428   C     0.50724   0.84971   0.06558   0.00000  Uiso   1.00
C429   C     0.58745   0.82769   0.05811   0.00000  Uiso   1.00
C430   C     0.46306   0.86396   0.40278   0.00000  Uiso   1.00
C431   C     0.52583   0.97884   0.27732   0.00000  Uiso   1.00
C432   C     0.47543   0.84465   0.34843   0.00000  Uiso   1.00
C433   C     0.52575   0.68832   0.27660   0.00000  Uiso   1.00
C434   C     0.50061   0.70914   0.24696   0.00000  Uiso   1.00
C435   C     0.47603   0.68740   0.21694   0.00000  Uiso   1.00
C436   C     0.47569   0.97782   0.21865   0.00000  Uiso   1.00
C437   C     0.50042   0.95734   0.24879   0.00000  Uiso   1.00
C438   C     0.63299   0.80851   0.28495   0.00000  Uiso   1.00
C439   C     0.34764   0.80850   0.28491   0.00000  Uiso   1.00
C440   C     0.36699   0.85820   0.21512   0.00000  Uiso   1.00
C441   C     0.65235   0.85816   0.21509   0.00000  Uiso   1.00
C442   C     0.50032   0.75333   0.24847   0.00000  Uiso   1.00
C443   C     0.52590   0.83347   0.14793   0.00000  Uiso   1.00
C444   C     0.60083   0.83128   0.00206   0.00000  Uiso   1.00
C445   C     0.54096   0.83705   0.08956   0.00000  Uiso   1.00
C446   C     0.41690   0.87894   0.43001   0.00000  Uiso   1.00
C447   C     0.40373   0.88623   0.48611   0.00000  Uiso   1.00
C448   C     0.43672   0.87745   0.01363   0.00000  Uiso   1.00
H449   H     0.61273   0.81600   0.07715   0.00000  Uiso   1.00
H450   H     0.54462   0.70519   0.29976   0.00000  Uiso   1.00
H451   H     0.45711   0.96043   0.19561   0.00000  Uiso   1.00
H452   H     0.60707   0.78869   0.31293   0.00000  Uiso   1.00
H453   H     0.35814   0.78860   0.31271   0.00000  Uiso   1.00
H454   H     0.39290   0.87808   0.18722   0.00000  Uiso   1.00
H455   H     0.64191   0.87800   0.18717   0.00000  Uiso   1.00
H456   H     0.61833   0.85988   0.39900   0.00000  Uiso   1.00
H457   H     0.47130   0.85466   0.09120   0.00000  Uiso   1.00
H458   H     0.42480   0.88161   0.05672   0.00000  Uiso   1.00
H459   H     0.56008   0.88147   0.35878   0.00000  Uiso   1.00
H460   H     0.54484   0.96255   0.30075   0.00000  Uiso   1.00
N461   N     0.38093   0.83334   0.25001   0.00000  Uiso   1.00
N462   N     0.61906   0.83331   0.25000   0.00000  Uiso   1.00
O463   O     0.46179   0.89442   0.25000   0.00000  Uiso   1.00
O464   O     0.53823   0.89441   0.25000   0.00000  Uiso   1.00
O465   O     0.44280   0.83333   0.32681   0.00000  Uiso   1.00
O466   O     0.51924   0.83332   0.32681   0.00000  Uiso   1.00
O467   O     0.46177   0.77226   0.24999   0.00000  Uiso   1.00
O468   O     0.53821   0.77225   0.24999   0.00000  Uiso   1.00
O469   O     0.48076   0.83335   0.17319   0.00000  Uiso   1.00
O470   O     0.55720   0.83334   0.17319   0.00000  Uiso   1.00
Zn471  Zn    0.44896   0.83334   0.25000   0.00000  Uiso   1.00
Zn472  Zn    0.55104   0.83333   0.25000   0.00000  Uiso   1.00
Br473  Br    0.44511   0.71385   0.17056   0.00000  Uiso   1.00
C474   C     0.64820   0.81423   0.47093   0.00000  Uiso   1.00
H475   H     0.34256   0.81146   0.49001   0.00000  Uiso   1.00
O476   O     0.65601   0.80061   0.42530   0.00000  Uiso   1.00
Br477  Br    0.37593   0.89641   0.38905   0.00000  Uiso   1.00
C478   C     0.35548   0.90204   0.01668   0.00000  Uiso   1.00
H479   H     0.66259   0.90849   0.49652   0.00000  Uiso   1.00
O480   O     0.34410   0.90797   0.06530   0.00000  Uiso   1.00
C481   C     0.83344   0.91331   0.24979   0.00000  Uiso   1.00
C482   C     0.81793   0.86686   0.48522   0.00000  Uiso   1.00
C483   C     0.83181   0.86711   0.42878   0.00000  Uiso   1.00
C484   C     0.85278   0.85561   0.01016   0.00000  Uiso   1.00
C485   C     0.90098   0.84804   0.47813   0.00000  Uiso   1.00
C486   C     0.91481   0.85941   0.42378   0.00000  Uiso   1.00
C487   C     0.88082   0.87063   0.40011   0.00000  Uiso   1.00
C488   C     0.84058   0.84971   0.06558   0.00000  Uiso   1.00
C489   C     0.92078   0.82769   0.05811   0.00000  Uiso   1.00
C490   C     0.79639   0.86396   0.40278   0.00000  Uiso   1.00
C491   C     0.85917   0.97884   0.27732   0.00000  Uiso   1.00
C492   C     0.80877   0.84465   0.34843   0.00000  Uiso   1.00
C493   C     0.85908   0.68832   0.27660   0.00000  Uiso   1.00
C494   C     0.83395   0.70914   0.24696   0.00000  Uiso   1.00
C495   C     0.80936   0.68740   0.21694   0.00000  Uiso   1.00
C496   C     0.80903   0.97782   0.21865   0.00000  Uiso   1.00
C497   C     0.83375   0.95734   0.24879   0.00000  Uiso   1.00
C498   C     0.96633   0.80851   0.28495   0.00000  Uiso   1.00
C499   C     0.68098   0.80850   0.28491   0.00000  Uiso   1.00
C500   C     0.70032   0.85820   0.21512   0.00000  Uiso   1.00
C501   C     0.98569   0.85816   0.21509   0.00000  Uiso   1.00
C502   C     0.83365   0.75333   0.24847   0.00000  Uiso   1.00
C503   C     0.85924   0.83347   0.14793   0.00000  Uiso   1.00
C504   C     0.93416   0.83128   0.00206   0.00000  Uiso   1.00
C505   C     0.87429   0.83705   0.08956   0.00000  Uiso   1.00
C506   C     0.75023   0.87894   0.43001   0.00000  Uiso   1.00
C507   C     0.73707   0.88623   0.48611   0.00000  Uiso   1.00
C508   C     0.77005   0.87745   0.01363   0.00000  Uiso   1.00
H509   H     0.94606   0.81600   0.07715   0.00000  Uiso   1.00
H510   H     0.87795   0.70519   0.29976   0.00000  Uiso   1.00
H511   H     0.79045   0.96043   0.19561   0.00000  Uiso   1.00
H512   H     0.94040   0.78869   0.31293   0.00000  Uiso   1.00
H513   H     0.69147   0.78860   0.31271   0.00000  Uiso   1.00
H514   H     0.72624   0.87808   0.18722   0.00000  Uiso   1.00
H515   H     0.97524   0.87800   0.18717   0.00000  Uiso   1.00
H516   H     0.95166   0.85988   0.39900   0.00000  Uiso   1.00
H517   H     0.80463   0.85466   0.09120   0.00000  Uiso   1.00
H518   H     0.75813   0.88161   0.05672   0.00000  Uiso   1.00
H519   H     0.89341   0.88147   0.35878   0.00000  Uiso   1.00
H520   H     0.87818   0.96255   0.30075   0.00000  Uiso   1.00
N521   N     0.71426   0.83334   0.25001   0.00000  Uiso   1.00
N522   N     0.95239   0.83331   0.25000   0.00000  Uiso   1.00
O523   O     0.79512   0.89442   0.25000   0.00000  Uiso   1.00
O524   O     0.87157   0.89441   0.25000   0.00000  Uiso   1.00
O525   O     0.77613   0.83333   0.32681   0.00000  Uiso   1.00
O526   O     0.85258   0.83332   0.32681   0.00000  Uiso   1.00
O527   O     0.79510   0.77226   0.24999   0.00000  Uiso   1.00
O528   O     0.87154   0.77225   0.24999   0.00000  Uiso   1.00
O529   O     0.81409   0.83335   0.17319   0.00000  Uiso   1.00
O530   O     0.89053   0.83334   0.17319   0.00000  Uiso   1.00
Zn531  Zn    0.78229   0.83334   0.25000   0.00000  Uiso   1.00
Zn532  Zn    0.88438   0.83333   0.25000   0.00000  Uiso   1.00
Br533  Br    0.77844   0.71385   0.17056   0.00000  Uiso   1.00
C534   C     0.98153   0.81423   0.47093   0.00000  Uiso   1.00
H535   H     0.67589   0.81146   0.49001   0.00000  Uiso   1.00
O536   O     0.98935   0.80061   0.42530   0.00000  Uiso   1.00
Br537  Br    0.70926   0.89641   0.38905   0.00000  Uiso   1.00
C538   C     0.68881   0.90204   0.01668   0.00000  Uiso   1.00
H539   H     0.99592   0.90849   0.49652   0.00000  Uiso   1.00
O540   O     0.67743   0.90797   0.06530   0.00000  Uiso   1.00
C541   C     0.16678   0.24665   0.74979   0.00000  Uiso   1.00
C542   C     0.15126   0.20019   0.98522   0.00000  Uiso   1.00
C543   C     0.16514   0.20045   0.92878   0.00000  Uiso   1.00
C544   C     0.18612   0.18895   0.51016   0.00000  Uiso   1.00
C545   C     0.23432   0.18138   0.97813   0.00000  Uiso   1.00
C546   C     0.24815   0.19274   0.92378   0.00000  Uiso   1.00
C547   C     0.21415   0.20397   0.90011   0.00000  Uiso   1.00
C548   C     0.17391   0.18305   0.56558   0.00000  Uiso   1.00
C549   C     0.25412   0.16102   0.55811   0.00000  Uiso   1.00
C550   C     0.12973   0.19730   0.90278   0.00000  Uiso   1.00
C551   C     0.19250   0.31217   0.77732   0.00000  Uiso   1.00
C552   C     0.14210   0.17798   0.84843   0.00000  Uiso   1.00
C553   C     0.19241   0.02166   0.77660   0.00000  Uiso   1.00
C554   C     0.16728   0.04247   0.74696   0.00000  Uiso   1.00
C555   C     0.14269   0.02073   0.71694   0.00000  Uiso   1.00
C556   C     0.14236   0.31115   0.71865   0.00000  Uiso   1.00
C557   C     0.16708   0.29067   0.74879   0.00000  Uiso   1.00
C558   C     0.29966   0.14185   0.78495   0.00000  Uiso   1.00
C559   C     0.01431   0.14183   0.78491   0.00000  Uiso   1.00
C560   C     0.03366   0.19153   0.71512   0.00000  Uiso   1.00
C561   C     0.31902   0.19150   0.71509   0.00000  Uiso   1.00
C562   C     0.16698   0.08666   0.74847   0.00000  Uiso   1.00
C563   C     0.19257   0.16680   0.64793   0.00000  Uiso   1.00
C564   C     0.26749   0.16461   0.50206   0.00000  Uiso   1.00
C565   C     0.20763   0.17039   0.58956   0.00000  Uiso   1.00
C566   C     0.08356   0.21227   0.93001   0.00000  Uiso   1.00
C567   C     0.07040   0.21956   0.98611   0.00000  Uiso   1.00
C568   C     0.10339   0.21079   0.51363   0.00000  Uiso   1.00
H569   H     0.27939   0.14933   0.57715   0.00000  Uiso   1.00
H570   H     0.21129   0.03852   0.79976   0.00000  Uiso   1.00
H571   H     0.12378   0.29377   0.69561   0.00000  Uiso   1.00
H572   H     0.27374   0.12203   0.81293   0.00000  Uiso   1.00
H573   H     0.02480   0.12193   0.81271   0.00000  Uiso   1.00
H574   H     0.05957   0.21142   0.68722   0.00000  Uiso   1.00
H575   H     0.30857   0.21133   0.68717   0.00000  Uiso   1.00
H576   H     0.28499   0.19321   0.89900   0.00000  Uiso   1.00
H577   H     0.13796   0.18799   0.59120   0.00000  Uiso   1.00
H578   H     0.09146   0.21494   0.55672   0.00000  Uiso   1.00
H579   H     0.22674   0.21481   0.85878   0.00000  Uiso   1.00
H580   H     0.21151   0.29588   0.80075   0.00000  Uiso   1.00
N581   N     0.04760   0.16668   0.75001   0.00000  Uiso   1.00
N582   N     0.28573   0.16665   0.75000   0.00000  Uiso   1.00
O583   O     0.12846   0.22775   0.75000   0.00000  Uiso   1.00
O584   O     0.20490   0.22774   0.75000   0.00000  Uiso   1.00
O585   O     0.10947   0.16666   0.82681   0.00000  Uiso   1.00
O586   O     0.18591   0.16665   0.82681   0.00000  Uiso   1.00
O587   O     0.12843   0.10559   0.74999   0.00000  Uiso   1.00
O588   O     0.20488   0.10558   0.74999   0.00000  Uiso   1.00
O589   O     0.14742   0.16668   0.67319   0.00000  Uiso   1.00
O590   O     0.22387   0.16667   0.67319   0.00000  Uiso   1.00
Zn591  Zn    0.11562   0.16667   0.75000   0.00000  Uiso   1.00
Zn592  Zn    0.21771   0.16666   0.75000   0.00000  Uiso   1.00
Br593  Br    0.11177   0.04718   0.67056   0.00000  Uiso   1.00
C594   C     0.31487   0.14756   0.97093   0.00000  Uiso   1.00
H595   H     0.00923   0.14480   0.99001   0.00000  Uiso   1.00
O596   O     0.32268   0.13394   0.92530   0.00000  Uiso   1.00
Br597  Br    0.04259   0.22974   0.88905   0.00000  Uiso   1.00
C598   C     0.02214   0.23538   0.51668   0.00000  Uiso   1.00
H599   H     0.32926   0.24183   0.99652   0.00000  Uiso   1.00
O600   O     0.01077   0.24131   0.56530   0.00000  Uiso   1.00
C601   C     0.50011   0.24665   0.74979   0.00000  Uiso   1.00
C602   C     0.48460   0.20019   0.98522   0.00000  Uiso   1.00
C603   C     0.49847   0.20045   0.92878   0.00000  Uiso   1.00
C604   C     0.51945   0.18895   0.51016   0.00000  Uiso   1.00
C605   C     0.56765   0.18138   0.97813   0.00000  Uiso   1.00
C606   C     0.58148   0.19274   0.92378   0.00000  Uiso   1.00
C607   C     0.54749   0.20397   0.90011   0.00000  Uiso   1.00
C608   C     0.50724   0.18305   0.56558   0.00000  Uiso   1.00
C609   C     0.58745   0.16102   0.55811   0.00000  Uiso   1.00
C610   C     0.46306   0.19730   0.90278   0.00000  Uiso   1.00
C611   C     0.52583   0.31217   0.77732   0.00000  Uiso   1.00
C612   C     0.47543   0.17798   0.84843   0.00000  Uiso   1.00
C613   C     0.52575   0.02166   0.77660   0.00000  Uiso   1.00
C614   C     0.50061   0.04247   0.74696   0.00000  Uiso   1.00
C615   C     0.47603   0.02073   0.71694   0.00000  Uiso   1.00
C616   C     0.47569   0.31115   0.71865   0.00000  Uiso   1.00
C617   C     0.50042   0.29067   0.74879   0.00000  Uiso   1.00
C618   C     0.63299   0.14185   0.78495   0.00000  Uiso   1.00
C619   C     0.34764   0.14183   0.78491   0.00000  Uiso   1.00
C620   C     0.36699   0.19153   0.71512   0.00000  Uiso   1.00
C621   C     0.65235   0.19150   0.71509   0.00000  Uiso   1.00
C622   C     0.50032   0.08666   0.74847   0.00000  Uiso   1.00
C623   C     0.52590   0.16680   0.64793   0.00000  Uiso   1.00
C624   C     0.60083   0.16461   0.50206   0.00000  Uiso   1.00
C625   C     0.54096   0.17039   0.58956   0.00000  Uiso   1.00
C626   C     0.41690   0.21227   0.93001   0.00000  Uiso   1.00
C627   C     0.40373   0.21956   0.98611   0.00000  Uiso   1.00
C628   C     0.43672   0.21079   0.51363   0.00000  Uiso   1.00
H629   H     0.61273   0.14933   0.57715   0.00000  Uiso   1.00
H630   H     0.54462   0.03852   0.79976   0.00000  Uiso   1.00
H631   H     0.45711   0.29377   0.69561   0.00000  Uiso   1.00
H632   H     0.60707   0.12203   0.81293   0.00000  Uiso   1.00
H633   H     0.35814   0.12193   0.81271   0.00000  Uiso   1.00
H634   H     0.39290   0.21142   0.68722   0.00000  Uiso   1.00
H635   H     0.64191   0.21133   0.68717   0.00000  Uiso   1.00
H636   H     0.61833   0.19321   0.89900   0.00000  Uiso   1.00
H637   H     0.47130   0.18799   0.59120   0.00000  Uiso   1.00
H638   H     0.42480   0.21494   0.55672   0.00000  Uiso   1.00
H639   H     0.56008   0.21481   0.85878   0.00000  Uiso   1.00
H640   H     0.54484   0.29588   0.80075   0.00000  Uiso   1.00
N641   N     0.38093   0.16668   0.75001   0.00000  Uiso   1.00
N642   N     0.61906   0.16665   0.75000   0.00000  Uiso   1.00
O643   O     0.46179   0.22775   0.75000   0.00000  Uiso   1.00
O644   O     0.53823   0.22774   0.75000   0.00000  Uiso   1.00
O645   O     0.44280   0.16666   0.82681   0.00000  Uiso   1.00
O646   O     0.51924   0.16665   0.82681   0.00000  Uiso   1.00
O647   O     0.46177   0.10559   0.74999   0.00000  Uiso   1.00
O648   O     0.53821   0.10558   0.74999   0.00000  Uiso   1.00
O649   O     0.48076   0.16668   0.67319   0.00000  Uiso   1.00
O650   O     0.55720   0.16667   0.67319   0.00000  Uiso   1.00
Zn651  Zn    0.44896   0.16667   0.75000   0.00000  Uiso   1.00
Zn652  Zn    0.55104   0.16666   0.75000   0.00000  Uiso   1.00
Br653  Br    0.44511   0.04718   0.67056   0.00000  Uiso   1.00
C654   C     0.64820   0.14756   0.97093   0.00000  Uiso   1.00
H655   H     0.34256   0.14480   0.99001   0.00000  Uiso   1.00
O656   O     0.65601   0.13394   0.92530   0.00000  Uiso   1.00
Br657  Br    0.37593   0.22974   0.88905   0.00000  Uiso   1.00
C658   C     0.35548   0.23538   0.51668   0.00000  Uiso   1.00
H659   H     0.66259   0.24183   0.99652   0.00000  Uiso   1.00
O660   O     0.34410   0.24131   0.56530   0.00000  Uiso   1.00
C661   C     0.83344   0.24665   0.74979   0.00000  Uiso   1.00
C662   C     0.81793   0.20019   0.98522   0.00000  Uiso   1.00
C663   C     0.83181   0.20045   0.92878   0.00000  Uiso   1.00
C664   C     0.85278   0.18895   0.51016   0.00000  Uiso   1.00
C665   C     0.90098   0.18138   0.97813   0.00000  Uiso   1.00
C666   C     0.91481   0.19274   0.92378   0.00000  Uiso   1.00
C667   C     0.88082   0.20397   0.90011   0.00000  Uiso   1.00
C668   C     0.84058   0.18305   0.56558   0.00000  Uiso   1.00
C669   C     0.92078   0.16102   0.55811   0.00000  Uiso   1.00
C670   C     0.79639   0.19730   0.90278   0.00000  Uiso   1.00
C671   C     0.85917   0.31217   0.77732   0.00000  Uiso   1.00
C672   C     0.80877   0.17798   0.84843   0.00000  Uiso   1.00
C673   C     0.85908   0.02166   0.77660   0.00000  Uiso   1.00
C674   C     0.83395   0.04247   0.74696   0.00000  Uiso   1.00
C675   C     0.80936   0.02073   0.71694   0.00000  Uiso   1.00
C676   C     0.80903   0.31115   0.71865   0.00000  Uiso   1.00
C677   C     0.83375   0.29067   0.74879   0.00000  Uiso   1.00
C678   C     0.96633   0.14185   0.78495   0.00000  Uiso   1.00
C679   C     0.68098   0.14183   0.78491   0.00000  Uiso   1.00
C680   C     0.70032   0.19153   0.71512   0.00000  Uiso   1.00
C681   C     0.98569   0.19150   0.71509   0.00000  Uiso   1.00
C682   C     0.83365   0.08666   0.74847   0.00000  Uiso   1.00
C683   C     0.85924   0.16680   0.64793   0.00000  Uiso   1.00
C684   C     0.93416   0.16461   0.50206   0.00000  Uiso   1.00
C685   C     0.87429   0.17039   0.58956   0.00000  Uiso   1.00
C686   C     0.75023   0.21227   0.93001   0.00000  Uiso   1.00
C687   C     0.73707   0.21956   0.98611   0.00000  Uiso   1.00
C688   C     0.77005   0.21079   0.51363   0.00000  Uiso   1.00
H689   H     0.94606   0.14933   0.57715   0.00000  Uiso   1.00
H690   H     0.87795   0.03852   0.79976   0.00000  Uiso   1.00
H691   H     0.79045   0.29377   0.69561   0.00000  Uiso   1.00
H692   H     0.94040   0.12203   0.81293   0.00000  Uiso   1.00
H693   H     0.69147   0.12193   0.81271   0.00000  Uiso   1.00
H694   H     0.72624   0.21142   0.68722   0.00000  Uiso   1.00
H695   H     0.97524   0.21133   0.68717   0.00000  Uiso   1.00
H696   H     0.95166   0.19321   0.89900   0.00000  Uiso   1.00
H697   H     0.80463   0.18799   0.59120   0.00000  Uiso   1.00
H698   H     0.75813   0.21494   0.55672   0.00000  Uiso   1.00
H699   H     0.89341   0.21481   0.85878   0.00000  Uiso   1.00
H700   H     0.87818   0.29588   0.80075   0.00000  Uiso   1.00
N701   N     0.71426   0.16668   0.75001   0.00000  Uiso   1.00
N702   N     0.95239   0.16665   0.75000   0.00000  Uiso   1.00
O703   O     0.79512   0.22775   0.75000   0.00000  Uiso   1.00
O704   O     0.87157   0.22774   0.75000   0.00000  Uiso   1.00
O705   O     0.77613   0.16666   0.82681   0.00000  Uiso   1.00
O706   O     0.85258   0.16665   0.82681   0.00000  Uiso   1.00
O707   O     0.79510   0.10559   0.74999   0.00000  Uiso   1.00
O708   O     0.87154   0.10558   0.74999   0.00000  Uiso   1.00
O709   O     0.81409   0.16668   0.67319   0.00000  Uiso   1.00
O710   O     0.89053   0.16667   0.67319   0.00000  Uiso   1.00
Zn711  Zn    0.78229   0.16667   0.75000   0.00000  Uiso   1.00
Zn712  Zn    0.88438   0.16666   0.75000   0.00000  Uiso   1.00
Br713  Br    0.77844   0.04718   0.67056   0.00000  Uiso   1.00
C714   C     0.98153   0.14756   0.97093   0.00000  Uiso   1.00
H715   H     0.67589   0.14480   0.99001   0.00000  Uiso   1.00
O716   O     0.98935   0.13394   0.92530   0.00000  Uiso   1.00
Br717  Br    0.70926   0.22974   0.88905   0.00000  Uiso   1.00
C718   C     0.68881   0.23538   0.51668   0.00000  Uiso   1.00
H719   H     0.99592   0.24183   0.99652   0.00000  Uiso   1.00
O720   O     0.67743   0.24131   0.56530   0.00000  Uiso   1.00
C721   C     0.16678   0.57998   0.74979   0.00000  Uiso   1.00
C722   C     0.15126   0.53352   0.98522   0.00000  Uiso   1.00
C723   C     0.16514   0.53378   0.92878   0.00000  Uiso   1.00
C724   C     0.18612   0.52228   0.51016   0.00000  Uiso   1.00
C725   C     0.23432   0.51471   0.97813   0.00000  Uiso   1.00
C726   C     0.24815   0.52607   0.92378   0.00000  Uiso   1.00
C727   C     0.21415   0.53730   0.90011   0.00000  Uiso   1.00
C728   C     0.17391   0.51638   0.56558   0.00000  Uiso   1.00
C729   C     0.25412   0.49436   0.55811   0.00000  Uiso   1.00
C730   C     0.12973   0.53063   0.90278   0.00000  Uiso   1.00
C731   C     0.19250   0.64550   0.77732   0.00000  Uiso   1.00
C732   C     0.14210   0.51132   0.84843   0.00000  Uiso   1.00
C733   C     0.19241   0.35499   0.77660   0.00000  Uiso   1.00
C734   C     0.16728   0.37581   0.74696   0.00000  Uiso   1.00
C735   C     0.14269   0.35406   0.71694   0.00000  Uiso   1.00
C736   C     0.14236   0.64449   0.71865   0.00000  Uiso   1.00
C737   C     0.16708   0.62400   0.74879   0.00000  Uiso   1.00
C738   C     0.29966   0.47518   0.78495   0.00000  Uiso   1.00
C739   C     0.01431   0.47517   0.78491   0.00000  Uiso   1.00
C740   C     0.03366   0.52487   0.71512   0.00000  Uiso   1.00
C741   C     0.31902   0.52483   0.71509   0.00000  Uiso   1.00
C742   C     0.16698   0.41999   0.74847   0.00000  Uiso   1.00
C743   C     0.19257   0.50014   0.64793   0.00000  Uiso   1.00
C744   C     0.26749   0.49795   0.50206   0.00000  Uiso   1.00
C745   C     0.20763   0.50372   0.58956   0.00000  Uiso   1.00
C746   C     0.08356   0.54561   0.93001   0.00000  Uiso   1.00
C747   C     0.07040   0.55290   0.98611   0.00000  Uiso   1.00
C748   C     0.10339   0.54412   0.51363   0.00000  Uiso   1.00
H749   H     0.27939   0.48267   0.57715   0.00000  Uiso   1.00
H750   H     0.21129   0.37185   0.79976   0.00000  Uiso   1.00
H751   H     0.12378   0.62710   0.69561   0.00000  Uiso   1.00
H752   H     0.27374   0.45536   0.81293   0.00000  Uiso   1.00
H753   H     0.02480   0.45526   0.81271   0.00000  Uiso   1.00
H754   H     0.05957   0.54475   0.68722   0.00000  Uiso   1.00
H755   H     0.30857   0.54466   0.68717   0.00000  Uiso   1.00
H756   H     0.28499   0.52654   0.89900   0.00000  Uiso   1.00
H757   H     0.13796   0.52133   0.59120   0.00000  Uiso   1.00
H758   H     0.09146   0.54828   0.55672   0.00000  Uiso   1.00
H759   H     0.22674   0.54814   0.85878   0.00000  Uiso   1.00
H760   H     0.21151   0.62922   0.80075   0.00000  Uiso   1.00
N761   N     0.04760   0.50001   0.75001   0.00000  Uiso   1.00
N762   N     0.28573   0.49998   0.75000   0.00000  Uiso   1.00
O763   O     0.12846   0.56108   0.75000   0.00000  Uiso   1.00
O764   O     0.20490   0.56107   0.75000   0.00000  Uiso   1.00
O765   O     0.10947   0.50000   0.82681   0.00000  Uiso   1.00
O766   O     0.18591   0.49999   0.82681   0.00000  Uiso   1.00
O767   O     0.12843   0.43893   0.74999   0.00000  Uiso   1.00
O768   O     0.20488   0.43892   0.74999   0.00000  Uiso   1.00
O769   O     0.14742   0.50001   0.67319   0.00000  Uiso   1.00
O770   O     0.22387   0.50000   0.67319   0.00000  Uiso   1.00
Zn771  Zn    0.11562   0.50001   0.75000   0.00000  Uiso   1.00
Zn772  Zn    0.21771   0.49999   0.75000   0.00000  Uiso   1.00
Br773  Br    0.11177   0.38052   0.67056   0.00000  Uiso   1.00
C774   C     0.31487   0.48089   0.97093   0.00000  Uiso   1.00
H775   H     0.00923   0.47813   0.99001   0.00000  Uiso   1.00
O776   O     0.32268   0.46727   0.92530   0.00000  Uiso   1.00
Br777  Br    0.04259   0.56308   0.88905   0.00000  Uiso   1.00
C778   C     0.02214   0.56871   0.51668   0.00000  Uiso   1.00
H779   H     0.32926   0.57516   0.99652   0.00000  Uiso   1.00
O780   O     0.01077   0.57464   0.56530   0.00000  Uiso   1.00
C781   C     0.50011   0.57998   0.74979   0.00000  Uiso   1.00
C782   C     0.48460   0.53352   0.98522   0.00000  Uiso   1.00
C783   C     0.49847   0.53378   0.92878   0.00000  Uiso   1.00
C784   C     0.51945   0.52228   0.51016   0.00000  Uiso   1.00
C785   C     0.56765   0.51471   0.97813   0.00000  Uiso   1.00
C786   C     0.58148   0.52607   0.92378   0.00000  Uiso   1.00
C787   C     0.54749   0.53730   0.90011   0.00000  Uiso   1.00
C788   C     0.50724   0.51638   0.56558   0.00000  Uiso   1.00
C789   C     0.58745   0.49436   0.55811   0.00000  Uiso   1.00
C790   C     0.46306   0.53063   0.90278   0.00000  Uiso   1.00
C791   C     0.52583   0.64550   0.77732   0.00000  Uiso   1.00
C792   C     0.47543   0.51132   0.84843   0.00000  Uiso   1.00
C793   C     0.52575   0.35499   0.77660   0.00000  Uiso   1.00
C794   C     0.50061   0.37581   0.74696   0.00000  Uiso   1.00
C795   C     0.47603   0.35406   0.71694   0.00000  Uiso   1.00
C796   C     0.47569   0.64449   0.71865   0.00000  Uiso   1.00
C797   C     0.50042   0.62400   0.74879   0.00000  Uiso   1.00
C798   C     0.63299   0.47518   0.78495   0.00000  Uiso   1.00
C799   C     0.34764   0.47517   0.78491   0.00000  Uiso   1.00
C800   C     0.36699   0.52487   0.71512   0.00000  Uiso   1.00
C801   C     0.65235   0.52483   0.71509   0.00000  Uiso   1.00
C802   C     0.50032   0.41999   0.74847   0.00000  Uiso   1.00
C803   C     0.52590   0.50014   0.64793   0.00000  Uiso   1.00
C804   C     0.60083   0.49795   0.50206   0.00000  Uiso   1.00
C805   C     0.54096   0.50372   0.58956   0.00000  Uiso   1.00
C806   C     0.41690   0.54561   0.93001   0.00000  Uiso   1.00
C807   C     0.40373   0.55290   0.98611   0.00000  Uiso   1.00
C808   C     0.43672   0.54412   0.51363   0.00000  Uiso   1.00
H809   H     0.61273   0.48267   0.57715   0.00000  Uiso   1.00
H810   H     0.54462   0.37185   0.79976   0.00000  Uiso   1.00
H811   H     0.45711   0.62710   0.69561   0.00000  Uiso   1.00
H812   H     0.60707   0.45536   0.81293   0.00000  Uiso   1.00
H813   H     0.35814   0.45526   0.81271   0.00000  Uiso   1.00
H814   H     0.39290   0.54475   0.68722   0.00000  Uiso   1.00
H815   H     0.64191   0.54466   0.68717   0.00000  Uiso   1.00
H816   H     0.61833   0.52654   0.89900   0.00000  Uiso   1.00
H817   H     0.47130   0.52133   0.59120   0.00000  Uiso   1.00
H818   H     0.42480   0.54828   0.55672   0.00000  Uiso   1.00
H819   H     0.56008   0.54814   0.85878   0.00000  Uiso   1.00
H820   H     0.54484   0.62922   0.80075   0.00000  Uiso   1.00
N821   N     0.38093   0.50001   0.75001   0.00000  Uiso   1.00
N822   N     0.61906   0.49998   0.75000   0.00000  Uiso   1.00
O823   O     0.46179   0.56108   0.75000   0.00000  Uiso   1.00
O824   O     0.53823   0.56107   0.75000   0.00000  Uiso   1.00
O825   O     0.44280   0.50000   0.82681   0.00000  Uiso   1.00
O826   O     0.51924   0.49999   0.82681   0.00000  Uiso   1.00
O827   O     0.46177   0.43893   0.74999   0.00000  Uiso   1.00
O828   O     0.53821   0.43892   0.74999   0.00000  Uiso   1.00
O829   O     0.48076   0.50001   0.67319   0.00000  Uiso   1.00
O830   O     0.55720   0.50000   0.67319   0.00000  Uiso   1.00
Zn831  Zn    0.44896   0.50001   0.75000   0.00000  Uiso   1.00
Zn832  Zn    0.55104   0.49999   0.75000   0.00000  Uiso   1.00
Br833  Br    0.44511   0.38052   0.67056   0.00000  Uiso   1.00
C834   C     0.64820   0.48089   0.97093   0.00000  Uiso   1.00
H835   H     0.34256   0.47813   0.99001   0.00000  Uiso   1.00
O836   O     0.65601   0.46727   0.92530   0.00000  Uiso   1.00
Br837  Br    0.37593   0.56308   0.88905   0.00000  Uiso   1.00
C838   C     0.35548   0.56871   0.51668   0.00000  Uiso   1.00
H839   H     0.66259   0.57516   0.99652   0.00000  Uiso   1.00
O840   O     0.34410   0.57464   0.56530   0.00000  Uiso   1.00
C841   C     0.83344   0.57998   0.74979   0.00000  Uiso   1.00
C842   C     0.81793   0.53352   0.98522   0.00000  Uiso   1.00
C843   C     0.83181   0.53378   0.92878   0.00000  Uiso   1.00
C844   C     0.85278   0.52228   0.51016   0.00000  Uiso   1.00
C845   C     0.90098   0.51471   0.97813   0.00000  Uiso   1.00
C846   C     0.91481   0.52607   0.92378   0.00000  Uiso   1.00
C847   C     0.88082   0.53730   0.90011   0.00000  Uiso   1.00
C848   C     0.84058   0.51638   0.56558   0.00000  Uiso   1.00
C849   C     0.92078   0.49436   0.55811   0.00000  Uiso   1.00
C850   C     0.79639   0.53063   0.90278   0.00000  Uiso   1.00
C851   C     0.85917   0.64550   0.77732   0.00000  Uiso   1.00
C852   C     0.80877   0.51132   0.84843   0.00000  Uiso   1.00
C853   C     0.85908   0.35499   0.77660   0.00000  Uiso   1.00
C854   C     0.83395   0.37581   0.74696   0.00000  Uiso   1.00
C855   C     0.80936   0.35406   0.71694   0.00000  Uiso   1.00
C856   C     0.80903   0.64449   0.71865   0.00000  Uiso   1.00
C857   C     0.83375   0.62400   0.74879   0.00000  Uiso   1.00
C858   C     0.96633   0.47518   0.78495   0.00000  Uiso   1.00
C859   C     0.68098   0.47517   0.78491   0.00000  Uiso   1.00
C860   C     0.70032   0.52487   0.71512   0.00000  Uiso   1.00
C861   C     0.98569   0.52483   0.71509   0.00000  Uiso   1.00
C862   C     0.83365   0.41999   0.74847   0.00000  Uiso   1.00
C863   C     0.85924   0.50014   0.64793   0.00000  Uiso   1.00
C864   C     0.93416   0.49795   0.50206   0.00000  Uiso   1.00
C865   C     0.87429   0.50372   0.58956   0.00000  Uiso   1.00
C866   C     0.75023   0.54561   0.93001   0.00000  Uiso   1.00
C867   C     0.73707   0.55290   0.98611   0.00000  Uiso   1.00
C868   C     0.77005   0.54412   0.51363   0.00000  Uiso   1.00
H869   H     0.94606   0.48267   0.57715   0.00000  Uiso   1.00
H870   H     0.87795   0.37185   0.79976   0.00000  Uiso   1.00
H871   H     0.79045   0.62710   0.69561   0.00000  Uiso   1.00
H872   H     0.94040   0.45536   0.81293   0.00000  Uiso   1.00
H873   H     0.69147   0.45526   0.81271   0.00000  Uiso   1.00
H874   H     0.72624   0.54475   0.68722   0.00000  Uiso   1.00
H875   H     0.97524   0.54466   0.68717   0.00000  Uiso   1.00
H876   H     0.95166   0.52654   0.89900   0.00000  Uiso   1.00
H877   H     0.80463   0.52133   0.59120   0.00000  Uiso   1.00
H878   H     0.75813   0.54828   0.55672   0.00000  Uiso   1.00
H879   H     0.89341   0.54814   0.85878   0.00000  Uiso   1.00
H880   H     0.87818   0.62922   0.80075   0.00000  Uiso   1.00
N881   N     0.71426   0.50001   0.75001   0.00000  Uiso   1.00
N882   N     0.95239   0.49998   0.75000   0.00000  Uiso   1.00
O883   O     0.79512   0.56108   0.75000   0.00000  Uiso   1.00
O884   O     0.87157   0.56107   0.75000   0.00000  Uiso   1.00
O885   O     0.77613   0.50000   0.82681   0.00000  Uiso   1.00
O886   O     0.85258   0.49999   0.82681   0.00000  Uiso   1.00
O887   O     0.79510   0.43893   0.74999   0.00000  Uiso   1.00
O888   O     0.87154   0.43892   0.74999   0.00000  Uiso   1.00
O889   O     0.81409   0.50001   0.67319   0.00000  Uiso   1.00
O890   O     0.89053   0.50000   0.67319   0.00000  Uiso   1.00
Zn891  Zn    0.78229   0.50001   0.75000   0.00000  Uiso   1.00
Zn892  Zn    0.88438   0.49999   0.75000   0.00000  Uiso   1.00
Br893  Br    0.77844   0.38052   0.67056   0.00000  Uiso   1.00
C894   C     0.98153   0.48089   0.97093   0.00000  Uiso   1.00
H895   H     0.67589   0.47813   0.99001   0.00000  Uiso   1.00
O896   O     0.98935   0.46727   0.92530   0.00000  Uiso   1.00
Br897  Br    0.70926   0.56308   0.88905   0.00000  Uiso   1.00
C898   C     0.68881   0.56871   0.51668   0.00000  Uiso   1.00
H899   H     0.99592   0.57516   0.99652   0.00000  Uiso   1.00
O900   O     0.67743   0.57464   0.56530   0.00000  Uiso   1.00
C901   C     0.16678   0.91331   0.74979   0.00000  Uiso   1.00
C902   C     0.15126   0.86686   0.98522   0.00000  Uiso   1.00
C903   C     0.16514   0.86711   0.92878   0.00000  Uiso   1.00
C904   C     0.18612   0.85561   0.51016   0.00000  Uiso   1.00
C905   C     0.23432   0.84804   0.97813   0.00000  Uiso   1.00
C906   C     0.24815   0.85941   0.92378   0.00000  Uiso   1.00
C907   C     0.21415   0.87063   0.90011   0.00000  Uiso   1.00
C908   C     0.17391   0.84971   0.56558   0.00000  Uiso   1.00
C909   C     0.25412   0.82769   0.55811   0.00000  Uiso   1.00
C910   C     0.12973   0.86396   0.90278   0.00000  Uiso   1.00
C911   C     0.19250   0.97884   0.77732   0.00000  Uiso   1.00
C912   C     0.14210   0.84465   0.84843   0.00000  Uiso   1.00
C913   C     0.19241   0.68832   0.77660   0.00000  Uiso   1.00
C914   C     0.16728   0.70914   0.74696   0.00000  Uiso   1.00
C915   C     0.14269   0.68740   0.71694   0.00000  Uiso   1.00
C916   C     0.14236   0.97782   0.71865   0.00000  Uiso   1.00
C917   C     0.16708   0.95734   0.74879   0.00000  Uiso   1.00
C918   C     0.29966   0.80851   0.78495   0.00000  Uiso   1.00
C919   C     0.01431   0.80850   0.78491   0.00000  Uiso   1.00
C920   C     0.03366   0.85820   0.71512   0.00000  Uiso   1.00
C921   C     0.31902   0.85816   0.71509   0.00000  Uiso   1.00
C922   C     0.16698   0.75333   0.74847   0.00000  Uiso   1.00
C923   C     0.19257   0.83347   0.64793   0.00000  Uiso   1.00
C924   C     0.26749   0.83128   0.50206   0.00000  Uiso   1.00
C925   C     0.20763   0.83705   0.58956   0.00000  Uiso   1.00
C926   C     0.08356   0.87894   0.93001   0.00000  Uiso   1.00
C927   C     0.07040   0.88623   0.98611   0.00000  Uiso   1.00
C928   C     0.10339   0.87745   0.51363   0.00000  Uiso   1.00
H929   H     0.27939   0.81600   0.57715   0.00000  Uiso   1.00
H930   H     0.21129   0.70519   0.79976   0.00000  Uiso   1.00
H931   H     0.12378   0.96043   0.69561   0.00000  Uiso   1.00
H932   H     0.27374   0.78869   0.81293   0.00000  Uiso   1.00
H933   H     0.02480   0.78860   0.81271   0.00000  Uiso   1.00
H934   H     0.05957   0.87808   0.68722   0.00000  Uiso   1.00
H935   H     0.30857   0.87800   0.68717   0.00000  Uiso   1.00
H936   H     0.28499   0.85988   0.89900   0.00000  Uiso   1.00
H937   H     0.13796   0.85466   0.59120   0.00000  Uiso   1.00
H938   H     0.09146   0.88161   0.55672   0.00000  Uiso   1.00
H939   H     0.22674   0.88147   0.85878   0.00000  Uiso   1.00
H940   H     0.21151   0.96255   0.80075   0.00000  Uiso   1.00
N941   N     0.04760   0.83334   0.75001   0.00000  Uiso   1.00
N942   N     0.28573   0.83331   0.75000   0.00000  Uiso   1.00
O943   O     0.12846   0.89442   0.75000   0.00000  Uiso   1.00
O944   O     0.20490   0.89441   0.75000   0.00000  Uiso   1.00
O945   O     0.10947   0.83333   0.82681   0.00000  Uiso   1.00
O946   O     0.18591   0.83332   0.82681   0.00000  Uiso   1.00
O947   O     0.12843   0.77226   0.74999   0.00000  Uiso   1.00
O948   O     0.20488   0.77225   0.74999   0.00000  Uiso   1.00
O949   O     0.14742   0.83335   0.67319   0.00000  Uiso   1.00
O950   O     0.22387   0.83334   0.67319   0.00000  Uiso   1.00
Zn951  Zn    0.11562   0.83334   0.75000   0.00000  Uiso   1.00
Zn952  Zn    0.21771   0.83333   0.75000   0.00000  Uiso   1.00
Br953  Br    0.11177   0.71385   0.67056   0.00000  Uiso   1.00
C954   C     0.31487   0.81423   0.97093   0.00000  Uiso   1.00
H955   H     0.00923   0.81146   0.99001   0.00000  Uiso   1.00
O956   O     0.32268   0.80061   0.92530   0.00000  Uiso   1.00
Br957  Br    0.04259   0.89641   0.88905   0.00000  Uiso   1.00
C958   C     0.02214   0.90204   0.51668   0.00000  Uiso   1.00
H959   H     0.32926   0.90849   0.99652   0.00000  Uiso   1.00
O960   O     0.01077   0.90797   0.56530   0.00000  Uiso   1.00
C961   C     0.50011   0.91331   0.74979   0.00000  Uiso   1.00
C962   C     0.48460   0.86686   0.98522   0.00000  Uiso   1.00
C963   C     0.49847   0.86711   0.92878   0.00000  Uiso   1.00
C964   C     0.51945   0.85561   0.51016   0.00000  Uiso   1.00
C965   C     0.56765   0.84804   0.97813   0.00000  Uiso   1.00
C966   C     0.58148   0.85941   0.92378   0.00000  Uiso   1.00
C967   C     0.54749   0.87063   0.90011   0.00000  Uiso   1.00
C968   C     0.50724   0.84971   0.56558   0.00000  Uiso   1.00
C969   C     0.58745   0.82769   0.55811   0.00000  Uiso   1.00
C970   C     0.46306   0.86396   0.90278   0.00000  Uiso   1.00
C971   C     0.52583   0.97884   0.77732   0.00000  Uiso   1.00
C972   C     0.47543   0.84465   0.84843   0.00000  Uiso   1.00
C973   C     0.52575   0.68832   0.77660   0.00000  Uiso   1.00
C974   C     0.50061   0.70914   0.74696   0.00000  Uiso   1.00
C975   C     0.47603   0.68740   0.71694   0.00000  Uiso   1.00
C976   C     0.47569   0.97782   0.71865   0.00000  Uiso   1.00
C977   C     0.50042   0.95734   0.74879   0.00000  Uiso   1.00
C978   C     0.63299   0.80851   0.78495   0.00000  Uiso   1.00
C979   C     0.34764   0.80850   0.78491   0.00000  Uiso   1.00
C980   C     0.36699   0.85820   0.71512   0.00000  Uiso   1.00
C981   C     0.65235   0.85816   0.71509   0.00000  Uiso   1.00
C982   C     0.50032   0.75333   0.74847   0.00000  Uiso   1.00
C983   C     0.52590   0.83347   0.64793   0.00000  Uiso   1.00
C984   C     0.60083   0.83128   0.50206   0.00000  Uiso   1.00
C985   C     0.54096   0.83705   0.58956   0.00000  Uiso   1.00
C986   C     0.41690   0.87894   0.93001   0.00000  Uiso   1.00
C987   C     0.40373   0.88623   0.98611   0.00000  Uiso   1.00
C988   C     0.43672   0.87745   0.51363   0.00000  Uiso   1.00
H989   H     0.61273   0.81600   0.57715   0.00000  Uiso   1.00
H990   H     0.54462   0.70519   0.79976   0.00000  Uiso   1.00
H991   H     0.45711   0.96043   0.69561   0.00000  Uiso   1.00
H992   H     0.60707   0.78869   0.81293   0.00000  Uiso   1.00
H993   H     0.35814   0.78860   0.81271   0.00000  Uiso   1.00
H994   H     0.39290   0.87808   0.68722   0.00000  Uiso   1.00
H995   H     0.64191   0.87800   0.68717   0.00000  Uiso   1.00
H996   H     0.61833   0.85988   0.89900   0.00000  Uiso   1.00
H997   H     0.47130   0.85466   0.59120   0.00000  Uiso   1.00
H998   H     0.42480   0.88161   0.55672   0.00000  Uiso   1.00
H999   H     0.56008   0.88147   0.85878   0.00000  Uiso   1.00
H1000  H     0.54484   0.96255   0.80075   0.00000  Uiso   1.00
N1001  N     0.38093   0.83334   0.75001   0.00000  Uiso   1.00
N1002  N     0.61906   0.83331   0.75000   0.00000  Uiso   1.00
O1003  O     0.46179   0.89442   0.75000   0.00000  Uiso   1.00
O1004  O     0.53823   0.89441   0.75000   0.00000  Uiso   1.00
O1005  O     0.44280   0.83333   0.82681   0.00000  Uiso   1.00
O1006  O     0.51924   0.83332   0.82681   0.00000  Uiso   1.00
O1007  O     0.46177   0.77226   0.74999   0.00000  Uiso   1.00
O1008  O     0.53821   0.77225   0.74999   0.00000  Uiso   1.00
O1009  O     0.48076   0.83335   0.67319   0.00000  Uiso   1.00
O1010  O     0.55720   0.83334   0.67319   0.00000  Uiso   1.00
Zn1011 Zn    0.44896   0.83334   0.75000   0.00000  Uiso   1.00
Zn1012 Zn    0.55104   0.83333   0.75000   0.00000  Uiso   1.00
Br1013 Br    0.44511   0.71385   0.67056   0.00000  Uiso   1.00
C1014  C     0.64820   0.81423   0.97093   0.00000  Uiso   1.00
H1015  H     0.34256   0.81146   0.99001   0.00000  Uiso   1.00
O1016  O     0.65601   0.80061   0.92530   0.00000  Uiso   1.00
Br1017 Br    0.37593   0.89641   0.88905   0.00000  Uiso   1.00
C1018  C     0.35548   0.90204   0.51668   0.00000  Uiso   1.00
H1019  H     0.66259   0.90849   0.99652   0.00000  Uiso   1.00
O1020  O     0.34410   0.90797   0.56530   0.00000  Uiso   1.00
C1021  C     0.83344   0.91331   0.74979   0.00000  Uiso   1.00
C1022  C     0.81793   0.86686   0.98522   0.00000  Uiso   1.00
C1023  C     0.83181   0.86711   0.92878   0.00000  Uiso   1.00
C1024  C     0.85278   0.85561   0.51016   0.00000  Uiso   1.00
C1025  C     0.90098   0.84804   0.97813   0.00000  Uiso   1.00
C1026  C     0.91481   0.85941   0.92378   0.00000  Uiso   1.00
C1027  C     0.88082   0.87063   0.90011   0.00000  Uiso   1.00
C1028  C     0.84058   0.84971   0.56558   0.00000  Uiso   1.00
C1029  C     0.92078   0.82769   0.55811   0.00000  Uiso   1.00
C1030  C     0.79639   0.86396   0.90278   0.00000  Uiso   1.00
C1031  C     0.85917   0.97884   0.77732   0.00000  Uiso   1.00
C1032  C     0.80877   0.84465   0.84843   0.00000  Uiso   1.00
C1033  C     0.85908   0.68832   0.77660   0.00000  Uiso   1.00
C1034  C     0.83395   0.70914   0.74696   0.00000  Uiso   1.00
C1035  C     0.80936   0.68740   0.71694   0.00000  Uiso   1.00
C1036  C     0.80903   0.97782   0.71865   0.00000  Uiso   1.00
C1037  C     0.83375   0.95734   0.74879   0.00000  Uiso   1.00
C1038  C     0.96633   0.80851   0.78495   0.00000  Uiso   1.00
C1039  C     0.68098   0.80850   0.78491   0.00000  Uiso   1.00
C1040  C     0.70032   0.85820   0.71512   0.00000  Uiso   1.00
C1041  C     0.98569   0.85816   0.71509   0.00000  Uiso   1.00
C1042  C     0.83365   0.75333   0.74847   0.00000  Uiso   1.00
C1043  C     0.85924   0.83347   0.64793   0.00000  Uiso   1.00
C1044  C     0.93416   0.83128   0.50206   0.00000  Uiso   1.00
C1045  C     0.87429   0.83705   0.58956   0.00000  Uiso   1.00
C1046  C     0.75023   0.87894   0.93001   0.00000  Uiso   1.00
C1047  C     0.73707   0.88623   0.98611   0.00000  Uiso   1.00
C1048  C     0.77005   0.87745   0.51363   0.00000  Uiso   1.00
H1049  H     0.94606   0.81600   0.57715   0.00000  Uiso   1.00
H1050  H     0.87795   0.70519   0.79976   0.00000  Uiso   1.00
H1051  H     0.79045   0.96043   0.69561   0.00000  Uiso   1.00
H1052  H     0.94040   0.78869   0.81293   0.00000  Uiso   1.00
H1053  H     0.69147   0.78860   0.81271   0.00000  Uiso   1.00
H1054  H     0.72624   0.87808   0.68722   0.00000  Uiso   1.00
H1055  H     0.97524   0.87800   0.68717   0.00000  Uiso   1.00
H1056  H     0.95166   0.85988   0.89900   0.00000  Uiso   1.00
H1057  H     0.80463   0.85466   0.59120   0.00000  Uiso   1.00
H1058  H     0.75813   0.88161   0.55672   0.00000  Uiso   1.00
H1059  H     0.89341   0.88147   0.85878   0.00000  Uiso   1.00
H1060  H     0.87818   0.96255   0.80075   0.00000  Uiso   1.00
N1061  N     0.71426   0.83334   0.75001   0.00000  Uiso   1.00
N1062  N     0.95239   0.83331   0.75000   0.00000  Uiso   1.00
O1063  O     0.79512   0.89442   0.75000   0.00000  Uiso   1.00
O1064  O     0.87157   0.89441   0.75000   0.00000  Uiso   1.00
O1065  O     0.77613   0.83333   0.82681   0.00000  Uiso   1.00
O1066  O     0.85258   0.83332   0.82681   0.00000  Uiso   1.00
O1067  O     0.79510   0.77226   0.74999   0.00000  Uiso   1.00
O1068  O     0.87154   0.77225   0.74999   0.00000  Uiso   1.00
O1069  O     0.81409   0.83335   0.67319   0.00000  Uiso   1.00
O1070  O     0.89053   0.83334   0.67319   0.00000  Uiso   1.00
Zn1071 Zn    0.78229   0.83334   0.75000   0.00000  Uiso   1.00
Zn1072 Zn    0.88438   0.83333   0.75000   0.00000  Uiso   1.00
Br1073 Br    0.77844   0.71385   0.67056   0.00000  Uiso   1.00
C1074  C     0.98153   0.81423   0.97093   0.00000  Uiso   1.00
H1075  H     0.67589   0.81146   0.99001   0.00000  Uiso   1.00
O1076  O     0.98935   0.80061   0.92530   0.00000  Uiso   1.00
Br1077 Br    0.70926   0.89641   0.88905   0.00000  Uiso   1.00
C1078  C     0.68881   0.90204   0.51668   0.00000  Uiso   1.00
H1079  H     0.99592   0.90849   0.99652   0.00000  Uiso   1.00
O1080  O     0.67743   0.90797   0.56530   0.00000  Uiso   1.00
loop_
_geom_bond_atom_site_label_1
_geom_bond_atom_site_label_2
_geom_bond_distance
_geom_bond_site_symmetry_2
_ccdc_geom_bond_type
C1     O44     1.280   .     A
C1     C17     1.409   .     S
C1     O43     1.280   .     A
C2     C3      1.400   .     A
C2     C544    1.425   .     S
C2     C568    1.417   .     S
C3     C10     1.416   .     A
C3     C7      1.410   .     A
C4     C8      1.390   .     A
C4     C542    1.425   1_554 S
C4     C545    1.428   1_554 S
C5     C6      1.396   .     A
C5     C544    1.428   .     S
C5     C564    1.421   .     S
C6     C7      1.381   .     A
C6     H36     1.078   .     S
C7     H39     1.082   .     S
C8     C25     1.391   .     A
C8     H37     1.075   .     S
C9     C24     1.395   .     A
C9     H29     1.085   .     S
C9     C25     1.394   .     A
C10    C26     1.410   .     A
C10    C12     1.484   .     S
C11    H40     1.084   .     S
C11    C17     1.392   .     A
C11    C193    1.371   .     S
C12    O46     1.291   .     A
C12    O45     1.310   .     A
C13    C14     1.397   .     A
C13    H30     1.084   .     S
C13    C371    1.371   1_545 S
C14    C22     1.415   .     S
C14    C15     1.406   .     A
C15    Br53    1.925   .     S
C15    C376    1.374   1_545 S
C16    H31     1.084   .     S
C16    C17     1.393   .     A
C16    C195    1.374   .     S
C18    N42     1.366   .     A
C18    H32     1.082   .     S
C18    C79     1.416   .     S
C19    H33     1.081   .     S
C19    N41     1.366   .     A
C19    C138    1.416   1_455 S
C20    H34     1.082   .     S
C20    N41     1.366   .     A
C20    C141    1.416   1_455 S
C21    H35     1.082   .     S
C21    N42     1.366   .     A
C21    C80     1.416   .     S
C22    O48     1.282   .     A
C22    O47     1.280   .     A
C23    C25     1.452   .     S
C23    O49     1.289   .     A
C23    O50     1.291   .     A
C24    C545    1.421   1_554 S
C24    C594    1.485   1_554 S
C26    C27     1.412   .     A
C26    Br57    1.930   .     S
C27    C568    1.407   .     S
C27    C598    1.488   .     S
C28    H38     1.076   .     S
C28    C542    1.417   1_554 S
C28    C567    1.407   1_554 S
N41    Zn51    2.007   .     S
N42    Zn52    2.007   .     S
O43    Zn51    1.990   .     S
O44    Zn52    1.992   .     S
O45    Zn51    1.955   .     S
O46    Zn52    1.929   .     S
O47    Zn51    1.992   .     S
O48    Zn52    1.990   .     S
O49    Zn51    1.929   .     S
O50    Zn52    1.955   .     S
C54    O56     1.220   .     D
C54    C564    1.485   .     S
C54    H115    1.085   .     S
H55    C174    1.085   1_455 S
C58    O60     1.221   .     D
C58    C567    1.488   1_554 S
C58    H719    1.083   1_454 S
H59    C658    1.083   .     S
C61    O104    1.280   .     A
C61    C77     1.409   .     S
C61    O103    1.280   .     A
C62    C63     1.400   .     A
C62    C604    1.425   .     S
C62    C628    1.417   .     S
C63    C70     1.416   .     A
C63    C67     1.410   .     A
C64    C68     1.390   .     A
C64    C602    1.425   1_554 S
C64    C605    1.428   1_554 S
C65    C66     1.396   .     A
C65    C604    1.428   .     S
C65    C624    1.421   .     S
C66    C67     1.381   .     A
C66    H96     1.078   .     S
C67    H99     1.082   .     S
C68    C85     1.391   .     A
C68    H97     1.075   .     S
C69    C84     1.395   .     A
C69    H89     1.085   .     S
C69    C85     1.394   .     A
C70    C86     1.410   .     A
C70    C72     1.484   .     S
C71    H100    1.084   .     S
C71    C77     1.392   .     A
C71    C253    1.371   .     S
C72    O106    1.291   .     A
C72    O105    1.310   .     A
C73    C74     1.397   .     A
C73    H90     1.084   .     S
C73    C431    1.371   1_545 S
C74    C82     1.415   .     S
C74    C75     1.406   .     A
C75    Br113   1.925   .     S
C75    C436    1.374   1_545 S
C76    H91     1.084   .     S
C76    C77     1.393   .     A
C76    C255    1.374   .     S
C78    N102    1.366   .     A
C78    H92     1.082   .     S
C78    C139    1.416   .     S
C79    H93     1.081   .     S
C79    N101    1.366   .     A
C80    H94     1.082   .     S
C80    N101    1.366   .     A
C81    H95     1.082   .     S
C81    N102    1.366   .     A
C81    C140    1.416   .     S
C82    O108    1.282   .     A
C82    O107    1.280   .     A
C83    C85     1.452   .     S
C83    O109    1.289   .     A
C83    O110    1.291   .     A
C84    C605    1.421   1_554 S
C84    C654    1.485   1_554 S
C86    C87     1.412   .     A
C86    Br117   1.930   .     S
C87    C628    1.407   .     S
C87    C658    1.488   .     S
C88    H98     1.076   .     S
C88    C602    1.417   1_554 S
C88    C627    1.407   1_554 S
N101   Zn111   2.007   .     S
N102   Zn112   2.007   .     S
O103   Zn111   1.990   .     S
O104   Zn112   1.992   .     S
O105   Zn111   1.955   .     S
O106   Zn112   1.929   .     S
O107   Zn111   1.992   .     S
O108   Zn112   1.990   .     S
O109   Zn111   1.929   .     S
O110   Zn112   1.955   .     S
C114   O116    1.220   .     D
C114   C624    1.485   .     S
C114   H175    1.085   .     S
C118   O120    1.221   .     D
C118   C627    1.488   1_554 S
C118   H599    1.083   1_554 S
H119   C718    1.083   .     S
C121   O164    1.280   .     A
C121   C137    1.409   .     S
C121   O163    1.280   .     A
C122   C123    1.400   .     A
C122   C664    1.425   .     S
C122   C688    1.417   .     S
C123   C130    1.416   .     A
C123   C127    1.410   .     A
C124   C128    1.390   .     A
C124   C662    1.425   1_554 S
C124   C665    1.428   1_554 S
C125   C126    1.396   .     A
C125   C664    1.428   .     S
C125   C684    1.421   .     S
C126   C127    1.381   .     A
C126   H156    1.078   .     S
C127   H159    1.082   .     S
C128   C145    1.391   .     A
C128   H157    1.075   .     S
C129   C144    1.395   .     A
C129   H149    1.085   .     S
C129   C145    1.394   .     A
C130   C146    1.410   .     A
C130   C132    1.484   .     S
C131   H160    1.084   .     S
C131   C137    1.392   .     A
C131   C313    1.371   .     S
C132   O166    1.291   .     A
C132   O165    1.310   .     A
C133   C134    1.397   .     A
C133   H150    1.084   .     S
C133   C491    1.371   1_545 S
C134   C142    1.415   .     S
C134   C135    1.406   .     A
C135   Br173   1.925   .     S
C135   C496    1.374   1_545 S
C136   H151    1.084   .     S
C136   C137    1.393   .     A
C136   C315    1.374   .     S
C138   N162    1.366   .     A
C138   H152    1.082   .     S
C138   C19     1.416   1_655 S
C139   H153    1.081   .     S
C139   N161    1.366   .     A
C140   H154    1.082   .     S
C140   N161    1.366   .     A
C141   H155    1.082   .     S
C141   N162    1.366   .     A
C141   C20     1.416   1_655 S
C142   O168    1.282   .     A
C142   O167    1.280   .     A
C143   C145    1.452   .     S
C143   O169    1.289   .     A
C143   O170    1.291   .     A
C144   C665    1.421   1_554 S
C144   C714    1.485   1_554 S
C146   C147    1.412   .     A
C146   Br177   1.930   .     S
C147   C688    1.407   .     S
C147   C718    1.488   .     S
C148   H158    1.076   .     S
C148   C662    1.417   1_554 S
C148   C687    1.407   1_554 S
N161   Zn171   2.007   .     S
N162   Zn172   2.007   .     S
O163   Zn171   1.990   .     S
O164   Zn172   1.992   .     S
O165   Zn171   1.955   .     S
O166   Zn172   1.929   .     S
O167   Zn171   1.992   .     S
O168   Zn172   1.990   .     S
O169   Zn171   1.929   .     S
O170   Zn172   1.955   .     S
C174   O176    1.220   .     D
C174   C684    1.485   .     S
C174   H55     1.085   1_655 S
C178   O180    1.221   .     D
C178   C687    1.488   1_554 S
C178   H659    1.083   1_554 S
H179   C598    1.083   1_655 S
C181   O224    1.280   .     A
C181   C197    1.409   .     S
C181   O223    1.280   .     A
C182   C183    1.400   .     A
C182   C724    1.425   .     S
C182   C748    1.417   .     S
C183   C190    1.416   .     A
C183   C187    1.410   .     A
C184   C188    1.390   .     A
C184   C722    1.425   1_554 S
C184   C725    1.428   1_554 S
C185   C186    1.396   .     A
C185   C724    1.428   .     S
C185   C744    1.421   .     S
C186   C187    1.381   .     A
C186   H216    1.078   .     S
C187   H219    1.082   .     S
C188   C205    1.391   .     A
C188   H217    1.075   .     S
C189   C204    1.395   .     A
C189   H209    1.085   .     S
C189   C205    1.394   .     A
C190   C206    1.410   .     A
C190   C192    1.484   .     S
C191   H220    1.084   .     S
C191   C197    1.392   .     A
C191   C373    1.371   .     S
C192   O226    1.291   .     A
C192   O225    1.310   .     A
C193   C194    1.397   .     A
C193   H210    1.084   .     S
C194   C202    1.415   .     S
C194   C195    1.406   .     A
C195   Br233   1.925   .     S
C196   H211    1.084   .     S
C196   C197    1.393   .     A
C196   C375    1.374   .     S
C198   N222    1.366   .     A
C198   H212    1.082   .     S
C198   C259    1.416   .     S
C199   H213    1.081   .     S
C199   N221    1.366   .     A
C199   C318    1.416   1_455 S
C200   H214    1.082   .     S
C200   N221    1.366   .     A
C200   C321    1.416   1_455 S
C201   H215    1.082   .     S
C201   N222    1.366   .     A
C201   C260    1.416   .     S
C202   O228    1.282   .     A
C202   O227    1.280   .     A
C203   C205    1.452   .     S
C203   O229    1.289   .     A
C203   O230    1.291   .     A
C204   C725    1.421   1_554 S
C204   C774    1.485   1_554 S
C206   C207    1.412   .     A
C206   Br237   1.930   .     S
C207   C748    1.407   .     S
C207   C778    1.488   .     S
C208   H218    1.076   .     S
C208   C722    1.417   1_554 S
C208   C747    1.407   1_554 S
N221   Zn231   2.007   .     S
N222   Zn232   2.007   .     S
O223   Zn231   1.990   .     S
O224   Zn232   1.992   .     S
O225   Zn231   1.955   .     S
O226   Zn232   1.929   .     S
O227   Zn231   1.992   .     S
O228   Zn232   1.990   .     S
O229   Zn231   1.929   .     S
O230   Zn232   1.955   .     S
C234   O236    1.220   .     D
C234   C744    1.485   .     S
C234   H295    1.085   .     S
H235   C354    1.085   1_455 S
C238   O240    1.221   .     D
C238   C747    1.488   1_554 S
C238   H899    1.083   1_454 S
H239   C838    1.083   .     S
C241   O284    1.280   .     A
C241   C257    1.409   .     S
C241   O283    1.280   .     A
C242   C243    1.400   .     A
C242   C784    1.425   .     S
C242   C808    1.417   .     S
C243   C250    1.416   .     A
C243   C247    1.410   .     A
C244   C248    1.390   .     A
C244   C782    1.425   1_554 S
C244   C785    1.428   1_554 S
C245   C246    1.396   .     A
C245   C784    1.428   .     S
C245   C804    1.421   .     S
C246   C247    1.381   .     A
C246   H276    1.078   .     S
C247   H279    1.082   .     S
C248   C265    1.391   .     A
C248   H277    1.075   .     S
C249   C264    1.395   .     A
C249   H269    1.085   .     S
C249   C265    1.394   .     A
C250   C266    1.410   .     A
C250   C252    1.484   .     S
C251   H280    1.084   .     S
C251   C257    1.392   .     A
C251   C433    1.371   .     S
C252   O286    1.291   .     A
C252   O285    1.310   .     A
C253   C254    1.397   .     A
C253   H270    1.084   .     S
C254   C262    1.415   .     S
C254   C255    1.406   .     A
C255   Br293   1.925   .     S
C256   H271    1.084   .     S
C256   C257    1.393   .     A
C256   C435    1.374   .     S
C258   N282    1.366   .     A
C258   H272    1.082   .     S
C258   C319    1.416   .     S
C259   H273    1.081   .     S
C259   N281    1.366   .     A
C260   H274    1.082   .     S
C260   N281    1.366   .     A
C261   H275    1.082   .     S
C261   N282    1.366   .     A
C261   C320    1.416   .     S
C262   O288    1.282   .     A
C262   O287    1.280   .     A
C263   C265    1.452   .     S
C263   O289    1.289   .     A
C263   O290    1.291   .     A
C264   C785    1.421   1_554 S
C264   C834    1.485   1_554 S
C266   C267    1.412   .     A
C266   Br297   1.930   .     S
C267   C808    1.407   .     S
C267   C838    1.488   .     S
C268   H278    1.076   .     S
C268   C782    1.417   1_554 S
C268   C807    1.407   1_554 S
N281   Zn291   2.007   .     S
N282   Zn292   2.007   .     S
O283   Zn291   1.990   .     S
O284   Zn292   1.992   .     S
O285   Zn291   1.955   .     S
O286   Zn292   1.929   .     S
O287   Zn291   1.992   .     S
O288   Zn292   1.990   .     S
O289   Zn291   1.929   .     S
O290   Zn292   1.955   .     S
C294   O296    1.220   .     D
C294   C804    1.485   .     S
C294   H355    1.085   .     S
C298   O300    1.221   .     D
C298   C807    1.488   1_554 S
C298   H779    1.083   1_554 S
H299   C898    1.083   .     S
C301   O344    1.280   .     A
C301   C317    1.409   .     S
C301   O343    1.280   .     A
C302   C303    1.400   .     A
C302   C844    1.425   .     S
C302   C868    1.417   .     S
C303   C310    1.416   .     A
C303   C307    1.410   .     A
C304   C308    1.390   .     A
C304   C842    1.425   1_554 S
C304   C845    1.428   1_554 S
C305   C306    1.396   .     A
C305   C844    1.428   .     S
C305   C864    1.421   .     S
C306   C307    1.381   .     A
C306   H336    1.078   .     S
C307   H339    1.082   .     S
C308   C325    1.391   .     A
C308   H337    1.075   .     S
C309   C324    1.395   .     A
C309   H329    1.085   .     S
C309   C325    1.394   .     A
C310   C326    1.410   .     A
C310   C312    1.484   .     S
C311   H340    1.084   .     S
C311   C317    1.392   .     A
C311   C493    1.371   .     S
C312   O346    1.291   .     A
C312   O345    1.310   .     A
C313   C314    1.397   .     A
C313   H330    1.084   .     S
C314   C322    1.415   .     S
C314   C315    1.406   .     A
C315   Br353   1.925   .     S
C316   H331    1.084   .     S
C316   C317    1.393   .     A
C316   C495    1.374   .     S
C318   N342    1.366   .     A
C318   H332    1.082   .     S
C318   C199    1.416   1_655 S
C319   H333    1.081   .     S
C319   N341    1.366   .     A
C320   H334    1.082   .     S
C320   N341    1.366   .     A
C321   H335    1.082   .     S
C321   N342    1.366   .     A
C321   C200    1.416   1_655 S
C322   O348    1.282   .     A
C322   O347    1.280   .     A
C323   C325    1.452   .     S
C323   O349    1.289   .     A
C323   O350    1.291   .     A
C324   C845    1.421   1_554 S
C324   C894    1.485   1_554 S
C326   C327    1.412   .     A
C326   Br357   1.930   .     S
C327   C868    1.407   .     S
C327   C898    1.488   .     S
C328   H338    1.076   .     S
C328   C842    1.417   1_554 S
C328   C867    1.407   1_554 S
N341   Zn351   2.007   .     S
N342   Zn352   2.007   .     S
O343   Zn351   1.990   .     S
O344   Zn352   1.992   .     S
O345   Zn351   1.955   .     S
O346   Zn352   1.929   .     S
O347   Zn351   1.992   .     S
O348   Zn352   1.990   .     S
O349   Zn351   1.929   .     S
O350   Zn352   1.955   .     S
C354   O356    1.220   .     D
C354   C864    1.485   .     S
C354   H235    1.085   1_655 S
C358   O360    1.221   .     D
C358   C867    1.488   1_554 S
C358   H839    1.083   1_554 S
H359   C778    1.083   1_655 S
C361   O404    1.280   .     A
C361   C377    1.409   .     S
C361   O403    1.280   .     A
C362   C363    1.400   .     A
C362   C904    1.425   .     S
C362   C928    1.417   .     S
C363   C370    1.416   .     A
C363   C367    1.410   .     A
C364   C368    1.390   .     A
C364   C902    1.425   1_554 S
C364   C905    1.428   1_554 S
C365   C366    1.396   .     A
C365   C904    1.428   .     S
C365   C924    1.421   .     S
C366   C367    1.381   .     A
C366   H396    1.078   .     S
C367   H399    1.082   .     S
C368   C385    1.391   .     A
C368   H397    1.075   .     S
C369   C384    1.395   .     A
C369   H389    1.085   .     S
C369   C385    1.394   .     A
C370   C386    1.410   .     A
C370   C372    1.484   .     S
C371   H400    1.084   .     S
C371   C377    1.392   .     A
C371   C13     1.371   1_565 S
C372   O406    1.291   .     A
C372   O405    1.310   .     A
C373   C374    1.397   .     A
C373   H390    1.084   .     S
C374   C382    1.415   .     S
C374   C375    1.406   .     A
C375   Br413   1.925   .     S
C376   H391    1.084   .     S
C376   C377    1.393   .     A
C376   C15     1.374   1_565 S
C378   N402    1.366   .     A
C378   H392    1.082   .     S
C378   C439    1.416   .     S
C379   H393    1.081   .     S
C379   N401    1.366   .     A
C379   C498    1.416   1_455 S
C380   H394    1.082   .     S
C380   N401    1.366   .     A
C380   C501    1.416   1_455 S
C381   H395    1.082   .     S
C381   N402    1.366   .     A
C381   C440    1.416   .     S
C382   O408    1.282   .     A
C382   O407    1.280   .     A
C383   C385    1.452   .     S
C383   O409    1.289   .     A
C383   O410    1.291   .     A
C384   C905    1.421   1_554 S
C384   C954    1.485   1_554 S
C386   C387    1.412   .     A
C386   Br417   1.930   .     S
C387   C928    1.407   .     S
C387   C958    1.488   .     S
C388   H398    1.076   .     S
C388   C902    1.417   1_554 S
C388   C927    1.407   1_554 S
N401   Zn411   2.007   .     S
N402   Zn412   2.007   .     S
O403   Zn411   1.990   .     S
O404   Zn412   1.992   .     S
O405   Zn411   1.955   .     S
O406   Zn412   1.929   .     S
O407   Zn411   1.992   .     S
O408   Zn412   1.990   .     S
O409   Zn411   1.929   .     S
O410   Zn412   1.955   .     S
C414   O416    1.220   .     D
C414   C924    1.485   .     S
C414   H475    1.085   .     S
H415   C534    1.085   1_455 S
C418   O420    1.221   .     D
C418   C927    1.488   1_554 S
C418   H1079   1.083   1_454 S
H419   C1018   1.083   .     S
C421   O464    1.280   .     A
C421   C437    1.409   .     S
C421   O463    1.280   .     A
C422   C423    1.400   .     A
C422   C964    1.425   .     S
C422   C988    1.417   .     S
C423   C430    1.416   .     A
C423   C427    1.410   .     A
C424   C428    1.390   .     A
C424   C962    1.425   1_554 S
C424   C965    1.428   1_554 S
C425   C426    1.396   .     A
C425   C964    1.428   .     S
C425   C984    1.421   .     S
C426   C427    1.381   .     A
C426   H456    1.078   .     S
C427   H459    1.082   .     S
C428   C445    1.391   .     A
C428   H457    1.075   .     S
C429   C444    1.395   .     A
C429   H449    1.085   .     S
C429   C445    1.394   .     A
C430   C446    1.410   .     A
C430   C432    1.484   .     S
C431   H460    1.084   .     S
C431   C437    1.392   .     A
C431   C73     1.371   1_565 S
C432   O466    1.291   .     A
C432   O465    1.310   .     A
C433   C434    1.397   .     A
C433   H450    1.084   .     S
C434   C442    1.415   .     S
C434   C435    1.406   .     A
C435   Br473   1.925   .     S
C436   H451    1.084   .     S
C436   C437    1.393   .     A
C436   C75     1.374   1_565 S
C438   N462    1.366   .     A
C438   H452    1.082   .     S
C438   C499    1.416   .     S
C439   H453    1.081   .     S
C439   N461    1.366   .     A
C440   H454    1.082   .     S
C440   N461    1.366   .     A
C441   H455    1.082   .     S
C441   N462    1.366   .     A
C441   C500    1.416   .     S
C442   O468    1.282   .     A
C442   O467    1.280   .     A
C443   C445    1.452   .     S
C443   O469    1.289   .     A
C443   O470    1.291   .     A
C444   C965    1.421   1_554 S
C444   C1014   1.485   1_554 S
C446   C447    1.412   .     A
C446   Br477   1.930   .     S
C447   C988    1.407   .     S
C447   C1018   1.488   .     S
C448   H458    1.076   .     S
C448   C962    1.417   1_554 S
C448   C987    1.407   1_554 S
N461   Zn471   2.007   .     S
N462   Zn472   2.007   .     S
O463   Zn471   1.990   .     S
O464   Zn472   1.992   .     S
O465   Zn471   1.955   .     S
O466   Zn472   1.929   .     S
O467   Zn471   1.992   .     S
O468   Zn472   1.990   .     S
O469   Zn471   1.929   .     S
O470   Zn472   1.955   .     S
C474   O476    1.220   .     D
C474   C984    1.485   .     S
C474   H535    1.085   .     S
C478   O480    1.221   .     D
C478   C987    1.488   1_554 S
C478   H959    1.083   1_554 S
H479   C1078   1.083   .     S
C481   O524    1.280   .     A
C481   C497    1.409   .     S
C481   O523    1.280   .     A
C482   C483    1.400   .     A
C482   C1024   1.425   .     S
C482   C1048   1.417   .     S
C483   C490    1.416   .     A
C483   C487    1.410   .     A
C484   C488    1.390   .     A
C484   C1022   1.425   1_554 S
C484   C1025   1.428   1_554 S
C485   C486    1.396   .     A
C485   C1024   1.428   .     S
C485   C1044   1.421   .     S
C486   C487    1.381   .     A
C486   H516    1.078   .     S
C487   H519    1.082   .     S
C488   C505    1.391   .     A
C488   H517    1.075   .     S
C489   C504    1.395   .     A
C489   H509    1.085   .     S
C489   C505    1.394   .     A
C490   C506    1.410   .     A
C490   C492    1.484   .     S
C491   H520    1.084   .     S
C491   C497    1.392   .     A
C491   C133    1.371   1_565 S
C492   O526    1.291   .     A
C492   O525    1.310   .     A
C493   C494    1.397   .     A
C493   H510    1.084   .     S
C494   C502    1.415   .     S
C494   C495    1.406   .     A
C495   Br533   1.925   .     S
C496   H511    1.084   .     S
C496   C497    1.393   .     A
C496   C135    1.374   1_565 S
C498   N522    1.366   .     A
C498   H512    1.082   .     S
C498   C379    1.416   1_655 S
C499   H513    1.081   .     S
C499   N521    1.366   .     A
C500   H514    1.082   .     S
C500   N521    1.366   .     A
C501   H515    1.082   .     S
C501   N522    1.366   .     A
C501   C380    1.416   1_655 S
C502   O528    1.282   .     A
C502   O527    1.280   .     A
C503   C505    1.452   .     S
C503   O529    1.289   .     A
C503   O530    1.291   .     A
C504   C1025   1.421   1_554 S
C504   C1074   1.485   1_554 S
C506   C507    1.412   .     A
C506   Br537   1.930   .     S
C507   C1048   1.407   .     S
C507   C1078   1.488   .     S
C508   H518    1.076   .     S
C508   C1022   1.417   1_554 S
C508   C1047   1.407   1_554 S
N521   Zn531   2.007   .     S
N522   Zn532   2.007   .     S
O523   Zn531   1.990   .     S
O524   Zn532   1.992   .     S
O525   Zn531   1.955   .     S
O526   Zn532   1.929   .     S
O527   Zn531   1.992   .     S
O528   Zn532   1.990   .     S
O529   Zn531   1.929   .     S
O530   Zn532   1.955   .     S
C534   O536    1.220   .     D
C534   C1044   1.485   .     S
C534   H415    1.085   1_655 S
C538   O540    1.221   .     D
C538   C1047   1.488   1_554 S
C538   H1019   1.083   1_554 S
H539   C958    1.083   1_655 S
C541   O584    1.280   .     A
C541   C557    1.409   .     S
C541   O583    1.280   .     A
C542   C543    1.400   .     A
C542   C4      1.425   1_556 S
C542   C28     1.417   1_556 S
C543   C550    1.416   .     A
C543   C547    1.410   .     A
C544   C548    1.390   .     A
C545   C546    1.396   .     A
C545   C4      1.428   1_556 S
C545   C24     1.421   1_556 S
C546   C547    1.381   .     A
C546   H576    1.078   .     S
C547   H579    1.082   .     S
C548   C565    1.391   .     A
C548   H577    1.075   .     S
C549   C564    1.395   .     A
C549   H569    1.085   .     S
C549   C565    1.394   .     A
C550   C566    1.410   .     A
C550   C552    1.484   .     S
C551   H580    1.084   .     S
C551   C557    1.392   .     A
C551   C733    1.371   .     S
C552   O586    1.291   .     A
C552   O585    1.310   .     A
C553   C554    1.397   .     A
C553   H570    1.084   .     S
C553   C911    1.371   1_545 S
C554   C562    1.415   .     S
C554   C555    1.406   .     A
C555   Br593   1.925   .     S
C555   C916    1.374   1_545 S
C556   H571    1.084   .     S
C556   C557    1.393   .     A
C556   C735    1.374   .     S
C558   N582    1.366   .     A
C558   H572    1.082   .     S
C558   C619    1.416   .     S
C559   H573    1.081   .     S
C559   N581    1.366   .     A
C559   C678    1.416   1_455 S
C560   H574    1.082   .     S
C560   N581    1.366   .     A
C560   C681    1.416   1_455 S
C561   H575    1.082   .     S
C561   N582    1.366   .     A
C561   C620    1.416   .     S
C562   O588    1.282   .     A
C562   O587    1.280   .     A
C563   C565    1.452   .     S
C563   O589    1.289   .     A
C563   O590    1.291   .     A
C566   C567    1.412   .     A
C566   Br597   1.930   .     S
C567   C28     1.407   1_556 S
C567   C58     1.488   1_556 S
C568   H578    1.076   .     S
N581   Zn591   2.007   .     S
N582   Zn592   2.007   .     S
O583   Zn591   1.990   .     S
O584   Zn592   1.992   .     S
O585   Zn591   1.955   .     S
O586   Zn592   1.929   .     S
O587   Zn591   1.992   .     S
O588   Zn592   1.990   .     S
O589   Zn591   1.929   .     S
O590   Zn592   1.955   .     S
C594   O596    1.220   .     D
C594   C24     1.485   1_556 S
C594   H655    1.085   .     S
H595   C714    1.085   1_455 S
C598   O600    1.221   .     D
C598   H179    1.083   1_455 S
H599   C118    1.083   1_556 S
C601   O644    1.280   .     A
C601   C617    1.409   .     S
C601   O643    1.280   .     A
C602   C603    1.400   .     A
C602   C64     1.425   1_556 S
C602   C88     1.417   1_556 S
C603   C610    1.416   .     A
C603   C607    1.410   .     A
C604   C608    1.390   .     A
C605   C606    1.396   .     A
C605   C64     1.428   1_556 S
C605   C84     1.421   1_556 S
C606   C607    1.381   .     A
C606   H636    1.078   .     S
C607   H639    1.082   .     S
C608   C625    1.391   .     A
C608   H637    1.075   .     S
C609   C624    1.395   .     A
C609   H629    1.085   .     S
C609   C625    1.394   .     A
C610   C626    1.410   .     A
C610   C612    1.484   .     S
C611   H640    1.084   .     S
C611   C617    1.392   .     A
C611   C793    1.371   .     S
C612   O646    1.291   .     A
C612   O645    1.310   .     A
C613   C614    1.397   .     A
C613   H630    1.084   .     S
C613   C971    1.371   1_545 S
C614   C622    1.415   .     S
C614   C615    1.406   .     A
C615   Br653   1.925   .     S
C615   C976    1.374   1_545 S
C616   H631    1.084   .     S
C616   C617    1.393   .     A
C616   C795    1.374   .     S
C618   N642    1.366   .     A
C618   H632    1.082   .     S
C618   C679    1.416   .     S
C619   H633    1.081   .     S
C619   N641    1.366   .     A
C620   H634    1.082   .     S
C620   N641    1.366   .     A
C621   H635    1.082   .     S
C621   N642    1.366   .     A
C621   C680    1.416   .     S
C622   O648    1.282   .     A
C622   O647    1.280   .     A
C623   C625    1.452   .     S
C623   O649    1.289   .     A
C623   O650    1.291   .     A
C626   C627    1.412   .     A
C626   Br657   1.930   .     S
C627   C88     1.407   1_556 S
C627   C118    1.488   1_556 S
C628   H638    1.076   .     S
N641   Zn651   2.007   .     S
N642   Zn652   2.007   .     S
O643   Zn651   1.990   .     S
O644   Zn652   1.992   .     S
O645   Zn651   1.955   .     S
O646   Zn652   1.929   .     S
O647   Zn651   1.992   .     S
O648   Zn652   1.990   .     S
O649   Zn651   1.929   .     S
O650   Zn652   1.955   .     S
C654   O656    1.220   .     D
C654   C84     1.485   1_556 S
C654   H715    1.085   .     S
C658   O660    1.221   .     D
H659   C178    1.083   1_556 S
C661   O704    1.280   .     A
C661   C677    1.409   .     S
C661   O703    1.280   .     A
C662   C663    1.400   .     A
C662   C124    1.425   1_556 S
C662   C148    1.417   1_556 S
C663   C670    1.416   .     A
C663   C667    1.410   .     A
C664   C668    1.390   .     A
C665   C666    1.396   .     A
C665   C124    1.428   1_556 S
C665   C144    1.421   1_556 S
C666   C667    1.381   .     A
C666   H696    1.078   .     S
C667   H699    1.082   .     S
C668   C685    1.391   .     A
C668   H697    1.075   .     S
C669   C684    1.395   .     A
C669   H689    1.085   .     S
C669   C685    1.394   .     A
C670   C686    1.410   .     A
C670   C672    1.484   .     S
C671   H700    1.084   .     S
C671   C677    1.392   .     A
C671   C853    1.371   .     S
C672   O706    1.291   .     A
C672   O705    1.310   .     A
C673   C674    1.397   .     A
C673   H690    1.084   .     S
C673   C1031   1.371   1_545 S
C674   C682    1.415   .     S
C674   C675    1.406   .     A
C675   Br713   1.925   .     S
C675   C1036   1.374   1_545 S
C676   H691    1.084   .     S
C676   C677    1.393   .     A
C676   C855    1.374   .     S
C678   N702    1.366   .     A
C678   H692    1.082   .     S
C678   C559    1.416   1_655 S
C679   H693    1.081   .     S
C679   N701    1.366   .     A
C680   H694    1.082   .     S
C680   N701    1.366   .     A
C681   H695    1.082   .     S
C681   N702    1.366   .     A
C681   C560    1.416   1_655 S
C682   O708    1.282   .     A
C682   O707    1.280   .     A
C683   C685    1.452   .     S
C683   O709    1.289   .     A
C683   O710    1.291   .     A
C686   C687    1.412   .     A
C686   Br717   1.930   .     S
C687   C148    1.407   1_556 S
C687   C178    1.488   1_556 S
C688   H698    1.076   .     S
N701   Zn711   2.007   .     S
N702   Zn712   2.007   .     S
O703   Zn711   1.990   .     S
O704   Zn712   1.992   .     S
O705   Zn711   1.955   .     S
O706   Zn712   1.929   .     S
O707   Zn711   1.992   .     S
O708   Zn712   1.990   .     S
O709   Zn711   1.929   .     S
O710   Zn712   1.955   .     S
C714   O716    1.220   .     D
C714   C144    1.485   1_556 S
C714   H595    1.085   1_655 S
C718   O720    1.221   .     D
H719   C58     1.083   1_656 S
C721   O764    1.280   .     A
C721   C737    1.409   .     S
C721   O763    1.280   .     A
C722   C723    1.400   .     A
C722   C184    1.425   1_556 S
C722   C208    1.417   1_556 S
C723   C730    1.416   .     A
C723   C727    1.410   .     A
C724   C728    1.390   .     A
C725   C726    1.396   .     A
C725   C184    1.428   1_556 S
C725   C204    1.421   1_556 S
C726   C727    1.381   .     A
C726   H756    1.078   .     S
C727   H759    1.082   .     S
C728   C745    1.391   .     A
C728   H757    1.075   .     S
C729   C744    1.395   .     A
C729   H749    1.085   .     S
C729   C745    1.394   .     A
C730   C746    1.410   .     A
C730   C732    1.484   .     S
C731   H760    1.084   .     S
C731   C737    1.392   .     A
C731   C913    1.371   .     S
C732   O766    1.291   .     A
C732   O765    1.310   .     A
C733   C734    1.397   .     A
C733   H750    1.084   .     S
C734   C742    1.415   .     S
C734   C735    1.406   .     A
C735   Br773   1.925   .     S
C736   H751    1.084   .     S
C736   C737    1.393   .     A
C736   C915    1.374   .     S
C738   N762    1.366   .     A
C738   H752    1.082   .     S
C738   C799    1.416   .     S
C739   H753    1.081   .     S
C739   N761    1.366   .     A
C739   C858    1.416   1_455 S
C740   H754    1.082   .     S
C740   N761    1.366   .     A
C740   C861    1.416   1_455 S
C741   H755    1.082   .     S
C741   N762    1.366   .     A
C741   C800    1.416   .     S
C742   O768    1.282   .     A
C742   O767    1.280   .     A
C743   C745    1.452   .     S
C743   O769    1.289   .     A
C743   O770    1.291   .     A
C746   C747    1.412   .     A
C746   Br777   1.930   .     S
C747   C208    1.407   1_556 S
C747   C238    1.488   1_556 S
C748   H758    1.076   .     S
N761   Zn771   2.007   .     S
N762   Zn772   2.007   .     S
O763   Zn771   1.990   .     S
O764   Zn772   1.992   .     S
O765   Zn771   1.955   .     S
O766   Zn772   1.929   .     S
O767   Zn771   1.992   .     S
O768   Zn772   1.990   .     S
O769   Zn771   1.929   .     S
O770   Zn772   1.955   .     S
C774   O776    1.220   .     D
C774   C204    1.485   1_556 S
C774   H835    1.085   .     S
H775   C894    1.085   1_455 S
C778   O780    1.221   .     D
C778   H359    1.083   1_455 S
H779   C298    1.083   1_556 S
C781   O824    1.280   .     A
C781   C797    1.409   .     S
C781   O823    1.280   .     A
C782   C783    1.400   .     A
C782   C244    1.425   1_556 S
C782   C268    1.417   1_556 S
C783   C790    1.416   .     A
C783   C787    1.410   .     A
C784   C788    1.390   .     A
C785   C786    1.396   .     A
C785   C244    1.428   1_556 S
C785   C264    1.421   1_556 S
C786   C787    1.381   .     A
C786   H816    1.078   .     S
C787   H819    1.082   .     S
C788   C805    1.391   .     A
C788   H817    1.075   .     S
C789   C804    1.395   .     A
C789   H809    1.085   .     S
C789   C805    1.394   .     A
C790   C806    1.410   .     A
C790   C792    1.484   .     S
C791   H820    1.084   .     S
C791   C797    1.392   .     A
C791   C973    1.371   .     S
C792   O826    1.291   .     A
C792   O825    1.310   .     A
C793   C794    1.397   .     A
C793   H810    1.084   .     S
C794   C802    1.415   .     S
C794   C795    1.406   .     A
C795   Br833   1.925   .     S
C796   H811    1.084   .     S
C796   C797    1.393   .     A
C796   C975    1.374   .     S
C798   N822    1.366   .     A
C798   H812    1.082   .     S
C798   C859    1.416   .     S
C799   H813    1.081   .     S
C799   N821    1.366   .     A
C800   H814    1.082   .     S
C800   N821    1.366   .     A
C801   H815    1.082   .     S
C801   N822    1.366   .     A
C801   C860    1.416   .     S
C802   O828    1.282   .     A
C802   O827    1.280   .     A
C803   C805    1.452   .     S
C803   O829    1.289   .     A
C803   O830    1.291   .     A
C806   C807    1.412   .     A
C806   Br837   1.930   .     S
C807   C268    1.407   1_556 S
C807   C298    1.488   1_556 S
C808   H818    1.076   .     S
N821   Zn831   2.007   .     S
N822   Zn832   2.007   .     S
O823   Zn831   1.990   .     S
O824   Zn832   1.992   .     S
O825   Zn831   1.955   .     S
O826   Zn832   1.929   .     S
O827   Zn831   1.992   .     S
O828   Zn832   1.990   .     S
O829   Zn831   1.929   .     S
O830   Zn832   1.955   .     S
C834   O836    1.220   .     D
C834   C264    1.485   1_556 S
C834   H895    1.085   .     S
C838   O840    1.221   .     D
H839   C358    1.083   1_556 S
C841   O884    1.280   .     A
C841   C857    1.409   .     S
C841   O883    1.280   .     A
C842   C843    1.400   .     A
C842   C304    1.425   1_556 S
C842   C328    1.417   1_556 S
C843   C850    1.416   .     A
C843   C847    1.410   .     A
C844   C848    1.390   .     A
C845   C846    1.396   .     A
C845   C304    1.428   1_556 S
C845   C324    1.421   1_556 S
C846   C847    1.381   .     A
C846   H876    1.078   .     S
C847   H879    1.082   .     S
C848   C865    1.391   .     A
C848   H877    1.075   .     S
C849   C864    1.395   .     A
C849   H869    1.085   .     S
C849   C865    1.394   .     A
C850   C866    1.410   .     A
C850   C852    1.484   .     S
C851   H880    1.084   .     S
C851   C857    1.392   .     A
C851   C1033   1.371   .     S
C852   O886    1.291   .     A
C852   O885    1.310   .     A
C853   C854    1.397   .     A
C853   H870    1.084   .     S
C854   C862    1.415   .     S
C854   C855    1.406   .     A
C855   Br893   1.925   .     S
C856   H871    1.084   .     S
C856   C857    1.393   .     A
C856   C1035   1.374   .     S
C858   N882    1.366   .     A
C858   H872    1.082   .     S
C858   C739    1.416   1_655 S
C859   H873    1.081   .     S
C859   N881    1.366   .     A
C860   H874    1.082   .     S
C860   N881    1.366   .     A
C861   H875    1.082   .     S
C861   N882    1.366   .     A
C861   C740    1.416   1_655 S
C862   O888    1.282   .     A
C862   O887    1.280   .     A
C863   C865    1.452   .     S
C863   O889    1.289   .     A
C863   O890    1.291   .     A
C866   C867    1.412   .     A
C866   Br897   1.930   .     S
C867   C328    1.407   1_556 S
C867   C358    1.488   1_556 S
C868   H878    1.076   .     S
N881   Zn891   2.007   .     S
N882   Zn892   2.007   .     S
O883   Zn891   1.990   .     S
O884   Zn892   1.992   .     S
O885   Zn891   1.955   .     S
O886   Zn892   1.929   .     S
O887   Zn891   1.992   .     S
O888   Zn892   1.990   .     S
O889   Zn891   1.929   .     S
O890   Zn892   1.955   .     S
C894   O896    1.220   .     D
C894   C324    1.485   1_556 S
C894   H775    1.085   1_655 S
C898   O900    1.221   .     D
H899   C238    1.083   1_656 S
C901   O944    1.280   .     A
C901   C917    1.409   .     S
C901   O943    1.280   .     A
C902   C903    1.400   .     A
C902   C364    1.425   1_556 S
C902   C388    1.417   1_556 S
C903   C910    1.416   .     A
C903   C907    1.410   .     A
C904   C908    1.390   .     A
C905   C906    1.396   .     A
C905   C364    1.428   1_556 S
C905   C384    1.421   1_556 S
C906   C907    1.381   .     A
C906   H936    1.078   .     S
C907   H939    1.082   .     S
C908   C925    1.391   .     A
C908   H937    1.075   .     S
C909   C924    1.395   .     A
C909   H929    1.085   .     S
C909   C925    1.394   .     A
C910   C926    1.410   .     A
C910   C912    1.484   .     S
C911   H940    1.084   .     S
C911   C917    1.392   .     A
C911   C553    1.371   1_565 S
C912   O946    1.291   .     A
C912   O945    1.310   .     A
C913   C914    1.397   .     A
C913   H930    1.084   .     S
C914   C922    1.415   .     S
C914   C915    1.406   .     A
C915   Br953   1.925   .     S
C916   H931    1.084   .     S
C916   C917    1.393   .     A
C916   C555    1.374   1_565 S
C918   N942    1.366   .     A
C918   H932    1.082   .     S
C918   C979    1.416   .     S
C919   H933    1.081   .     S
C919   N941    1.366   .     A
C919   C1038   1.416   1_455 S
C920   H934    1.082   .     S
C920   N941    1.366   .     A
C920   C1041   1.416   1_455 S
C921   H935    1.082   .     S
C921   N942    1.366   .     A
C921   C980    1.416   .     S
C922   O948    1.282   .     A
C922   O947    1.280   .     A
C923   C925    1.452   .     S
C923   O949    1.289   .     A
C923   O950    1.291   .     A
C926   C927    1.412   .     A
C926   Br957   1.930   .     S
C927   C388    1.407   1_556 S
C927   C418    1.488   1_556 S
C928   H938    1.076   .     S
N941   Zn951   2.007   .     S
N942   Zn952   2.007   .     S
O943   Zn951   1.990   .     S
O944   Zn952   1.992   .     S
O945   Zn951   1.955   .     S
O946   Zn952   1.929   .     S
O947   Zn951   1.992   .     S
O948   Zn952   1.990   .     S
O949   Zn951   1.929   .     S
O950   Zn952   1.955   .     S
C954   O956    1.220   .     D
C954   C384    1.485   1_556 S
C954   H1015   1.085   .     S
H955   C1074   1.085   1_455 S
C958   O960    1.221   .     D
C958   H539    1.083   1_455 S
H959   C478    1.083   1_556 S
C961   O1004   1.280   .     A
C961   C977    1.409   .     S
C961   O1003   1.280   .     A
C962   C963    1.400   .     A
C962   C424    1.425   1_556 S
C962   C448    1.417   1_556 S
C963   C970    1.416   .     A
C963   C967    1.410   .     A
C964   C968    1.390   .     A
C965   C966    1.396   .     A
C965   C424    1.428   1_556 S
C965   C444    1.421   1_556 S
C966   C967    1.381   .     A
C966   H996    1.078   .     S
C967   H999    1.082   .     S
C968   C985    1.391   .     A
C968   H997    1.075   .     S
C969   C984    1.395   .     A
C969   H989    1.085   .     S
C969   C985    1.394   .     A
C970   C986    1.410   .     A
C970   C972    1.484   .     S
C971   H1000   1.084   .     S
C971   C977    1.392   .     A
C971   C613    1.371   1_565 S
C972   O1006   1.291   .     A
C972   O1005   1.310   .     A
C973   C974    1.397   .     A
C973   H990    1.084   .     S
C974   C982    1.415   .     S
C974   C975    1.406   .     A
C975   Br1013  1.925   .     S
C976   H991    1.084   .     S
C976   C977    1.393   .     A
C976   C615    1.374   1_565 S
C978   N1002   1.366   .     A
C978   H992    1.082   .     S
C978   C1039   1.416   .     S
C979   H993    1.081   .     S
C979   N1001   1.366   .     A
C980   H994    1.082   .     S
C980   N1001   1.366   .     A
C981   H995    1.082   .     S
C981   N1002   1.366   .     A
C981   C1040   1.416   .     S
C982   O1008   1.282   .     A
C982   O1007   1.280   .     A
C983   C985    1.452   .     S
C983   O1009   1.289   .     A
C983   O1010   1.291   .     A
C986   C987    1.412   .     A
C986   Br1017  1.930   .     S
C987   C448    1.407   1_556 S
C987   C478    1.488   1_556 S
C988   H998    1.076   .     S
N1001  Zn1011  2.007   .     S
N1002  Zn1012  2.007   .     S
O1003  Zn1011  1.990   .     S
O1004  Zn1012  1.992   .     S
O1005  Zn1011  1.955   .     S
O1006  Zn1012  1.929   .     S
O1007  Zn1011  1.992   .     S
O1008  Zn1012  1.990   .     S
O1009  Zn1011  1.929   .     S
O1010  Zn1012  1.955   .     S
C1014  O1016   1.220   .     D
C1014  C444    1.485   1_556 S
C1014  H1075   1.085   .     S
C1018  O1020   1.221   .     D
H1019  C538    1.083   1_556 S
C1021  O1064   1.280   .     A
C1021  C1037   1.409   .     S
C1021  O1063   1.280   .     A
C1022  C1023   1.400   .     A
C1022  C484    1.425   1_556 S
C1022  C508    1.417   1_556 S
C1023  C1030   1.416   .     A
C1023  C1027   1.410   .     A
C1024  C1028   1.390   .     A
C1025  C1026   1.396   .     A
C1025  C484    1.428   1_556 S
C1025  C504    1.421   1_556 S
C1026  C1027   1.381   .     A
C1026  H1056   1.078   .     S
C1027  H1059   1.082   .     S
C1028  C1045   1.391   .     A
C1028  H1057   1.075   .     S
C1029  C1044   1.395   .     A
C1029  H1049   1.085   .     S
C1029  C1045   1.394   .     A
C1030  C1046   1.410   .     A
C1030  C1032   1.484   .     S
C1031  H1060   1.084   .     S
C1031  C1037   1.392   .     A
C1031  C673    1.371   1_565 S
C1032  O1066   1.291   .     A
C1032  O1065   1.310   .     A
C1033  C1034   1.397   .     A
C1033  H1050   1.084   .     S
C1034  C1042   1.415   .     S
C1034  C1035   1.406   .     A
C1035  Br1073  1.925   .     S
C1036  H1051   1.084   .     S
C1036  C1037   1.393   .     A
C1036  C675    1.374   1_565 S
C1038  N1062   1.366   .     A
C1038  H1052   1.082   .     S
C1038  C919    1.416   1_655 S
C1039  H1053   1.081   .     S
C1039  N1061   1.366   .     A
C1040  H1054   1.082   .     S
C1040  N1061   1.366   .     A
C1041  H1055   1.082   .     S
C1041  N1062   1.366   .     A
C1041  C920    1.416   1_655 S
C1042  O1068   1.282   .     A
C1042  O1067   1.280   .     A
C1043  C1045   1.452   .     S
C1043  O1069   1.289   .     A
C1043  O1070   1.291   .     A
C1046  C1047   1.412   .     A
C1046  Br1077  1.930   .     S
C1047  C508    1.407   1_556 S
C1047  C538    1.488   1_556 S
C1048  H1058   1.076   .     S
N1061  Zn1071  2.007   .     S
N1062  Zn1072  2.007   .     S
O1063  Zn1071  1.990   .     S
O1064  Zn1072  1.992   .     S
O1065  Zn1071  1.955   .     S
O1066  Zn1072  1.929   .     S
O1067  Zn1071  1.992   .     S
O1068  Zn1072  1.990   .     S
O1069  Zn1071  1.929   .     S
O1070  Zn1072  1.955   .     S
C1074  O1076   1.220   .     D
C1074  C504    1.485   1_556 S
C1074  H955    1.085   1_655 S
C1078  O1080   1.221   .     D
H1079  C418    1.083   1_656 S
