data_str_m3_o2_o5_pcu_sym.16
_audit_creation_date              2020-01-03
_audit_creation_method            'Materials Studio'
_symmetry_space_group_name_H-M    'P1'
_symmetry_Int_Tables_number       1
_symmetry_cell_setting            triclinic
loop_
_symmetry_equiv_pos_as_xyz
  x,y,z
_cell_length_a                    30.0292
_cell_length_b                    28.6158
_cell_length_c                    26.6585
_cell_angle_alpha                 90.0002
_cell_angle_beta                  92.2540
_cell_angle_gamma                 90.0001
loop_
_atom_site_label
_atom_site_type_symbol
_atom_site_fract_x
_atom_site_fract_y
_atom_site_fract_z
_atom_site_U_iso_or_equiv
_atom_site_adp_type
_atom_site_occupancy
C1     C     0.16441   0.25004   0.17227   0.00000  Uiso   1.00
C2     C     0.22478   0.44727   0.13088   0.00000  Uiso   1.00
C3     C     0.24992   0.25000   0.07296   0.00000  Uiso   1.00
C4     C     0.25008   0.25000   0.26037   0.00000  Uiso   1.00
C5     C     0.25000   0.02669   0.16667   0.00000  Uiso   1.00
C6     C     0.25000   0.47337   0.16667   0.00000  Uiso   1.00
C7     C     0.24998   0.24999   0.02182   0.00000  Uiso   1.00
C8     C     0.25002   0.24999   0.31151   0.00000  Uiso   1.00
C9     C     0.04763   0.29260   0.18128   0.00000  Uiso   1.00
C10    C     0.45272   0.20856   0.15075   0.00000  Uiso   1.00
C11    C     0.45238   0.29260   0.15213   0.00000  Uiso   1.00
C12    C     0.33560   0.25004   0.16107   0.00000  Uiso   1.00
C13    C     0.04729   0.20856   0.18265   0.00000  Uiso   1.00
C14    C     0.09358   0.29285   0.18656   0.00000  Uiso   1.00
C15    C     0.40671   0.20802   0.14560   0.00000  Uiso   1.00
C16    C     0.40643   0.29285   0.14682   0.00000  Uiso   1.00
C17    C     0.09330   0.20801   0.18778   0.00000  Uiso   1.00
C18    C     0.11699   0.25027   0.18255   0.00000  Uiso   1.00
C19    C     0.38301   0.25027   0.15081   0.00000  Uiso   1.00
C20    C     0.02417   0.25059   0.17357   0.00000  Uiso   1.00
C21    C     0.47584   0.25059   0.15984   0.00000  Uiso   1.00
C22    C     0.22254   0.10182   0.13365   0.00000  Uiso   1.00
C23    C     0.27547   0.39823   0.20163   0.00000  Uiso   1.00
C24    C     0.27746   0.10182   0.19969   0.00000  Uiso   1.00
C25    C     0.22453   0.39823   0.13171   0.00000  Uiso   1.00
C26    C     0.22174   0.05279   0.13382   0.00000  Uiso   1.00
C27    C     0.27522   0.44727   0.20246   0.00000  Uiso   1.00
C28    C     0.27826   0.05279   0.19951   0.00000  Uiso   1.00
H29    H     0.03122   0.32587   0.18413   0.00000  Uiso   1.00
H30    H     0.46960   0.17565   0.14666   0.00000  Uiso   1.00
H31    H     0.46879   0.32587   0.14929   0.00000  Uiso   1.00
H32    H     0.03041   0.17564   0.18674   0.00000  Uiso   1.00
H33    H     0.19847   0.03620   0.10777   0.00000  Uiso   1.00
H34    H     0.29518   0.46387   0.23175   0.00000  Uiso   1.00
H35    H     0.30153   0.03620   0.22556   0.00000  Uiso   1.00
H36    H     0.20482   0.46387   0.10158   0.00000  Uiso   1.00
I37    I     0.17919   0.13422   0.07938   0.00000  Uiso   1.00
I38    I     0.31811   0.36613   0.25681   0.00000  Uiso   1.00
I39    I     0.32081   0.13422   0.25395   0.00000  Uiso   1.00
I40    I     0.18189   0.36613   0.07652   0.00000  Uiso   1.00
I41    I     0.12205   0.35896   0.20691   0.00000  Uiso   1.00
I42    I     0.37837   0.14245   0.12321   0.00000  Uiso   1.00
I43    I     0.37796   0.35896   0.12644   0.00000  Uiso   1.00
I44    I     0.12164   0.14245   0.21014   0.00000  Uiso   1.00
N45    N     0.25000   0.12624   0.16667   0.00000  Uiso   1.00
N46    N     0.25000   0.37377   0.16667   0.00000  Uiso   1.00
O47    O     0.18453   0.28974   0.16667   0.00000  Uiso   1.00
O48    O     0.31547   0.21026   0.16666   0.00000  Uiso   1.00
O49    O     0.31547   0.28974   0.16666   0.00000  Uiso   1.00
O50    O     0.18453   0.21026   0.16667   0.00000  Uiso   1.00
O51    O     0.25000   0.28973   0.09511   0.00000  Uiso   1.00
O52    O     0.25000   0.21027   0.23822   0.00000  Uiso   1.00
O53    O     0.25000   0.28973   0.23822   0.00000  Uiso   1.00
O54    O     0.25000   0.21027   0.09511   0.00000  Uiso   1.00
Zn55   Zn    0.25000   0.30307   0.16667   0.00000  Uiso   1.00
Zn56   Zn    0.25000   0.19693   0.16667   0.00000  Uiso   1.00
C57    C     0.66441   0.25004   0.17227   0.00000  Uiso   1.00
C58    C     0.72478   0.44727   0.13088   0.00000  Uiso   1.00
C59    C     0.74992   0.25000   0.07296   0.00000  Uiso   1.00
C60    C     0.75008   0.25000   0.26037   0.00000  Uiso   1.00
C61    C     0.75000   0.02669   0.16667   0.00000  Uiso   1.00
C62    C     0.75000   0.47337   0.16667   0.00000  Uiso   1.00
C63    C     0.74998   0.24999   0.02182   0.00000  Uiso   1.00
C64    C     0.75002   0.24999   0.31151   0.00000  Uiso   1.00
C65    C     0.54763   0.29260   0.18128   0.00000  Uiso   1.00
C66    C     0.95272   0.20856   0.15075   0.00000  Uiso   1.00
C67    C     0.95238   0.29260   0.15213   0.00000  Uiso   1.00
C68    C     0.83560   0.25004   0.16107   0.00000  Uiso   1.00
C69    C     0.54729   0.20856   0.18265   0.00000  Uiso   1.00
C70    C     0.59358   0.29285   0.18656   0.00000  Uiso   1.00
C71    C     0.90671   0.20802   0.14560   0.00000  Uiso   1.00
C72    C     0.90643   0.29285   0.14682   0.00000  Uiso   1.00
C73    C     0.59330   0.20801   0.18778   0.00000  Uiso   1.00
C74    C     0.61699   0.25027   0.18255   0.00000  Uiso   1.00
C75    C     0.88301   0.25027   0.15081   0.00000  Uiso   1.00
C76    C     0.52417   0.25059   0.17357   0.00000  Uiso   1.00
C77    C     0.97584   0.25059   0.15984   0.00000  Uiso   1.00
C78    C     0.72254   0.10182   0.13365   0.00000  Uiso   1.00
C79    C     0.77547   0.39823   0.20163   0.00000  Uiso   1.00
C80    C     0.77746   0.10182   0.19969   0.00000  Uiso   1.00
C81    C     0.72453   0.39823   0.13171   0.00000  Uiso   1.00
C82    C     0.72174   0.05279   0.13382   0.00000  Uiso   1.00
C83    C     0.77522   0.44727   0.20246   0.00000  Uiso   1.00
C84    C     0.77826   0.05279   0.19951   0.00000  Uiso   1.00
H85    H     0.53122   0.32587   0.18413   0.00000  Uiso   1.00
H86    H     0.96960   0.17565   0.14666   0.00000  Uiso   1.00
H87    H     0.96879   0.32587   0.14929   0.00000  Uiso   1.00
H88    H     0.53041   0.17564   0.18674   0.00000  Uiso   1.00
H89    H     0.69847   0.03620   0.10777   0.00000  Uiso   1.00
H90    H     0.79518   0.46387   0.23175   0.00000  Uiso   1.00
H91    H     0.80153   0.03620   0.22556   0.00000  Uiso   1.00
H92    H     0.70482   0.46387   0.10158   0.00000  Uiso   1.00
I93    I     0.67919   0.13422   0.07938   0.00000  Uiso   1.00
I94    I     0.81811   0.36613   0.25681   0.00000  Uiso   1.00
I95    I     0.82081   0.13422   0.25395   0.00000  Uiso   1.00
I96    I     0.68189   0.36613   0.07652   0.00000  Uiso   1.00
I97    I     0.62205   0.35896   0.20691   0.00000  Uiso   1.00
I98    I     0.87837   0.14245   0.12321   0.00000  Uiso   1.00
I99    I     0.87796   0.35896   0.12644   0.00000  Uiso   1.00
I100   I     0.62164   0.14245   0.21014   0.00000  Uiso   1.00
N101   N     0.75000   0.12624   0.16667   0.00000  Uiso   1.00
N102   N     0.75000   0.37377   0.16667   0.00000  Uiso   1.00
O103   O     0.68453   0.28974   0.16667   0.00000  Uiso   1.00
O104   O     0.81547   0.21026   0.16666   0.00000  Uiso   1.00
O105   O     0.81547   0.28974   0.16666   0.00000  Uiso   1.00
O106   O     0.68453   0.21026   0.16667   0.00000  Uiso   1.00
O107   O     0.75000   0.28973   0.09511   0.00000  Uiso   1.00
O108   O     0.75000   0.21027   0.23822   0.00000  Uiso   1.00
O109   O     0.75000   0.28973   0.23822   0.00000  Uiso   1.00
O110   O     0.75000   0.21027   0.09511   0.00000  Uiso   1.00
Zn111  Zn    0.75000   0.30307   0.16667   0.00000  Uiso   1.00
Zn112  Zn    0.75000   0.19693   0.16667   0.00000  Uiso   1.00
C113   C     0.16441   0.75004   0.17227   0.00000  Uiso   1.00
C114   C     0.22478   0.94727   0.13088   0.00000  Uiso   1.00
C115   C     0.24992   0.75000   0.07296   0.00000  Uiso   1.00
C116   C     0.25008   0.75000   0.26037   0.00000  Uiso   1.00
C117   C     0.25000   0.52669   0.16667   0.00000  Uiso   1.00
C118   C     0.25000   0.97337   0.16667   0.00000  Uiso   1.00
C119   C     0.24998   0.74999   0.02182   0.00000  Uiso   1.00
C120   C     0.25002   0.74999   0.31151   0.00000  Uiso   1.00
C121   C     0.04763   0.79260   0.18128   0.00000  Uiso   1.00
C122   C     0.45272   0.70856   0.15075   0.00000  Uiso   1.00
C123   C     0.45238   0.79260   0.15213   0.00000  Uiso   1.00
C124   C     0.33560   0.75004   0.16107   0.00000  Uiso   1.00
C125   C     0.04729   0.70856   0.18265   0.00000  Uiso   1.00
C126   C     0.09358   0.79285   0.18656   0.00000  Uiso   1.00
C127   C     0.40671   0.70802   0.14560   0.00000  Uiso   1.00
C128   C     0.40643   0.79285   0.14682   0.00000  Uiso   1.00
C129   C     0.09330   0.70801   0.18778   0.00000  Uiso   1.00
C130   C     0.11699   0.75027   0.18255   0.00000  Uiso   1.00
C131   C     0.38301   0.75027   0.15081   0.00000  Uiso   1.00
C132   C     0.02417   0.75059   0.17357   0.00000  Uiso   1.00
C133   C     0.47584   0.75059   0.15984   0.00000  Uiso   1.00
C134   C     0.22254   0.60182   0.13365   0.00000  Uiso   1.00
C135   C     0.27547   0.89823   0.20163   0.00000  Uiso   1.00
C136   C     0.27746   0.60182   0.19969   0.00000  Uiso   1.00
C137   C     0.22453   0.89823   0.13171   0.00000  Uiso   1.00
C138   C     0.22174   0.55279   0.13382   0.00000  Uiso   1.00
C139   C     0.27522   0.94727   0.20246   0.00000  Uiso   1.00
C140   C     0.27826   0.55279   0.19951   0.00000  Uiso   1.00
H141   H     0.03122   0.82587   0.18413   0.00000  Uiso   1.00
H142   H     0.46960   0.67565   0.14666   0.00000  Uiso   1.00
H143   H     0.46879   0.82587   0.14929   0.00000  Uiso   1.00
H144   H     0.03041   0.67564   0.18674   0.00000  Uiso   1.00
H145   H     0.19847   0.53620   0.10777   0.00000  Uiso   1.00
H146   H     0.29518   0.96387   0.23175   0.00000  Uiso   1.00
H147   H     0.30153   0.53620   0.22556   0.00000  Uiso   1.00
H148   H     0.20482   0.96387   0.10158   0.00000  Uiso   1.00
I149   I     0.17919   0.63422   0.07938   0.00000  Uiso   1.00
I150   I     0.31811   0.86613   0.25681   0.00000  Uiso   1.00
I151   I     0.32081   0.63422   0.25395   0.00000  Uiso   1.00
I152   I     0.18189   0.86613   0.07652   0.00000  Uiso   1.00
I153   I     0.12205   0.85896   0.20691   0.00000  Uiso   1.00
I154   I     0.37837   0.64245   0.12321   0.00000  Uiso   1.00
I155   I     0.37796   0.85896   0.12644   0.00000  Uiso   1.00
I156   I     0.12164   0.64245   0.21014   0.00000  Uiso   1.00
N157   N     0.25000   0.62624   0.16667   0.00000  Uiso   1.00
N158   N     0.25000   0.87377   0.16667   0.00000  Uiso   1.00
O159   O     0.18453   0.78974   0.16667   0.00000  Uiso   1.00
O160   O     0.31547   0.71026   0.16666   0.00000  Uiso   1.00
O161   O     0.31547   0.78974   0.16666   0.00000  Uiso   1.00
O162   O     0.18453   0.71026   0.16667   0.00000  Uiso   1.00
O163   O     0.25000   0.78973   0.09511   0.00000  Uiso   1.00
O164   O     0.25000   0.71027   0.23822   0.00000  Uiso   1.00
O165   O     0.25000   0.78973   0.23822   0.00000  Uiso   1.00
O166   O     0.25000   0.71027   0.09511   0.00000  Uiso   1.00
Zn167  Zn    0.25000   0.80307   0.16667   0.00000  Uiso   1.00
Zn168  Zn    0.25000   0.69693   0.16667   0.00000  Uiso   1.00
C169   C     0.66441   0.75004   0.17227   0.00000  Uiso   1.00
C170   C     0.72478   0.94727   0.13088   0.00000  Uiso   1.00
C171   C     0.74992   0.75000   0.07296   0.00000  Uiso   1.00
C172   C     0.75008   0.75000   0.26037   0.00000  Uiso   1.00
C173   C     0.75000   0.52669   0.16667   0.00000  Uiso   1.00
C174   C     0.75000   0.97337   0.16667   0.00000  Uiso   1.00
C175   C     0.74998   0.74999   0.02182   0.00000  Uiso   1.00
C176   C     0.75002   0.74999   0.31151   0.00000  Uiso   1.00
C177   C     0.54763   0.79260   0.18128   0.00000  Uiso   1.00
C178   C     0.95272   0.70856   0.15075   0.00000  Uiso   1.00
C179   C     0.95238   0.79260   0.15213   0.00000  Uiso   1.00
C180   C     0.83560   0.75004   0.16107   0.00000  Uiso   1.00
C181   C     0.54729   0.70856   0.18265   0.00000  Uiso   1.00
C182   C     0.59358   0.79285   0.18656   0.00000  Uiso   1.00
C183   C     0.90671   0.70802   0.14560   0.00000  Uiso   1.00
C184   C     0.90643   0.79285   0.14682   0.00000  Uiso   1.00
C185   C     0.59330   0.70801   0.18778   0.00000  Uiso   1.00
C186   C     0.61699   0.75027   0.18255   0.00000  Uiso   1.00
C187   C     0.88301   0.75027   0.15081   0.00000  Uiso   1.00
C188   C     0.52417   0.75059   0.17357   0.00000  Uiso   1.00
C189   C     0.97584   0.75059   0.15984   0.00000  Uiso   1.00
C190   C     0.72254   0.60182   0.13365   0.00000  Uiso   1.00
C191   C     0.77547   0.89823   0.20163   0.00000  Uiso   1.00
C192   C     0.77746   0.60182   0.19969   0.00000  Uiso   1.00
C193   C     0.72453   0.89823   0.13171   0.00000  Uiso   1.00
C194   C     0.72174   0.55279   0.13382   0.00000  Uiso   1.00
C195   C     0.77522   0.94727   0.20246   0.00000  Uiso   1.00
C196   C     0.77826   0.55279   0.19951   0.00000  Uiso   1.00
H197   H     0.53122   0.82587   0.18413   0.00000  Uiso   1.00
H198   H     0.96960   0.67565   0.14666   0.00000  Uiso   1.00
H199   H     0.96879   0.82587   0.14929   0.00000  Uiso   1.00
H200   H     0.53041   0.67564   0.18674   0.00000  Uiso   1.00
H201   H     0.69847   0.53620   0.10777   0.00000  Uiso   1.00
H202   H     0.79518   0.96387   0.23175   0.00000  Uiso   1.00
H203   H     0.80153   0.53620   0.22556   0.00000  Uiso   1.00
H204   H     0.70482   0.96387   0.10158   0.00000  Uiso   1.00
I205   I     0.67919   0.63422   0.07938   0.00000  Uiso   1.00
I206   I     0.81811   0.86613   0.25681   0.00000  Uiso   1.00
I207   I     0.82081   0.63422   0.25395   0.00000  Uiso   1.00
I208   I     0.68189   0.86613   0.07652   0.00000  Uiso   1.00
I209   I     0.62205   0.85896   0.20691   0.00000  Uiso   1.00
I210   I     0.87837   0.64245   0.12321   0.00000  Uiso   1.00
I211   I     0.87796   0.85896   0.12644   0.00000  Uiso   1.00
I212   I     0.62164   0.64245   0.21014   0.00000  Uiso   1.00
N213   N     0.75000   0.62624   0.16667   0.00000  Uiso   1.00
N214   N     0.75000   0.87377   0.16667   0.00000  Uiso   1.00
O215   O     0.68453   0.78974   0.16667   0.00000  Uiso   1.00
O216   O     0.81547   0.71026   0.16666   0.00000  Uiso   1.00
O217   O     0.81547   0.78974   0.16666   0.00000  Uiso   1.00
O218   O     0.68453   0.71026   0.16667   0.00000  Uiso   1.00
O219   O     0.75000   0.78973   0.09511   0.00000  Uiso   1.00
O220   O     0.75000   0.71027   0.23822   0.00000  Uiso   1.00
O221   O     0.75000   0.78973   0.23822   0.00000  Uiso   1.00
O222   O     0.75000   0.71027   0.09511   0.00000  Uiso   1.00
Zn223  Zn    0.75000   0.80307   0.16667   0.00000  Uiso   1.00
Zn224  Zn    0.75000   0.69693   0.16667   0.00000  Uiso   1.00
C225   C     0.16441   0.25004   0.50560   0.00000  Uiso   1.00
C226   C     0.22478   0.44727   0.46421   0.00000  Uiso   1.00
C227   C     0.24992   0.25000   0.40629   0.00000  Uiso   1.00
C228   C     0.25008   0.25000   0.59371   0.00000  Uiso   1.00
C229   C     0.25000   0.02669   0.50000   0.00000  Uiso   1.00
C230   C     0.25000   0.47337   0.50000   0.00000  Uiso   1.00
C231   C     0.24998   0.24999   0.35516   0.00000  Uiso   1.00
C232   C     0.25002   0.24999   0.64484   0.00000  Uiso   1.00
C233   C     0.04763   0.29260   0.51461   0.00000  Uiso   1.00
C234   C     0.45272   0.20856   0.48409   0.00000  Uiso   1.00
C235   C     0.45238   0.29260   0.48547   0.00000  Uiso   1.00
C236   C     0.33560   0.25004   0.49441   0.00000  Uiso   1.00
C237   C     0.04729   0.20856   0.51598   0.00000  Uiso   1.00
C238   C     0.09358   0.29285   0.51990   0.00000  Uiso   1.00
C239   C     0.40671   0.20802   0.47893   0.00000  Uiso   1.00
C240   C     0.40643   0.29285   0.48015   0.00000  Uiso   1.00
C241   C     0.09330   0.20801   0.52111   0.00000  Uiso   1.00
C242   C     0.11699   0.25027   0.51588   0.00000  Uiso   1.00
C243   C     0.38301   0.25027   0.48414   0.00000  Uiso   1.00
C244   C     0.02417   0.25059   0.50690   0.00000  Uiso   1.00
C245   C     0.47584   0.25059   0.49318   0.00000  Uiso   1.00
C246   C     0.22254   0.10182   0.46698   0.00000  Uiso   1.00
C247   C     0.27547   0.39823   0.53496   0.00000  Uiso   1.00
C248   C     0.27746   0.10182   0.53302   0.00000  Uiso   1.00
C249   C     0.22453   0.39823   0.46504   0.00000  Uiso   1.00
C250   C     0.22174   0.05279   0.46716   0.00000  Uiso   1.00
C251   C     0.27522   0.44727   0.53579   0.00000  Uiso   1.00
C252   C     0.27826   0.05279   0.53284   0.00000  Uiso   1.00
H253   H     0.03122   0.32587   0.51747   0.00000  Uiso   1.00
H254   H     0.46960   0.17565   0.48000   0.00000  Uiso   1.00
H255   H     0.46879   0.32587   0.48263   0.00000  Uiso   1.00
H256   H     0.03041   0.17564   0.52008   0.00000  Uiso   1.00
H257   H     0.19847   0.03620   0.44110   0.00000  Uiso   1.00
H258   H     0.29518   0.46387   0.56508   0.00000  Uiso   1.00
H259   H     0.30153   0.03620   0.55890   0.00000  Uiso   1.00
H260   H     0.20482   0.46387   0.43492   0.00000  Uiso   1.00
I261   I     0.17919   0.13422   0.41272   0.00000  Uiso   1.00
I262   I     0.31811   0.36613   0.59015   0.00000  Uiso   1.00
I263   I     0.32081   0.13422   0.58728   0.00000  Uiso   1.00
I264   I     0.18189   0.36613   0.40986   0.00000  Uiso   1.00
I265   I     0.12205   0.35896   0.54025   0.00000  Uiso   1.00
I266   I     0.37837   0.14245   0.45654   0.00000  Uiso   1.00
I267   I     0.37796   0.35896   0.45977   0.00000  Uiso   1.00
I268   I     0.12164   0.14245   0.54348   0.00000  Uiso   1.00
N269   N     0.25000   0.12624   0.50000   0.00000  Uiso   1.00
N270   N     0.25000   0.37377   0.50000   0.00000  Uiso   1.00
O271   O     0.18453   0.28974   0.50000   0.00000  Uiso   1.00
O272   O     0.31547   0.21026   0.50000   0.00000  Uiso   1.00
O273   O     0.31547   0.28974   0.50000   0.00000  Uiso   1.00
O274   O     0.18453   0.21026   0.50000   0.00000  Uiso   1.00
O275   O     0.25000   0.28973   0.42845   0.00000  Uiso   1.00
O276   O     0.25000   0.21027   0.57155   0.00000  Uiso   1.00
O277   O     0.25000   0.28973   0.57155   0.00000  Uiso   1.00
O278   O     0.25000   0.21027   0.42845   0.00000  Uiso   1.00
Zn279  Zn    0.25000   0.30307   0.50000   0.00000  Uiso   1.00
Zn280  Zn    0.25000   0.19693   0.50000   0.00000  Uiso   1.00
C281   C     0.66441   0.25004   0.50560   0.00000  Uiso   1.00
C282   C     0.72478   0.44727   0.46421   0.00000  Uiso   1.00
C283   C     0.74992   0.25000   0.40629   0.00000  Uiso   1.00
C284   C     0.75008   0.25000   0.59371   0.00000  Uiso   1.00
C285   C     0.75000   0.02669   0.50000   0.00000  Uiso   1.00
C286   C     0.75000   0.47337   0.50000   0.00000  Uiso   1.00
C287   C     0.74998   0.24999   0.35516   0.00000  Uiso   1.00
C288   C     0.75002   0.24999   0.64484   0.00000  Uiso   1.00
C289   C     0.54763   0.29260   0.51461   0.00000  Uiso   1.00
C290   C     0.95272   0.20856   0.48409   0.00000  Uiso   1.00
C291   C     0.95238   0.29260   0.48547   0.00000  Uiso   1.00
C292   C     0.83560   0.25004   0.49441   0.00000  Uiso   1.00
C293   C     0.54729   0.20856   0.51598   0.00000  Uiso   1.00
C294   C     0.59358   0.29285   0.51990   0.00000  Uiso   1.00
C295   C     0.90671   0.20802   0.47893   0.00000  Uiso   1.00
C296   C     0.90643   0.29285   0.48015   0.00000  Uiso   1.00
C297   C     0.59330   0.20801   0.52111   0.00000  Uiso   1.00
C298   C     0.61699   0.25027   0.51588   0.00000  Uiso   1.00
C299   C     0.88301   0.25027   0.48414   0.00000  Uiso   1.00
C300   C     0.52417   0.25059   0.50690   0.00000  Uiso   1.00
C301   C     0.97584   0.25059   0.49318   0.00000  Uiso   1.00
C302   C     0.72254   0.10182   0.46698   0.00000  Uiso   1.00
C303   C     0.77547   0.39823   0.53496   0.00000  Uiso   1.00
C304   C     0.77746   0.10182   0.53302   0.00000  Uiso   1.00
C305   C     0.72453   0.39823   0.46504   0.00000  Uiso   1.00
C306   C     0.72174   0.05279   0.46716   0.00000  Uiso   1.00
C307   C     0.77522   0.44727   0.53579   0.00000  Uiso   1.00
C308   C     0.77826   0.05279   0.53284   0.00000  Uiso   1.00
H309   H     0.53122   0.32587   0.51747   0.00000  Uiso   1.00
H310   H     0.96960   0.17565   0.48000   0.00000  Uiso   1.00
H311   H     0.96879   0.32587   0.48263   0.00000  Uiso   1.00
H312   H     0.53041   0.17564   0.52008   0.00000  Uiso   1.00
H313   H     0.69847   0.03620   0.44110   0.00000  Uiso   1.00
H314   H     0.79518   0.46387   0.56508   0.00000  Uiso   1.00
H315   H     0.80153   0.03620   0.55890   0.00000  Uiso   1.00
H316   H     0.70482   0.46387   0.43492   0.00000  Uiso   1.00
I317   I     0.67919   0.13422   0.41272   0.00000  Uiso   1.00
I318   I     0.81811   0.36613   0.59015   0.00000  Uiso   1.00
I319   I     0.82081   0.13422   0.58728   0.00000  Uiso   1.00
I320   I     0.68189   0.36613   0.40986   0.00000  Uiso   1.00
I321   I     0.62205   0.35896   0.54025   0.00000  Uiso   1.00
I322   I     0.87837   0.14245   0.45654   0.00000  Uiso   1.00
I323   I     0.87796   0.35896   0.45977   0.00000  Uiso   1.00
I324   I     0.62164   0.14245   0.54348   0.00000  Uiso   1.00
N325   N     0.75000   0.12624   0.50000   0.00000  Uiso   1.00
N326   N     0.75000   0.37377   0.50000   0.00000  Uiso   1.00
O327   O     0.68453   0.28974   0.50000   0.00000  Uiso   1.00
O328   O     0.81547   0.21026   0.50000   0.00000  Uiso   1.00
O329   O     0.81547   0.28974   0.50000   0.00000  Uiso   1.00
O330   O     0.68453   0.21026   0.50000   0.00000  Uiso   1.00
O331   O     0.75000   0.28973   0.42845   0.00000  Uiso   1.00
O332   O     0.75000   0.21027   0.57155   0.00000  Uiso   1.00
O333   O     0.75000   0.28973   0.57155   0.00000  Uiso   1.00
O334   O     0.75000   0.21027   0.42845   0.00000  Uiso   1.00
Zn335  Zn    0.75000   0.30307   0.50000   0.00000  Uiso   1.00
Zn336  Zn    0.75000   0.19693   0.50000   0.00000  Uiso   1.00
C337   C     0.16441   0.75004   0.50560   0.00000  Uiso   1.00
C338   C     0.22478   0.94727   0.46421   0.00000  Uiso   1.00
C339   C     0.24992   0.75000   0.40629   0.00000  Uiso   1.00
C340   C     0.25008   0.75000   0.59371   0.00000  Uiso   1.00
C341   C     0.25000   0.52669   0.50000   0.00000  Uiso   1.00
C342   C     0.25000   0.97337   0.50000   0.00000  Uiso   1.00
C343   C     0.24998   0.74999   0.35516   0.00000  Uiso   1.00
C344   C     0.25002   0.74999   0.64484   0.00000  Uiso   1.00
C345   C     0.04763   0.79260   0.51461   0.00000  Uiso   1.00
C346   C     0.45272   0.70856   0.48409   0.00000  Uiso   1.00
C347   C     0.45238   0.79260   0.48547   0.00000  Uiso   1.00
C348   C     0.33560   0.75004   0.49441   0.00000  Uiso   1.00
C349   C     0.04729   0.70856   0.51598   0.00000  Uiso   1.00
C350   C     0.09358   0.79285   0.51990   0.00000  Uiso   1.00
C351   C     0.40671   0.70802   0.47893   0.00000  Uiso   1.00
C352   C     0.40643   0.79285   0.48015   0.00000  Uiso   1.00
C353   C     0.09330   0.70801   0.52111   0.00000  Uiso   1.00
C354   C     0.11699   0.75027   0.51588   0.00000  Uiso   1.00
C355   C     0.38301   0.75027   0.48414   0.00000  Uiso   1.00
C356   C     0.02417   0.75059   0.50690   0.00000  Uiso   1.00
C357   C     0.47584   0.75059   0.49318   0.00000  Uiso   1.00
C358   C     0.22254   0.60182   0.46698   0.00000  Uiso   1.00
C359   C     0.27547   0.89823   0.53496   0.00000  Uiso   1.00
C360   C     0.27746   0.60182   0.53302   0.00000  Uiso   1.00
C361   C     0.22453   0.89823   0.46504   0.00000  Uiso   1.00
C362   C     0.22174   0.55279   0.46716   0.00000  Uiso   1.00
C363   C     0.27522   0.94727   0.53579   0.00000  Uiso   1.00
C364   C     0.27826   0.55279   0.53284   0.00000  Uiso   1.00
H365   H     0.03122   0.82587   0.51747   0.00000  Uiso   1.00
H366   H     0.46960   0.67565   0.48000   0.00000  Uiso   1.00
H367   H     0.46879   0.82587   0.48263   0.00000  Uiso   1.00
H368   H     0.03041   0.67564   0.52008   0.00000  Uiso   1.00
H369   H     0.19847   0.53620   0.44110   0.00000  Uiso   1.00
H370   H     0.29518   0.96387   0.56508   0.00000  Uiso   1.00
H371   H     0.30153   0.53620   0.55890   0.00000  Uiso   1.00
H372   H     0.20482   0.96387   0.43492   0.00000  Uiso   1.00
I373   I     0.17919   0.63422   0.41272   0.00000  Uiso   1.00
I374   I     0.31811   0.86613   0.59015   0.00000  Uiso   1.00
I375   I     0.32081   0.63422   0.58728   0.00000  Uiso   1.00
I376   I     0.18189   0.86613   0.40986   0.00000  Uiso   1.00
I377   I     0.12205   0.85896   0.54025   0.00000  Uiso   1.00
I378   I     0.37837   0.64245   0.45654   0.00000  Uiso   1.00
I379   I     0.37796   0.85896   0.45977   0.00000  Uiso   1.00
I380   I     0.12164   0.64245   0.54348   0.00000  Uiso   1.00
N381   N     0.25000   0.62624   0.50000   0.00000  Uiso   1.00
N382   N     0.25000   0.87377   0.50000   0.00000  Uiso   1.00
O383   O     0.18453   0.78974   0.50000   0.00000  Uiso   1.00
O384   O     0.31547   0.71026   0.50000   0.00000  Uiso   1.00
O385   O     0.31547   0.78974   0.50000   0.00000  Uiso   1.00
O386   O     0.18453   0.71026   0.50000   0.00000  Uiso   1.00
O387   O     0.25000   0.78973   0.42845   0.00000  Uiso   1.00
O388   O     0.25000   0.71027   0.57155   0.00000  Uiso   1.00
O389   O     0.25000   0.78973   0.57155   0.00000  Uiso   1.00
O390   O     0.25000   0.71027   0.42845   0.00000  Uiso   1.00
Zn391  Zn    0.25000   0.80307   0.50000   0.00000  Uiso   1.00
Zn392  Zn    0.25000   0.69693   0.50000   0.00000  Uiso   1.00
C393   C     0.66441   0.75004   0.50560   0.00000  Uiso   1.00
C394   C     0.72478   0.94727   0.46421   0.00000  Uiso   1.00
C395   C     0.74992   0.75000   0.40629   0.00000  Uiso   1.00
C396   C     0.75008   0.75000   0.59371   0.00000  Uiso   1.00
C397   C     0.75000   0.52669   0.50000   0.00000  Uiso   1.00
C398   C     0.75000   0.97337   0.50000   0.00000  Uiso   1.00
C399   C     0.74998   0.74999   0.35516   0.00000  Uiso   1.00
C400   C     0.75002   0.74999   0.64484   0.00000  Uiso   1.00
C401   C     0.54763   0.79260   0.51461   0.00000  Uiso   1.00
C402   C     0.95272   0.70856   0.48409   0.00000  Uiso   1.00
C403   C     0.95238   0.79260   0.48547   0.00000  Uiso   1.00
C404   C     0.83560   0.75004   0.49441   0.00000  Uiso   1.00
C405   C     0.54729   0.70856   0.51598   0.00000  Uiso   1.00
C406   C     0.59358   0.79285   0.51990   0.00000  Uiso   1.00
C407   C     0.90671   0.70802   0.47893   0.00000  Uiso   1.00
C408   C     0.90643   0.79285   0.48015   0.00000  Uiso   1.00
C409   C     0.59330   0.70801   0.52111   0.00000  Uiso   1.00
C410   C     0.61699   0.75027   0.51588   0.00000  Uiso   1.00
C411   C     0.88301   0.75027   0.48414   0.00000  Uiso   1.00
C412   C     0.52417   0.75059   0.50690   0.00000  Uiso   1.00
C413   C     0.97584   0.75059   0.49318   0.00000  Uiso   1.00
C414   C     0.72254   0.60182   0.46698   0.00000  Uiso   1.00
C415   C     0.77547   0.89823   0.53496   0.00000  Uiso   1.00
C416   C     0.77746   0.60182   0.53302   0.00000  Uiso   1.00
C417   C     0.72453   0.89823   0.46504   0.00000  Uiso   1.00
C418   C     0.72174   0.55279   0.46716   0.00000  Uiso   1.00
C419   C     0.77522   0.94727   0.53579   0.00000  Uiso   1.00
C420   C     0.77826   0.55279   0.53284   0.00000  Uiso   1.00
H421   H     0.53122   0.82587   0.51747   0.00000  Uiso   1.00
H422   H     0.96960   0.67565   0.48000   0.00000  Uiso   1.00
H423   H     0.96879   0.82587   0.48263   0.00000  Uiso   1.00
H424   H     0.53041   0.67564   0.52008   0.00000  Uiso   1.00
H425   H     0.69847   0.53620   0.44110   0.00000  Uiso   1.00
H426   H     0.79518   0.96387   0.56508   0.00000  Uiso   1.00
H427   H     0.80153   0.53620   0.55890   0.00000  Uiso   1.00
H428   H     0.70482   0.96387   0.43492   0.00000  Uiso   1.00
I429   I     0.67919   0.63422   0.41272   0.00000  Uiso   1.00
I430   I     0.81811   0.86613   0.59015   0.00000  Uiso   1.00
I431   I     0.82081   0.63422   0.58728   0.00000  Uiso   1.00
I432   I     0.68189   0.86613   0.40986   0.00000  Uiso   1.00
I433   I     0.62205   0.85896   0.54025   0.00000  Uiso   1.00
I434   I     0.87837   0.64245   0.45654   0.00000  Uiso   1.00
I435   I     0.87796   0.85896   0.45977   0.00000  Uiso   1.00
I436   I     0.62164   0.64245   0.54348   0.00000  Uiso   1.00
N437   N     0.75000   0.62624   0.50000   0.00000  Uiso   1.00
N438   N     0.75000   0.87377   0.50000   0.00000  Uiso   1.00
O439   O     0.68453   0.78974   0.50000   0.00000  Uiso   1.00
O440   O     0.81547   0.71026   0.50000   0.00000  Uiso   1.00
O441   O     0.81547   0.78974   0.50000   0.00000  Uiso   1.00
O442   O     0.68453   0.71026   0.50000   0.00000  Uiso   1.00
O443   O     0.75000   0.78973   0.42845   0.00000  Uiso   1.00
O444   O     0.75000   0.71027   0.57155   0.00000  Uiso   1.00
O445   O     0.75000   0.78973   0.57155   0.00000  Uiso   1.00
O446   O     0.75000   0.71027   0.42845   0.00000  Uiso   1.00
Zn447  Zn    0.75000   0.80307   0.50000   0.00000  Uiso   1.00
Zn448  Zn    0.75000   0.69693   0.50000   0.00000  Uiso   1.00
C449   C     0.16441   0.25004   0.83893   0.00000  Uiso   1.00
C450   C     0.22478   0.44727   0.79754   0.00000  Uiso   1.00
C451   C     0.24992   0.25000   0.73963   0.00000  Uiso   1.00
C452   C     0.25008   0.25000   0.92704   0.00000  Uiso   1.00
C453   C     0.25000   0.02669   0.83333   0.00000  Uiso   1.00
C454   C     0.25000   0.47337   0.83333   0.00000  Uiso   1.00
C455   C     0.24998   0.24999   0.68849   0.00000  Uiso   1.00
C456   C     0.25002   0.24999   0.97818   0.00000  Uiso   1.00
C457   C     0.04763   0.29260   0.84795   0.00000  Uiso   1.00
C458   C     0.45272   0.20856   0.81742   0.00000  Uiso   1.00
C459   C     0.45238   0.29260   0.81880   0.00000  Uiso   1.00
C460   C     0.33560   0.25004   0.82774   0.00000  Uiso   1.00
C461   C     0.04729   0.20856   0.84931   0.00000  Uiso   1.00
C462   C     0.09358   0.29285   0.85323   0.00000  Uiso   1.00
C463   C     0.40671   0.20802   0.81227   0.00000  Uiso   1.00
C464   C     0.40643   0.29285   0.81348   0.00000  Uiso   1.00
C465   C     0.09330   0.20801   0.85444   0.00000  Uiso   1.00
C466   C     0.11699   0.25027   0.84922   0.00000  Uiso   1.00
C467   C     0.38301   0.25027   0.81748   0.00000  Uiso   1.00
C468   C     0.02417   0.25059   0.84024   0.00000  Uiso   1.00
C469   C     0.47584   0.25059   0.82651   0.00000  Uiso   1.00
C470   C     0.22254   0.10182   0.80031   0.00000  Uiso   1.00
C471   C     0.27547   0.39823   0.86829   0.00000  Uiso   1.00
C472   C     0.27746   0.10182   0.86635   0.00000  Uiso   1.00
C473   C     0.22453   0.39823   0.79837   0.00000  Uiso   1.00
C474   C     0.22174   0.05279   0.80049   0.00000  Uiso   1.00
C475   C     0.27522   0.44727   0.86912   0.00000  Uiso   1.00
C476   C     0.27826   0.05279   0.86618   0.00000  Uiso   1.00
H477   H     0.03122   0.32587   0.85080   0.00000  Uiso   1.00
H478   H     0.46960   0.17565   0.81333   0.00000  Uiso   1.00
H479   H     0.46879   0.32587   0.81596   0.00000  Uiso   1.00
H480   H     0.03041   0.17564   0.85341   0.00000  Uiso   1.00
H481   H     0.19847   0.03620   0.77444   0.00000  Uiso   1.00
H482   H     0.29518   0.46387   0.89841   0.00000  Uiso   1.00
H483   H     0.30153   0.03620   0.89223   0.00000  Uiso   1.00
H484   H     0.20482   0.46387   0.76825   0.00000  Uiso   1.00
I485   I     0.17919   0.13422   0.74605   0.00000  Uiso   1.00
I486   I     0.31811   0.36613   0.92348   0.00000  Uiso   1.00
I487   I     0.32081   0.13422   0.92062   0.00000  Uiso   1.00
I488   I     0.18189   0.36613   0.74319   0.00000  Uiso   1.00
I489   I     0.12205   0.35896   0.87358   0.00000  Uiso   1.00
I490   I     0.37837   0.14245   0.78988   0.00000  Uiso   1.00
I491   I     0.37796   0.35896   0.79311   0.00000  Uiso   1.00
I492   I     0.12164   0.14245   0.87681   0.00000  Uiso   1.00
N493   N     0.25000   0.12624   0.83333   0.00000  Uiso   1.00
N494   N     0.25000   0.37377   0.83333   0.00000  Uiso   1.00
O495   O     0.18453   0.28974   0.83334   0.00000  Uiso   1.00
O496   O     0.31547   0.21026   0.83333   0.00000  Uiso   1.00
O497   O     0.31547   0.28974   0.83333   0.00000  Uiso   1.00
O498   O     0.18453   0.21026   0.83334   0.00000  Uiso   1.00
O499   O     0.25000   0.28973   0.76178   0.00000  Uiso   1.00
O500   O     0.25000   0.21027   0.90489   0.00000  Uiso   1.00
O501   O     0.25000   0.28973   0.90489   0.00000  Uiso   1.00
O502   O     0.25000   0.21027   0.76178   0.00000  Uiso   1.00
Zn503  Zn    0.25000   0.30307   0.83333   0.00000  Uiso   1.00
Zn504  Zn    0.25000   0.19693   0.83333   0.00000  Uiso   1.00
C505   C     0.66441   0.25004   0.83893   0.00000  Uiso   1.00
C506   C     0.72478   0.44727   0.79754   0.00000  Uiso   1.00
C507   C     0.74992   0.25000   0.73963   0.00000  Uiso   1.00
C508   C     0.75008   0.25000   0.92704   0.00000  Uiso   1.00
C509   C     0.75000   0.02669   0.83333   0.00000  Uiso   1.00
C510   C     0.75000   0.47337   0.83333   0.00000  Uiso   1.00
C511   C     0.74998   0.24999   0.68849   0.00000  Uiso   1.00
C512   C     0.75002   0.24999   0.97818   0.00000  Uiso   1.00
C513   C     0.54763   0.29260   0.84795   0.00000  Uiso   1.00
C514   C     0.95272   0.20856   0.81742   0.00000  Uiso   1.00
C515   C     0.95238   0.29260   0.81880   0.00000  Uiso   1.00
C516   C     0.83560   0.25004   0.82774   0.00000  Uiso   1.00
C517   C     0.54729   0.20856   0.84931   0.00000  Uiso   1.00
C518   C     0.59358   0.29285   0.85323   0.00000  Uiso   1.00
C519   C     0.90671   0.20802   0.81227   0.00000  Uiso   1.00
C520   C     0.90643   0.29285   0.81348   0.00000  Uiso   1.00
C521   C     0.59330   0.20801   0.85444   0.00000  Uiso   1.00
C522   C     0.61699   0.25027   0.84922   0.00000  Uiso   1.00
C523   C     0.88301   0.25027   0.81748   0.00000  Uiso   1.00
C524   C     0.52417   0.25059   0.84024   0.00000  Uiso   1.00
C525   C     0.97584   0.25059   0.82651   0.00000  Uiso   1.00
C526   C     0.72254   0.10182   0.80031   0.00000  Uiso   1.00
C527   C     0.77547   0.39823   0.86829   0.00000  Uiso   1.00
C528   C     0.77746   0.10182   0.86635   0.00000  Uiso   1.00
C529   C     0.72453   0.39823   0.79837   0.00000  Uiso   1.00
C530   C     0.72174   0.05279   0.80049   0.00000  Uiso   1.00
C531   C     0.77522   0.44727   0.86912   0.00000  Uiso   1.00
C532   C     0.77826   0.05279   0.86618   0.00000  Uiso   1.00
H533   H     0.53122   0.32587   0.85080   0.00000  Uiso   1.00
H534   H     0.96960   0.17565   0.81333   0.00000  Uiso   1.00
H535   H     0.96879   0.32587   0.81596   0.00000  Uiso   1.00
H536   H     0.53041   0.17564   0.85341   0.00000  Uiso   1.00
H537   H     0.69847   0.03620   0.77444   0.00000  Uiso   1.00
H538   H     0.79518   0.46387   0.89841   0.00000  Uiso   1.00
H539   H     0.80153   0.03620   0.89223   0.00000  Uiso   1.00
H540   H     0.70482   0.46387   0.76825   0.00000  Uiso   1.00
I541   I     0.67919   0.13422   0.74605   0.00000  Uiso   1.00
I542   I     0.81811   0.36613   0.92348   0.00000  Uiso   1.00
I543   I     0.82081   0.13422   0.92062   0.00000  Uiso   1.00
I544   I     0.68189   0.36613   0.74319   0.00000  Uiso   1.00
I545   I     0.62205   0.35896   0.87358   0.00000  Uiso   1.00
I546   I     0.87837   0.14245   0.78988   0.00000  Uiso   1.00
I547   I     0.87796   0.35896   0.79311   0.00000  Uiso   1.00
I548   I     0.62164   0.14245   0.87681   0.00000  Uiso   1.00
N549   N     0.75000   0.12624   0.83333   0.00000  Uiso   1.00
N550   N     0.75000   0.37377   0.83333   0.00000  Uiso   1.00
O551   O     0.68453   0.28974   0.83334   0.00000  Uiso   1.00
O552   O     0.81547   0.21026   0.83333   0.00000  Uiso   1.00
O553   O     0.81547   0.28974   0.83333   0.00000  Uiso   1.00
O554   O     0.68453   0.21026   0.83334   0.00000  Uiso   1.00
O555   O     0.75000   0.28973   0.76178   0.00000  Uiso   1.00
O556   O     0.75000   0.21027   0.90489   0.00000  Uiso   1.00
O557   O     0.75000   0.28973   0.90489   0.00000  Uiso   1.00
O558   O     0.75000   0.21027   0.76178   0.00000  Uiso   1.00
Zn559  Zn    0.75000   0.30307   0.83333   0.00000  Uiso   1.00
Zn560  Zn    0.75000   0.19693   0.83333   0.00000  Uiso   1.00
C561   C     0.16441   0.75004   0.83893   0.00000  Uiso   1.00
C562   C     0.22478   0.94727   0.79754   0.00000  Uiso   1.00
C563   C     0.24992   0.75000   0.73963   0.00000  Uiso   1.00
C564   C     0.25008   0.75000   0.92704   0.00000  Uiso   1.00
C565   C     0.25000   0.52669   0.83333   0.00000  Uiso   1.00
C566   C     0.25000   0.97337   0.83333   0.00000  Uiso   1.00
C567   C     0.24998   0.74999   0.68849   0.00000  Uiso   1.00
C568   C     0.25002   0.74999   0.97818   0.00000  Uiso   1.00
C569   C     0.04763   0.79260   0.84795   0.00000  Uiso   1.00
C570   C     0.45272   0.70856   0.81742   0.00000  Uiso   1.00
C571   C     0.45238   0.79260   0.81880   0.00000  Uiso   1.00
C572   C     0.33560   0.75004   0.82774   0.00000  Uiso   1.00
C573   C     0.04729   0.70856   0.84931   0.00000  Uiso   1.00
C574   C     0.09358   0.79285   0.85323   0.00000  Uiso   1.00
C575   C     0.40671   0.70802   0.81227   0.00000  Uiso   1.00
C576   C     0.40643   0.79285   0.81348   0.00000  Uiso   1.00
C577   C     0.09330   0.70801   0.85444   0.00000  Uiso   1.00
C578   C     0.11699   0.75027   0.84922   0.00000  Uiso   1.00
C579   C     0.38301   0.75027   0.81748   0.00000  Uiso   1.00
C580   C     0.02417   0.75059   0.84024   0.00000  Uiso   1.00
C581   C     0.47584   0.75059   0.82651   0.00000  Uiso   1.00
C582   C     0.22254   0.60182   0.80031   0.00000  Uiso   1.00
C583   C     0.27547   0.89823   0.86829   0.00000  Uiso   1.00
C584   C     0.27746   0.60182   0.86635   0.00000  Uiso   1.00
C585   C     0.22453   0.89823   0.79837   0.00000  Uiso   1.00
C586   C     0.22174   0.55279   0.80049   0.00000  Uiso   1.00
C587   C     0.27522   0.94727   0.86912   0.00000  Uiso   1.00
C588   C     0.27826   0.55279   0.86618   0.00000  Uiso   1.00
H589   H     0.03122   0.82587   0.85080   0.00000  Uiso   1.00
H590   H     0.46960   0.67565   0.81333   0.00000  Uiso   1.00
H591   H     0.46879   0.82587   0.81596   0.00000  Uiso   1.00
H592   H     0.03041   0.67564   0.85341   0.00000  Uiso   1.00
H593   H     0.19847   0.53620   0.77444   0.00000  Uiso   1.00
H594   H     0.29518   0.96387   0.89841   0.00000  Uiso   1.00
H595   H     0.30153   0.53620   0.89223   0.00000  Uiso   1.00
H596   H     0.20482   0.96387   0.76825   0.00000  Uiso   1.00
I597   I     0.17919   0.63422   0.74605   0.00000  Uiso   1.00
I598   I     0.31811   0.86613   0.92348   0.00000  Uiso   1.00
I599   I     0.32081   0.63422   0.92062   0.00000  Uiso   1.00
I600   I     0.18189   0.86613   0.74319   0.00000  Uiso   1.00
I601   I     0.12205   0.85896   0.87358   0.00000  Uiso   1.00
I602   I     0.37837   0.64245   0.78988   0.00000  Uiso   1.00
I603   I     0.37796   0.85896   0.79311   0.00000  Uiso   1.00
I604   I     0.12164   0.64245   0.87681   0.00000  Uiso   1.00
N605   N     0.25000   0.62624   0.83333   0.00000  Uiso   1.00
N606   N     0.25000   0.87377   0.83333   0.00000  Uiso   1.00
O607   O     0.18453   0.78974   0.83334   0.00000  Uiso   1.00
O608   O     0.31547   0.71026   0.83333   0.00000  Uiso   1.00
O609   O     0.31547   0.78974   0.83333   0.00000  Uiso   1.00
O610   O     0.18453   0.71026   0.83334   0.00000  Uiso   1.00
O611   O     0.25000   0.78973   0.76178   0.00000  Uiso   1.00
O612   O     0.25000   0.71027   0.90489   0.00000  Uiso   1.00
O613   O     0.25000   0.78973   0.90489   0.00000  Uiso   1.00
O614   O     0.25000   0.71027   0.76178   0.00000  Uiso   1.00
Zn615  Zn    0.25000   0.80307   0.83333   0.00000  Uiso   1.00
Zn616  Zn    0.25000   0.69693   0.83333   0.00000  Uiso   1.00
C617   C     0.66441   0.75004   0.83893   0.00000  Uiso   1.00
C618   C     0.72478   0.94727   0.79754   0.00000  Uiso   1.00
C619   C     0.74992   0.75000   0.73963   0.00000  Uiso   1.00
C620   C     0.75008   0.75000   0.92704   0.00000  Uiso   1.00
C621   C     0.75000   0.52669   0.83333   0.00000  Uiso   1.00
C622   C     0.75000   0.97337   0.83333   0.00000  Uiso   1.00
C623   C     0.74998   0.74999   0.68849   0.00000  Uiso   1.00
C624   C     0.75002   0.74999   0.97818   0.00000  Uiso   1.00
C625   C     0.54763   0.79260   0.84795   0.00000  Uiso   1.00
C626   C     0.95272   0.70856   0.81742   0.00000  Uiso   1.00
C627   C     0.95238   0.79260   0.81880   0.00000  Uiso   1.00
C628   C     0.83560   0.75004   0.82774   0.00000  Uiso   1.00
C629   C     0.54729   0.70856   0.84931   0.00000  Uiso   1.00
C630   C     0.59358   0.79285   0.85323   0.00000  Uiso   1.00
C631   C     0.90671   0.70802   0.81227   0.00000  Uiso   1.00
C632   C     0.90643   0.79285   0.81348   0.00000  Uiso   1.00
C633   C     0.59330   0.70801   0.85444   0.00000  Uiso   1.00
C634   C     0.61699   0.75027   0.84922   0.00000  Uiso   1.00
C635   C     0.88301   0.75027   0.81748   0.00000  Uiso   1.00
C636   C     0.52417   0.75059   0.84024   0.00000  Uiso   1.00
C637   C     0.97584   0.75059   0.82651   0.00000  Uiso   1.00
C638   C     0.72254   0.60182   0.80031   0.00000  Uiso   1.00
C639   C     0.77547   0.89823   0.86829   0.00000  Uiso   1.00
C640   C     0.77746   0.60182   0.86635   0.00000  Uiso   1.00
C641   C     0.72453   0.89823   0.79837   0.00000  Uiso   1.00
C642   C     0.72174   0.55279   0.80049   0.00000  Uiso   1.00
C643   C     0.77522   0.94727   0.86912   0.00000  Uiso   1.00
C644   C     0.77826   0.55279   0.86618   0.00000  Uiso   1.00
H645   H     0.53122   0.82587   0.85080   0.00000  Uiso   1.00
H646   H     0.96960   0.67565   0.81333   0.00000  Uiso   1.00
H647   H     0.96879   0.82587   0.81596   0.00000  Uiso   1.00
H648   H     0.53041   0.67564   0.85341   0.00000  Uiso   1.00
H649   H     0.69847   0.53620   0.77444   0.00000  Uiso   1.00
H650   H     0.79518   0.96387   0.89841   0.00000  Uiso   1.00
H651   H     0.80153   0.53620   0.89223   0.00000  Uiso   1.00
H652   H     0.70482   0.96387   0.76825   0.00000  Uiso   1.00
I653   I     0.67919   0.63422   0.74605   0.00000  Uiso   1.00
I654   I     0.81811   0.86613   0.92348   0.00000  Uiso   1.00
I655   I     0.82081   0.63422   0.92062   0.00000  Uiso   1.00
I656   I     0.68189   0.86613   0.74319   0.00000  Uiso   1.00
I657   I     0.62205   0.85896   0.87358   0.00000  Uiso   1.00
I658   I     0.87837   0.64245   0.78988   0.00000  Uiso   1.00
I659   I     0.87796   0.85896   0.79311   0.00000  Uiso   1.00
I660   I     0.62164   0.64245   0.87681   0.00000  Uiso   1.00
N661   N     0.75000   0.62624   0.83333   0.00000  Uiso   1.00
N662   N     0.75000   0.87377   0.83333   0.00000  Uiso   1.00
O663   O     0.68453   0.78974   0.83334   0.00000  Uiso   1.00
O664   O     0.81547   0.71026   0.83333   0.00000  Uiso   1.00
O665   O     0.81547   0.78974   0.83333   0.00000  Uiso   1.00
O666   O     0.68453   0.71026   0.83334   0.00000  Uiso   1.00
O667   O     0.75000   0.78973   0.76178   0.00000  Uiso   1.00
O668   O     0.75000   0.71027   0.90489   0.00000  Uiso   1.00
O669   O     0.75000   0.78973   0.90489   0.00000  Uiso   1.00
O670   O     0.75000   0.71027   0.76178   0.00000  Uiso   1.00
Zn671  Zn    0.75000   0.80307   0.83333   0.00000  Uiso   1.00
Zn672  Zn    0.75000   0.69693   0.83333   0.00000  Uiso   1.00
loop_
_geom_bond_atom_site_label_1
_geom_bond_atom_site_label_2
_geom_bond_distance
_geom_bond_site_symmetry_2
_ccdc_geom_bond_type
C1     O50     1.300   .     A
C1     C18     1.461   .     S
C1     O47     1.298   .     A
C2     C6      1.409   .     A
C2     C25     1.403   .     A
C2     H36     1.076   .     S
C3     C7      1.363   .     S
C3     O54     1.281   .     A
C3     O51     1.281   .     A
C4     O53     1.281   .     A
C4     C8      1.363   .     S
C4     O52     1.281   .     A
C5     C28     1.409   .     A
C5     C26     1.409   .     A
C5     C118    1.526   1_545 S
C6     C27     1.409   .     A
C6     C117    1.526   .     S
C7     C456    1.164   1_554 S
C8     C231    1.164   .     S
C9     C14     1.382   .     A
C9     C20     1.405   .     A
C9     H29     1.076   .     S
C10    C21     1.405   .     A
C10    H30     1.077   .     S
C10    C15     1.383   .     A
C11    H31     1.076   .     S
C11    C16     1.382   .     A
C11    C21     1.405   .     A
C12    C19     1.461   .     S
C12    O48     1.300   .     A
C12    O49     1.298   .     A
C13    C17     1.383   .     A
C13    C20     1.405   .     A
C13    H32     1.077   .     S
C14    C18     1.413   .     A
C14    I41     2.137   .     S
C15    C19     1.412   .     A
C15    I42     2.135   .     S
C16    I43     2.137   .     S
C16    C19     1.413   .     A
C17    C18     1.412   .     A
C17    I44     2.135   .     S
C20    C77     1.483   1_455 S
C21    C76     1.483   .     S
C22    I37     2.121   .     S
C22    C26     1.403   .     A
C22    N45     1.373   .     A
C23    N46     1.374   .     A
C23    C27     1.403   .     A
C23    I38     2.121   .     S
C24    I39     2.121   .     S
C24    N45     1.373   .     A
C24    C28     1.403   .     A
C25    I40     2.121   .     S
C25    N46     1.374   .     A
C26    H33     1.076   .     S
C27    H34     1.076   .     S
C28    H35     1.076   .     S
N45    Zn56    2.023   .     S
N46    Zn55    2.023   .     S
O47    Zn55    2.003   .     S
O48    Zn56    2.003   .     S
O49    Zn55    2.003   .     S
O50    Zn56    2.003   .     S
O51    Zn55    1.945   .     S
O52    Zn56    1.945   .     S
O53    Zn55    1.945   .     S
O54    Zn56    1.945   .     S
C57    O106    1.300   .     A
C57    C74     1.461   .     S
C57    O103    1.298   .     A
C58    C62     1.409   .     A
C58    C81     1.403   .     A
C58    H92     1.076   .     S
C59    C63     1.363   .     S
C59    O110    1.281   .     A
C59    O107    1.281   .     A
C60    O109    1.281   .     A
C60    C64     1.363   .     S
C60    O108    1.281   .     A
C61    C84     1.409   .     A
C61    C82     1.409   .     A
C61    C174    1.526   1_545 S
C62    C83     1.409   .     A
C62    C173    1.526   .     S
C63    C512    1.164   1_554 S
C64    C287    1.164   .     S
C65    C70     1.382   .     A
C65    C76     1.405   .     A
C65    H85     1.076   .     S
C66    C77     1.405   .     A
C66    H86     1.077   .     S
C66    C71     1.383   .     A
C67    H87     1.076   .     S
C67    C72     1.382   .     A
C67    C77     1.405   .     A
C68    C75     1.461   .     S
C68    O104    1.300   .     A
C68    O105    1.298   .     A
C69    C73     1.383   .     A
C69    C76     1.405   .     A
C69    H88     1.077   .     S
C70    C74     1.413   .     A
C70    I97     2.137   .     S
C71    C75     1.412   .     A
C71    I98     2.135   .     S
C72    I99     2.137   .     S
C72    C75     1.413   .     A
C73    C74     1.412   .     A
C73    I100    2.135   .     S
C77    C20     1.483   1_655 S
C78    I93     2.121   .     S
C78    C82     1.403   .     A
C78    N101    1.373   .     A
C79    N102    1.374   .     A
C79    C83     1.403   .     A
C79    I94     2.121   .     S
C80    I95     2.121   .     S
C80    N101    1.373   .     A
C80    C84     1.403   .     A
C81    I96     2.121   .     S
C81    N102    1.374   .     A
C82    H89     1.076   .     S
C83    H90     1.076   .     S
C84    H91     1.076   .     S
N101   Zn112   2.023   .     S
N102   Zn111   2.023   .     S
O103   Zn111   2.003   .     S
O104   Zn112   2.003   .     S
O105   Zn111   2.003   .     S
O106   Zn112   2.003   .     S
O107   Zn111   1.945   .     S
O108   Zn112   1.945   .     S
O109   Zn111   1.945   .     S
O110   Zn112   1.945   .     S
C113   O162    1.300   .     A
C113   C130    1.461   .     S
C113   O159    1.298   .     A
C114   C118    1.409   .     A
C114   C137    1.403   .     A
C114   H148    1.076   .     S
C115   C119    1.363   .     S
C115   O166    1.281   .     A
C115   O163    1.281   .     A
C116   O165    1.281   .     A
C116   C120    1.363   .     S
C116   O164    1.281   .     A
C117   C140    1.409   .     A
C117   C138    1.409   .     A
C118   C139    1.409   .     A
C118   C5      1.526   1_565 S
C119   C568    1.164   1_554 S
C120   C343    1.164   .     S
C121   C126    1.382   .     A
C121   C132    1.405   .     A
C121   H141    1.076   .     S
C122   C133    1.405   .     A
C122   H142    1.077   .     S
C122   C127    1.383   .     A
C123   H143    1.076   .     S
C123   C128    1.382   .     A
C123   C133    1.405   .     A
C124   C131    1.461   .     S
C124   O160    1.300   .     A
C124   O161    1.298   .     A
C125   C129    1.383   .     A
C125   C132    1.405   .     A
C125   H144    1.077   .     S
C126   C130    1.413   .     A
C126   I153    2.137   .     S
C127   C131    1.412   .     A
C127   I154    2.135   .     S
C128   I155    2.137   .     S
C128   C131    1.413   .     A
C129   C130    1.412   .     A
C129   I156    2.135   .     S
C132   C189    1.483   1_455 S
C133   C188    1.483   .     S
C134   I149    2.121   .     S
C134   C138    1.403   .     A
C134   N157    1.373   .     A
C135   N158    1.374   .     A
C135   C139    1.403   .     A
C135   I150    2.121   .     S
C136   I151    2.121   .     S
C136   N157    1.373   .     A
C136   C140    1.403   .     A
C137   I152    2.121   .     S
C137   N158    1.374   .     A
C138   H145    1.076   .     S
C139   H146    1.076   .     S
C140   H147    1.076   .     S
N157   Zn168   2.023   .     S
N158   Zn167   2.023   .     S
O159   Zn167   2.003   .     S
O160   Zn168   2.003   .     S
O161   Zn167   2.003   .     S
O162   Zn168   2.003   .     S
O163   Zn167   1.945   .     S
O164   Zn168   1.945   .     S
O165   Zn167   1.945   .     S
O166   Zn168   1.945   .     S
C169   O218    1.300   .     A
C169   C186    1.461   .     S
C169   O215    1.298   .     A
C170   C174    1.409   .     A
C170   C193    1.403   .     A
C170   H204    1.076   .     S
C171   C175    1.363   .     S
C171   O222    1.281   .     A
C171   O219    1.281   .     A
C172   O221    1.281   .     A
C172   C176    1.363   .     S
C172   O220    1.281   .     A
C173   C196    1.409   .     A
C173   C194    1.409   .     A
C174   C195    1.409   .     A
C174   C61     1.526   1_565 S
C175   C624    1.164   1_554 S
C176   C399    1.164   .     S
C177   C182    1.382   .     A
C177   C188    1.405   .     A
C177   H197    1.076   .     S
C178   C189    1.405   .     A
C178   H198    1.077   .     S
C178   C183    1.383   .     A
C179   H199    1.076   .     S
C179   C184    1.382   .     A
C179   C189    1.405   .     A
C180   C187    1.461   .     S
C180   O216    1.300   .     A
C180   O217    1.298   .     A
C181   C185    1.383   .     A
C181   C188    1.405   .     A
C181   H200    1.077   .     S
C182   C186    1.413   .     A
C182   I209    2.137   .     S
C183   C187    1.412   .     A
C183   I210    2.135   .     S
C184   I211    2.137   .     S
C184   C187    1.413   .     A
C185   C186    1.412   .     A
C185   I212    2.135   .     S
C189   C132    1.483   1_655 S
C190   I205    2.121   .     S
C190   C194    1.403   .     A
C190   N213    1.373   .     A
C191   N214    1.374   .     A
C191   C195    1.403   .     A
C191   I206    2.121   .     S
C192   I207    2.121   .     S
C192   N213    1.373   .     A
C192   C196    1.403   .     A
C193   I208    2.121   .     S
C193   N214    1.374   .     A
C194   H201    1.076   .     S
C195   H202    1.076   .     S
C196   H203    1.076   .     S
N213   Zn224   2.023   .     S
N214   Zn223   2.023   .     S
O215   Zn223   2.003   .     S
O216   Zn224   2.003   .     S
O217   Zn223   2.003   .     S
O218   Zn224   2.003   .     S
O219   Zn223   1.945   .     S
O220   Zn224   1.945   .     S
O221   Zn223   1.945   .     S
O222   Zn224   1.945   .     S
C225   O274    1.300   .     A
C225   C242    1.461   .     S
C225   O271    1.298   .     A
C226   C230    1.409   .     A
C226   C249    1.403   .     A
C226   H260    1.076   .     S
C227   C231    1.363   .     S
C227   O278    1.281   .     A
C227   O275    1.281   .     A
C228   O277    1.281   .     A
C228   C232    1.363   .     S
C228   O276    1.281   .     A
C229   C252    1.409   .     A
C229   C250    1.409   .     A
C229   C342    1.526   1_545 S
C230   C251    1.409   .     A
C230   C341    1.526   .     S
C232   C455    1.164   .     S
C233   C238    1.382   .     A
C233   C244    1.405   .     A
C233   H253    1.076   .     S
C234   C245    1.405   .     A
C234   H254    1.077   .     S
C234   C239    1.383   .     A
C235   H255    1.076   .     S
C235   C240    1.382   .     A
C235   C245    1.405   .     A
C236   C243    1.461   .     S
C236   O272    1.300   .     A
C236   O273    1.298   .     A
C237   C241    1.383   .     A
C237   C244    1.405   .     A
C237   H256    1.077   .     S
C238   C242    1.413   .     A
C238   I265    2.137   .     S
C239   C243    1.412   .     A
C239   I266    2.135   .     S
C240   I267    2.137   .     S
C240   C243    1.413   .     A
C241   C242    1.412   .     A
C241   I268    2.135   .     S
C244   C301    1.483   1_455 S
C245   C300    1.483   .     S
C246   I261    2.121   .     S
C246   C250    1.403   .     A
C246   N269    1.373   .     A
C247   N270    1.374   .     A
C247   C251    1.403   .     A
C247   I262    2.121   .     S
C248   I263    2.121   .     S
C248   N269    1.373   .     A
C248   C252    1.403   .     A
C249   I264    2.121   .     S
C249   N270    1.374   .     A
C250   H257    1.076   .     S
C251   H258    1.076   .     S
C252   H259    1.076   .     S
N269   Zn280   2.023   .     S
N270   Zn279   2.023   .     S
O271   Zn279   2.003   .     S
O272   Zn280   2.003   .     S
O273   Zn279   2.003   .     S
O274   Zn280   2.003   .     S
O275   Zn279   1.945   .     S
O276   Zn280   1.945   .     S
O277   Zn279   1.945   .     S
O278   Zn280   1.945   .     S
C281   O330    1.300   .     A
C281   C298    1.461   .     S
C281   O327    1.298   .     A
C282   C286    1.409   .     A
C282   C305    1.403   .     A
C282   H316    1.076   .     S
C283   C287    1.363   .     S
C283   O334    1.281   .     A
C283   O331    1.281   .     A
C284   O333    1.281   .     A
C284   C288    1.363   .     S
C284   O332    1.281   .     A
C285   C308    1.409   .     A
C285   C306    1.409   .     A
C285   C398    1.526   1_545 S
C286   C307    1.409   .     A
C286   C397    1.526   .     S
C288   C511    1.164   .     S
C289   C294    1.382   .     A
C289   C300    1.405   .     A
C289   H309    1.076   .     S
C290   C301    1.405   .     A
C290   H310    1.077   .     S
C290   C295    1.383   .     A
C291   H311    1.076   .     S
C291   C296    1.382   .     A
C291   C301    1.405   .     A
C292   C299    1.461   .     S
C292   O328    1.300   .     A
C292   O329    1.298   .     A
C293   C297    1.383   .     A
C293   C300    1.405   .     A
C293   H312    1.077   .     S
C294   C298    1.413   .     A
C294   I321    2.137   .     S
C295   C299    1.412   .     A
C295   I322    2.135   .     S
C296   I323    2.137   .     S
C296   C299    1.413   .     A
C297   C298    1.412   .     A
C297   I324    2.135   .     S
C301   C244    1.483   1_655 S
C302   I317    2.121   .     S
C302   C306    1.403   .     A
C302   N325    1.373   .     A
C303   N326    1.374   .     A
C303   C307    1.403   .     A
C303   I318    2.121   .     S
C304   I319    2.121   .     S
C304   N325    1.373   .     A
C304   C308    1.403   .     A
C305   I320    2.121   .     S
C305   N326    1.374   .     A
C306   H313    1.076   .     S
C307   H314    1.076   .     S
C308   H315    1.076   .     S
N325   Zn336   2.023   .     S
N326   Zn335   2.023   .     S
O327   Zn335   2.003   .     S
O328   Zn336   2.003   .     S
O329   Zn335   2.003   .     S
O330   Zn336   2.003   .     S
O331   Zn335   1.945   .     S
O332   Zn336   1.945   .     S
O333   Zn335   1.945   .     S
O334   Zn336   1.945   .     S
C337   O386    1.300   .     A
C337   C354    1.461   .     S
C337   O383    1.298   .     A
C338   C342    1.409   .     A
C338   C361    1.403   .     A
C338   H372    1.076   .     S
C339   C343    1.363   .     S
C339   O390    1.281   .     A
C339   O387    1.281   .     A
C340   O389    1.281   .     A
C340   C344    1.363   .     S
C340   O388    1.281   .     A
C341   C364    1.409   .     A
C341   C362    1.409   .     A
C342   C363    1.409   .     A
C342   C229    1.526   1_565 S
C344   C567    1.164   .     S
C345   C350    1.382   .     A
C345   C356    1.405   .     A
C345   H365    1.076   .     S
C346   C357    1.405   .     A
C346   H366    1.077   .     S
C346   C351    1.383   .     A
C347   H367    1.076   .     S
C347   C352    1.382   .     A
C347   C357    1.405   .     A
C348   C355    1.461   .     S
C348   O384    1.300   .     A
C348   O385    1.298   .     A
C349   C353    1.383   .     A
C349   C356    1.405   .     A
C349   H368    1.077   .     S
C350   C354    1.413   .     A
C350   I377    2.137   .     S
C351   C355    1.412   .     A
C351   I378    2.135   .     S
C352   I379    2.137   .     S
C352   C355    1.413   .     A
C353   C354    1.412   .     A
C353   I380    2.135   .     S
C356   C413    1.483   1_455 S
C357   C412    1.483   .     S
C358   I373    2.121   .     S
C358   C362    1.403   .     A
C358   N381    1.373   .     A
C359   N382    1.374   .     A
C359   C363    1.403   .     A
C359   I374    2.121   .     S
C360   I375    2.121   .     S
C360   N381    1.373   .     A
C360   C364    1.403   .     A
C361   I376    2.121   .     S
C361   N382    1.374   .     A
C362   H369    1.076   .     S
C363   H370    1.076   .     S
C364   H371    1.076   .     S
N381   Zn392   2.023   .     S
N382   Zn391   2.023   .     S
O383   Zn391   2.003   .     S
O384   Zn392   2.003   .     S
O385   Zn391   2.003   .     S
O386   Zn392   2.003   .     S
O387   Zn391   1.945   .     S
O388   Zn392   1.945   .     S
O389   Zn391   1.945   .     S
O390   Zn392   1.945   .     S
C393   O442    1.300   .     A
C393   C410    1.461   .     S
C393   O439    1.298   .     A
C394   C398    1.409   .     A
C394   C417    1.403   .     A
C394   H428    1.076   .     S
C395   C399    1.363   .     S
C395   O446    1.281   .     A
C395   O443    1.281   .     A
C396   O445    1.281   .     A
C396   C400    1.363   .     S
C396   O444    1.281   .     A
C397   C420    1.409   .     A
C397   C418    1.409   .     A
C398   C419    1.409   .     A
C398   C285    1.526   1_565 S
C400   C623    1.164   .     S
C401   C406    1.382   .     A
C401   C412    1.405   .     A
C401   H421    1.076   .     S
C402   C413    1.405   .     A
C402   H422    1.077   .     S
C402   C407    1.383   .     A
C403   H423    1.076   .     S
C403   C408    1.382   .     A
C403   C413    1.405   .     A
C404   C411    1.461   .     S
C404   O440    1.300   .     A
C404   O441    1.298   .     A
C405   C409    1.383   .     A
C405   C412    1.405   .     A
C405   H424    1.077   .     S
C406   C410    1.413   .     A
C406   I433    2.137   .     S
C407   C411    1.412   .     A
C407   I434    2.135   .     S
C408   I435    2.137   .     S
C408   C411    1.413   .     A
C409   C410    1.412   .     A
C409   I436    2.135   .     S
C413   C356    1.483   1_655 S
C414   I429    2.121   .     S
C414   C418    1.403   .     A
C414   N437    1.373   .     A
C415   N438    1.374   .     A
C415   C419    1.403   .     A
C415   I430    2.121   .     S
C416   I431    2.121   .     S
C416   N437    1.373   .     A
C416   C420    1.403   .     A
C417   I432    2.121   .     S
C417   N438    1.374   .     A
C418   H425    1.076   .     S
C419   H426    1.076   .     S
C420   H427    1.076   .     S
N437   Zn448   2.023   .     S
N438   Zn447   2.023   .     S
O439   Zn447   2.003   .     S
O440   Zn448   2.003   .     S
O441   Zn447   2.003   .     S
O442   Zn448   2.003   .     S
O443   Zn447   1.945   .     S
O444   Zn448   1.945   .     S
O445   Zn447   1.945   .     S
O446   Zn448   1.945   .     S
C449   O498    1.300   .     A
C449   C466    1.461   .     S
C449   O495    1.298   .     A
C450   C454    1.409   .     A
C450   C473    1.403   .     A
C450   H484    1.076   .     S
C451   C455    1.363   .     S
C451   O502    1.281   .     A
C451   O499    1.281   .     A
C452   O501    1.281   .     A
C452   C456    1.363   .     S
C452   O500    1.281   .     A
C453   C476    1.409   .     A
C453   C474    1.409   .     A
C453   C566    1.526   1_545 S
C454   C475    1.409   .     A
C454   C565    1.526   .     S
C456   C7      1.164   1_556 S
C457   C462    1.382   .     A
C457   C468    1.405   .     A
C457   H477    1.076   .     S
C458   C469    1.405   .     A
C458   H478    1.077   .     S
C458   C463    1.383   .     A
C459   H479    1.076   .     S
C459   C464    1.382   .     A
C459   C469    1.405   .     A
C460   C467    1.461   .     S
C460   O496    1.300   .     A
C460   O497    1.298   .     A
C461   C465    1.383   .     A
C461   C468    1.405   .     A
C461   H480    1.077   .     S
C462   C466    1.413   .     A
C462   I489    2.137   .     S
C463   C467    1.412   .     A
C463   I490    2.135   .     S
C464   I491    2.137   .     S
C464   C467    1.413   .     A
C465   C466    1.412   .     A
C465   I492    2.135   .     S
C468   C525    1.483   1_455 S
C469   C524    1.483   .     S
C470   I485    2.121   .     S
C470   C474    1.403   .     A
C470   N493    1.373   .     A
C471   N494    1.374   .     A
C471   C475    1.403   .     A
C471   I486    2.121   .     S
C472   I487    2.121   .     S
C472   N493    1.373   .     A
C472   C476    1.403   .     A
C473   I488    2.121   .     S
C473   N494    1.374   .     A
C474   H481    1.076   .     S
C475   H482    1.076   .     S
C476   H483    1.076   .     S
N493   Zn504   2.023   .     S
N494   Zn503   2.023   .     S
O495   Zn503   2.003   .     S
O496   Zn504   2.003   .     S
O497   Zn503   2.003   .     S
O498   Zn504   2.003   .     S
O499   Zn503   1.945   .     S
O500   Zn504   1.945   .     S
O501   Zn503   1.945   .     S
O502   Zn504   1.945   .     S
C505   O554    1.300   .     A
C505   C522    1.461   .     S
C505   O551    1.298   .     A
C506   C510    1.409   .     A
C506   C529    1.403   .     A
C506   H540    1.076   .     S
C507   C511    1.363   .     S
C507   O558    1.281   .     A
C507   O555    1.281   .     A
C508   O557    1.281   .     A
C508   C512    1.363   .     S
C508   O556    1.281   .     A
C509   C532    1.409   .     A
C509   C530    1.409   .     A
C509   C622    1.526   1_545 S
C510   C531    1.409   .     A
C510   C621    1.526   .     S
C512   C63     1.164   1_556 S
C513   C518    1.382   .     A
C513   C524    1.405   .     A
C513   H533    1.076   .     S
C514   C525    1.405   .     A
C514   H534    1.077   .     S
C514   C519    1.383   .     A
C515   H535    1.076   .     S
C515   C520    1.382   .     A
C515   C525    1.405   .     A
C516   C523    1.461   .     S
C516   O552    1.300   .     A
C516   O553    1.298   .     A
C517   C521    1.383   .     A
C517   C524    1.405   .     A
C517   H536    1.077   .     S
C518   C522    1.413   .     A
C518   I545    2.137   .     S
C519   C523    1.412   .     A
C519   I546    2.135   .     S
C520   I547    2.137   .     S
C520   C523    1.413   .     A
C521   C522    1.412   .     A
C521   I548    2.135   .     S
C525   C468    1.483   1_655 S
C526   I541    2.121   .     S
C526   C530    1.403   .     A
C526   N549    1.373   .     A
C527   N550    1.374   .     A
C527   C531    1.403   .     A
C527   I542    2.121   .     S
C528   I543    2.121   .     S
C528   N549    1.373   .     A
C528   C532    1.403   .     A
C529   I544    2.121   .     S
C529   N550    1.374   .     A
C530   H537    1.076   .     S
C531   H538    1.076   .     S
C532   H539    1.076   .     S
N549   Zn560   2.023   .     S
N550   Zn559   2.023   .     S
O551   Zn559   2.003   .     S
O552   Zn560   2.003   .     S
O553   Zn559   2.003   .     S
O554   Zn560   2.003   .     S
O555   Zn559   1.945   .     S
O556   Zn560   1.945   .     S
O557   Zn559   1.945   .     S
O558   Zn560   1.945   .     S
C561   O610    1.300   .     A
C561   C578    1.461   .     S
C561   O607    1.298   .     A
C562   C566    1.409   .     A
C562   C585    1.403   .     A
C562   H596    1.076   .     S
C563   C567    1.363   .     S
C563   O614    1.281   .     A
C563   O611    1.281   .     A
C564   O613    1.281   .     A
C564   C568    1.363   .     S
C564   O612    1.281   .     A
C565   C588    1.409   .     A
C565   C586    1.409   .     A
C566   C587    1.409   .     A
C566   C453    1.526   1_565 S
C568   C119    1.164   1_556 S
C569   C574    1.382   .     A
C569   C580    1.405   .     A
C569   H589    1.076   .     S
C570   C581    1.405   .     A
C570   H590    1.077   .     S
C570   C575    1.383   .     A
C571   H591    1.076   .     S
C571   C576    1.382   .     A
C571   C581    1.405   .     A
C572   C579    1.461   .     S
C572   O608    1.300   .     A
C572   O609    1.298   .     A
C573   C577    1.383   .     A
C573   C580    1.405   .     A
C573   H592    1.077   .     S
C574   C578    1.413   .     A
C574   I601    2.137   .     S
C575   C579    1.412   .     A
C575   I602    2.135   .     S
C576   I603    2.137   .     S
C576   C579    1.413   .     A
C577   C578    1.412   .     A
C577   I604    2.135   .     S
C580   C637    1.483   1_455 S
C581   C636    1.483   .     S
C582   I597    2.121   .     S
C582   C586    1.403   .     A
C582   N605    1.373   .     A
C583   N606    1.374   .     A
C583   C587    1.403   .     A
C583   I598    2.121   .     S
C584   I599    2.121   .     S
C584   N605    1.373   .     A
C584   C588    1.403   .     A
C585   I600    2.121   .     S
C585   N606    1.374   .     A
C586   H593    1.076   .     S
C587   H594    1.076   .     S
C588   H595    1.076   .     S
N605   Zn616   2.023   .     S
N606   Zn615   2.023   .     S
O607   Zn615   2.003   .     S
O608   Zn616   2.003   .     S
O609   Zn615   2.003   .     S
O610   Zn616   2.003   .     S
O611   Zn615   1.945   .     S
O612   Zn616   1.945   .     S
O613   Zn615   1.945   .     S
O614   Zn616   1.945   .     S
C617   O666    1.300   .     A
C617   C634    1.461   .     S
C617   O663    1.298   .     A
C618   C622    1.409   .     A
C618   C641    1.403   .     A
C618   H652    1.076   .     S
C619   C623    1.363   .     S
C619   O670    1.281   .     A
C619   O667    1.281   .     A
C620   O669    1.281   .     A
C620   C624    1.363   .     S
C620   O668    1.281   .     A
C621   C644    1.409   .     A
C621   C642    1.409   .     A
C622   C643    1.409   .     A
C622   C509    1.526   1_565 S
C624   C175    1.164   1_556 S
C625   C630    1.382   .     A
C625   C636    1.405   .     A
C625   H645    1.076   .     S
C626   C637    1.405   .     A
C626   H646    1.077   .     S
C626   C631    1.383   .     A
C627   H647    1.076   .     S
C627   C632    1.382   .     A
C627   C637    1.405   .     A
C628   C635    1.461   .     S
C628   O664    1.300   .     A
C628   O665    1.298   .     A
C629   C633    1.383   .     A
C629   C636    1.405   .     A
C629   H648    1.077   .     S
C630   C634    1.413   .     A
C630   I657    2.137   .     S
C631   C635    1.412   .     A
C631   I658    2.135   .     S
C632   I659    2.137   .     S
C632   C635    1.413   .     A
C633   C634    1.412   .     A
C633   I660    2.135   .     S
C637   C580    1.483   1_655 S
C638   I653    2.121   .     S
C638   C642    1.403   .     A
C638   N661    1.373   .     A
C639   N662    1.374   .     A
C639   C643    1.403   .     A
C639   I654    2.121   .     S
C640   I655    2.121   .     S
C640   N661    1.373   .     A
C640   C644    1.403   .     A
C641   I656    2.121   .     S
C641   N662    1.374   .     A
C642   H649    1.076   .     S
C643   H650    1.076   .     S
C644   H651    1.076   .     S
N661   Zn672   2.023   .     S
N662   Zn671   2.023   .     S
O663   Zn671   2.003   .     S
O664   Zn672   2.003   .     S
O665   Zn671   2.003   .     S
O666   Zn672   2.003   .     S
O667   Zn671   1.945   .     S
O668   Zn672   1.945   .     S
O669   Zn671   1.945   .     S
O670   Zn672   1.945   .     S
