data_str_m3_o2_o10_pcu_sym.124
_audit_creation_date              2020-01-03
_audit_creation_method            'Materials Studio'
_symmetry_space_group_name_H-M    'P1'
_symmetry_Int_Tables_number       1
_symmetry_cell_setting            triclinic
loop_
_symmetry_equiv_pos_as_xyz
  x,y,z
_cell_length_a                    25.7346
_cell_length_b                    29.8252
_cell_length_c                    28.4294
_cell_angle_alpha                 89.9249
_cell_angle_beta                  98.6166
_cell_angle_gamma                 90.3691
loop_
_atom_site_label
_atom_site_type_symbol
_atom_site_fract_x
_atom_site_fract_y
_atom_site_fract_z
_atom_site_U_iso_or_equiv
_atom_site_adp_type
_atom_site_occupancy
C1     C     0.16575   0.16382   0.24989   0.00000  Uiso   1.00
C2     C     0.16588   0.33620   0.24985   0.00000  Uiso   1.00
C3     C     0.12674   0.22823   0.04735   0.00000  Uiso   1.00
C4     C     0.19404   0.28293   0.45091   0.00000  Uiso   1.00
C5     C     0.12858   0.22685   0.09732   0.00000  Uiso   1.00
C6     C     0.19564   0.28128   0.40146   0.00000  Uiso   1.00
C7     C     0.20455   0.27333   0.10746   0.00000  Uiso   1.00
C8     C     0.13743   0.21874   0.39346   0.00000  Uiso   1.00
C9     C     0.20629   0.27196   0.05801   0.00000  Uiso   1.00
C10    C     0.13908   0.21720   0.44356   0.00000  Uiso   1.00
C11    C     0.16652   0.25009   0.02667   0.00000  Uiso   1.00
C12    C     0.16652   0.25010   0.47321   0.00000  Uiso   1.00
C13    C     0.06704   0.24996   0.23756   0.00000  Uiso   1.00
C14    C     0.26629   0.25024   0.26244   0.00000  Uiso   1.00
C15    C     0.01200   0.24967   0.23085   0.00000  Uiso   1.00
C16    C     0.32133   0.25096   0.26911   0.00000  Uiso   1.00
C17    C     0.12274   0.04901   0.27938   0.00000  Uiso   1.00
C18    C     0.12591   0.45057   0.20693   0.00000  Uiso   1.00
C19    C     0.13154   0.09511   0.28164   0.00000  Uiso   1.00
C20    C     0.13442   0.40469   0.20748   0.00000  Uiso   1.00
C21    C     0.15937   0.11591   0.24886   0.00000  Uiso   1.00
C22    C     0.15967   0.38409   0.24891   0.00000  Uiso   1.00
C23    C     0.17868   0.09109   0.21372   0.00000  Uiso   1.00
C24    C     0.17650   0.40911   0.28993   0.00000  Uiso   1.00
C25    C     0.17210   0.04515   0.21253   0.00000  Uiso   1.00
C26    C     0.16971   0.45499   0.28908   0.00000  Uiso   1.00
C27    C     0.14506   0.02412   0.24571   0.00000  Uiso   1.00
C28    C     0.14512   0.47576   0.24757   0.00000  Uiso   1.00
H29    H     0.32474   0.24811   0.19457   0.00000  Uiso   1.00
H30    H     0.00860   0.25270   0.30536   0.00000  Uiso   1.00
H31    H     0.11646   0.11460   0.30863   0.00000  Uiso   1.00
H32    H     0.12056   0.38525   0.17585   0.00000  Uiso   1.00
H33    H     0.20009   0.10707   0.18817   0.00000  Uiso   1.00
H34    H     0.19596   0.39336   0.32212   0.00000  Uiso   1.00
H35    H     0.18954   0.02580   0.18676   0.00000  Uiso   1.00
H36    H     0.18509   0.47451   0.32027   0.00000  Uiso   1.00
H37    H     0.09377   0.21258   0.02530   0.00000  Uiso   1.00
H38    H     0.21403   0.31024   0.47118   0.00000  Uiso   1.00
H39    H     0.23917   0.28771   0.04481   0.00000  Uiso   1.00
H40    H     0.11963   0.18989   0.45895   0.00000  Uiso   1.00
N41    N     0.16667   0.24999   0.12624   0.00000  Uiso   1.00
N42    N     0.16667   0.25001   0.37377   0.00000  Uiso   1.00
O43    O     0.16667   0.18453   0.28974   0.00000  Uiso   1.00
O44    O     0.16666   0.31546   0.21026   0.00000  Uiso   1.00
O45    O     0.16667   0.18453   0.21026   0.00000  Uiso   1.00
O46    O     0.16666   0.31547   0.28974   0.00000  Uiso   1.00
O47    O     0.09058   0.25000   0.28044   0.00000  Uiso   1.00
O48    O     0.24275   0.25000   0.21956   0.00000  Uiso   1.00
O49    O     0.09058   0.24999   0.20096   0.00000  Uiso   1.00
O50    O     0.24275   0.25000   0.29904   0.00000  Uiso   1.00
Zn51   Zn    0.16667   0.25000   0.30307   0.00000  Uiso   1.00
Zn52   Zn    0.16667   0.24999   0.19693   0.00000  Uiso   1.00
O53    O     0.09646   0.02740   0.31211   0.00000  Uiso   1.00
C54    C     0.04340   0.04090   0.30528   0.00000  Uiso   1.00
H55    H     0.02501   0.03810   0.26733   0.00000  Uiso   1.00
H56    H     0.03945   0.07557   0.31852   0.00000  Uiso   1.00
H57    H     0.02118   0.01835   0.32624   0.00000  Uiso   1.00
O58    O     0.10199   0.47110   0.16578   0.00000  Uiso   1.00
C59    C     0.04717   0.46943   0.16535   0.00000  Uiso   1.00
H60    H     0.03569   0.48723   0.19661   0.00000  Uiso   1.00
H61    H     0.03241   0.43421   0.16405   0.00000  Uiso   1.00
H62    H     0.02779   0.48669   0.13287   0.00000  Uiso   1.00
O63    O     0.08987   0.20485   0.11739   0.00000  Uiso   1.00
C64    C     0.09305   0.15834   0.10942   0.00000  Uiso   1.00
H65    H     0.06859   0.14063   0.13266   0.00000  Uiso   1.00
H66    H     0.13396   0.14569   0.11873   0.00000  Uiso   1.00
H67    H     0.07712   0.14972   0.07200   0.00000  Uiso   1.00
O68    O     0.22349   0.31310   0.37996   0.00000  Uiso   1.00
C69    C     0.27777   0.30731   0.39528   0.00000  Uiso   1.00
H70    H     0.29976   0.32798   0.37233   0.00000  Uiso   1.00
H71    H     0.29002   0.27184   0.39180   0.00000  Uiso   1.00
H72    H     0.28912   0.31913   0.43247   0.00000  Uiso   1.00
O73    O     0.24318   0.29559   0.13779   0.00000  Uiso   1.00
C74    C     0.23934   0.34210   0.12897   0.00000  Uiso   1.00
H75    H     0.26441   0.35988   0.15837   0.00000  Uiso   1.00
H76    H     0.19842   0.35442   0.12816   0.00000  Uiso   1.00
H77    H     0.25418   0.35097   0.09539   0.00000  Uiso   1.00
O78    O     0.10993   0.18711   0.36362   0.00000  Uiso   1.00
C79    C     0.05831   0.18107   0.37385   0.00000  Uiso   1.00
H80    H     0.03366   0.16721   0.34174   0.00000  Uiso   1.00
H81    H     0.03998   0.21311   0.38277   0.00000  Uiso   1.00
H82    H     0.05785   0.15621   0.40290   0.00000  Uiso   1.00
C83    C     0.49909   0.16382   0.24989   0.00000  Uiso   1.00
C84    C     0.49921   0.33620   0.24985   0.00000  Uiso   1.00
C85    C     0.46007   0.22823   0.04735   0.00000  Uiso   1.00
C86    C     0.52737   0.28293   0.45091   0.00000  Uiso   1.00
C87    C     0.46191   0.22685   0.09732   0.00000  Uiso   1.00
C88    C     0.52898   0.28128   0.40146   0.00000  Uiso   1.00
C89    C     0.53788   0.27333   0.10746   0.00000  Uiso   1.00
C90    C     0.47076   0.21874   0.39346   0.00000  Uiso   1.00
C91    C     0.53962   0.27196   0.05801   0.00000  Uiso   1.00
C92    C     0.47242   0.21720   0.44356   0.00000  Uiso   1.00
C93    C     0.49985   0.25009   0.02667   0.00000  Uiso   1.00
C94    C     0.49985   0.25010   0.47321   0.00000  Uiso   1.00
C95    C     0.40038   0.24996   0.23756   0.00000  Uiso   1.00
C96    C     0.59962   0.25024   0.26244   0.00000  Uiso   1.00
C97    C     0.34533   0.24967   0.23085   0.00000  Uiso   1.00
C98    C     0.65466   0.25096   0.26911   0.00000  Uiso   1.00
C99    C     0.45608   0.04901   0.27938   0.00000  Uiso   1.00
C100   C     0.45924   0.45057   0.20693   0.00000  Uiso   1.00
C101   C     0.46487   0.09511   0.28164   0.00000  Uiso   1.00
C102   C     0.46775   0.40469   0.20748   0.00000  Uiso   1.00
C103   C     0.49270   0.11591   0.24886   0.00000  Uiso   1.00
C104   C     0.49300   0.38409   0.24891   0.00000  Uiso   1.00
C105   C     0.51201   0.09109   0.21372   0.00000  Uiso   1.00
C106   C     0.50983   0.40911   0.28993   0.00000  Uiso   1.00
C107   C     0.50543   0.04515   0.21253   0.00000  Uiso   1.00
C108   C     0.50305   0.45499   0.28908   0.00000  Uiso   1.00
C109   C     0.47839   0.02412   0.24571   0.00000  Uiso   1.00
C110   C     0.47845   0.47576   0.24757   0.00000  Uiso   1.00
H111   H     0.65807   0.24811   0.19457   0.00000  Uiso   1.00
H112   H     0.34193   0.25270   0.30536   0.00000  Uiso   1.00
H113   H     0.44979   0.11460   0.30863   0.00000  Uiso   1.00
H114   H     0.45389   0.38525   0.17585   0.00000  Uiso   1.00
H115   H     0.53342   0.10707   0.18817   0.00000  Uiso   1.00
H116   H     0.52929   0.39336   0.32212   0.00000  Uiso   1.00
H117   H     0.52287   0.02580   0.18676   0.00000  Uiso   1.00
H118   H     0.51842   0.47451   0.32027   0.00000  Uiso   1.00
H119   H     0.42711   0.21258   0.02530   0.00000  Uiso   1.00
H120   H     0.54736   0.31024   0.47118   0.00000  Uiso   1.00
H121   H     0.57250   0.28771   0.04481   0.00000  Uiso   1.00
H122   H     0.45296   0.18989   0.45895   0.00000  Uiso   1.00
N123   N     0.50000   0.24999   0.12624   0.00000  Uiso   1.00
N124   N     0.50000   0.25001   0.37377   0.00000  Uiso   1.00
O125   O     0.50000   0.18453   0.28974   0.00000  Uiso   1.00
O126   O     0.50000   0.31546   0.21026   0.00000  Uiso   1.00
O127   O     0.50000   0.18453   0.21026   0.00000  Uiso   1.00
O128   O     0.50000   0.31547   0.28974   0.00000  Uiso   1.00
O129   O     0.42392   0.25000   0.28044   0.00000  Uiso   1.00
O130   O     0.57608   0.25000   0.21956   0.00000  Uiso   1.00
O131   O     0.42392   0.24999   0.20096   0.00000  Uiso   1.00
O132   O     0.57608   0.25000   0.29904   0.00000  Uiso   1.00
Zn133  Zn    0.50000   0.25000   0.30307   0.00000  Uiso   1.00
Zn134  Zn    0.50000   0.24999   0.19693   0.00000  Uiso   1.00
O135   O     0.42979   0.02740   0.31211   0.00000  Uiso   1.00
C136   C     0.37674   0.04090   0.30528   0.00000  Uiso   1.00
H137   H     0.35834   0.03810   0.26733   0.00000  Uiso   1.00
H138   H     0.37278   0.07557   0.31852   0.00000  Uiso   1.00
H139   H     0.35452   0.01835   0.32624   0.00000  Uiso   1.00
O140   O     0.43532   0.47110   0.16578   0.00000  Uiso   1.00
C141   C     0.38050   0.46943   0.16535   0.00000  Uiso   1.00
H142   H     0.36903   0.48723   0.19661   0.00000  Uiso   1.00
H143   H     0.36574   0.43421   0.16405   0.00000  Uiso   1.00
H144   H     0.36112   0.48669   0.13287   0.00000  Uiso   1.00
O145   O     0.42320   0.20485   0.11739   0.00000  Uiso   1.00
C146   C     0.42638   0.15834   0.10942   0.00000  Uiso   1.00
H147   H     0.40192   0.14063   0.13266   0.00000  Uiso   1.00
H148   H     0.46729   0.14569   0.11873   0.00000  Uiso   1.00
H149   H     0.41045   0.14972   0.07200   0.00000  Uiso   1.00
O150   O     0.55683   0.31310   0.37996   0.00000  Uiso   1.00
C151   C     0.61110   0.30731   0.39528   0.00000  Uiso   1.00
H152   H     0.63309   0.32798   0.37233   0.00000  Uiso   1.00
H153   H     0.62335   0.27184   0.39180   0.00000  Uiso   1.00
H154   H     0.62245   0.31913   0.43247   0.00000  Uiso   1.00
O155   O     0.57651   0.29559   0.13779   0.00000  Uiso   1.00
C156   C     0.57267   0.34210   0.12897   0.00000  Uiso   1.00
H157   H     0.59774   0.35988   0.15837   0.00000  Uiso   1.00
H158   H     0.53175   0.35442   0.12816   0.00000  Uiso   1.00
H159   H     0.58752   0.35097   0.09539   0.00000  Uiso   1.00
O160   O     0.44327   0.18711   0.36362   0.00000  Uiso   1.00
C161   C     0.39165   0.18107   0.37385   0.00000  Uiso   1.00
H162   H     0.36699   0.16721   0.34174   0.00000  Uiso   1.00
H163   H     0.37331   0.21311   0.38277   0.00000  Uiso   1.00
H164   H     0.39118   0.15621   0.40290   0.00000  Uiso   1.00
C165   C     0.83242   0.16382   0.24989   0.00000  Uiso   1.00
C166   C     0.83254   0.33620   0.24985   0.00000  Uiso   1.00
C167   C     0.79341   0.22823   0.04735   0.00000  Uiso   1.00
C168   C     0.86071   0.28293   0.45091   0.00000  Uiso   1.00
C169   C     0.79525   0.22685   0.09732   0.00000  Uiso   1.00
C170   C     0.86231   0.28128   0.40146   0.00000  Uiso   1.00
C171   C     0.87122   0.27333   0.10746   0.00000  Uiso   1.00
C172   C     0.80410   0.21874   0.39346   0.00000  Uiso   1.00
C173   C     0.87295   0.27196   0.05801   0.00000  Uiso   1.00
C174   C     0.80575   0.21720   0.44356   0.00000  Uiso   1.00
C175   C     0.83318   0.25009   0.02667   0.00000  Uiso   1.00
C176   C     0.83318   0.25010   0.47321   0.00000  Uiso   1.00
C177   C     0.73371   0.24996   0.23756   0.00000  Uiso   1.00
C178   C     0.93296   0.25024   0.26244   0.00000  Uiso   1.00
C179   C     0.67867   0.24967   0.23085   0.00000  Uiso   1.00
C180   C     0.98799   0.25096   0.26911   0.00000  Uiso   1.00
C181   C     0.78941   0.04901   0.27938   0.00000  Uiso   1.00
C182   C     0.79258   0.45057   0.20693   0.00000  Uiso   1.00
C183   C     0.79821   0.09511   0.28164   0.00000  Uiso   1.00
C184   C     0.80109   0.40469   0.20748   0.00000  Uiso   1.00
C185   C     0.82603   0.11591   0.24886   0.00000  Uiso   1.00
C186   C     0.82633   0.38409   0.24891   0.00000  Uiso   1.00
C187   C     0.84535   0.09109   0.21372   0.00000  Uiso   1.00
C188   C     0.84317   0.40911   0.28993   0.00000  Uiso   1.00
C189   C     0.83876   0.04515   0.21253   0.00000  Uiso   1.00
C190   C     0.83638   0.45499   0.28908   0.00000  Uiso   1.00
C191   C     0.81172   0.02412   0.24571   0.00000  Uiso   1.00
C192   C     0.81178   0.47576   0.24757   0.00000  Uiso   1.00
H193   H     0.99141   0.24811   0.19457   0.00000  Uiso   1.00
H194   H     0.67527   0.25270   0.30536   0.00000  Uiso   1.00
H195   H     0.78312   0.11460   0.30863   0.00000  Uiso   1.00
H196   H     0.78723   0.38525   0.17585   0.00000  Uiso   1.00
H197   H     0.86676   0.10707   0.18817   0.00000  Uiso   1.00
H198   H     0.86263   0.39336   0.32212   0.00000  Uiso   1.00
H199   H     0.85620   0.02580   0.18676   0.00000  Uiso   1.00
H200   H     0.85175   0.47451   0.32027   0.00000  Uiso   1.00
H201   H     0.76044   0.21258   0.02530   0.00000  Uiso   1.00
H202   H     0.88070   0.31024   0.47118   0.00000  Uiso   1.00
H203   H     0.90583   0.28771   0.04481   0.00000  Uiso   1.00
H204   H     0.78630   0.18989   0.45895   0.00000  Uiso   1.00
N205   N     0.83333   0.24999   0.12624   0.00000  Uiso   1.00
N206   N     0.83333   0.25001   0.37377   0.00000  Uiso   1.00
O207   O     0.83334   0.18453   0.28974   0.00000  Uiso   1.00
O208   O     0.83333   0.31546   0.21026   0.00000  Uiso   1.00
O209   O     0.83334   0.18453   0.21026   0.00000  Uiso   1.00
O210   O     0.83333   0.31547   0.28974   0.00000  Uiso   1.00
O211   O     0.75725   0.25000   0.28044   0.00000  Uiso   1.00
O212   O     0.90942   0.25000   0.21956   0.00000  Uiso   1.00
O213   O     0.75725   0.24999   0.20096   0.00000  Uiso   1.00
O214   O     0.90942   0.25000   0.29904   0.00000  Uiso   1.00
Zn215  Zn    0.83333   0.25000   0.30307   0.00000  Uiso   1.00
Zn216  Zn    0.83333   0.24999   0.19693   0.00000  Uiso   1.00
O217   O     0.76312   0.02740   0.31211   0.00000  Uiso   1.00
C218   C     0.71007   0.04090   0.30528   0.00000  Uiso   1.00
H219   H     0.69168   0.03810   0.26733   0.00000  Uiso   1.00
H220   H     0.70612   0.07557   0.31852   0.00000  Uiso   1.00
H221   H     0.68785   0.01835   0.32624   0.00000  Uiso   1.00
O222   O     0.76865   0.47110   0.16578   0.00000  Uiso   1.00
C223   C     0.71384   0.46943   0.16535   0.00000  Uiso   1.00
H224   H     0.70236   0.48723   0.19661   0.00000  Uiso   1.00
H225   H     0.69908   0.43421   0.16405   0.00000  Uiso   1.00
H226   H     0.69446   0.48669   0.13287   0.00000  Uiso   1.00
O227   O     0.75654   0.20485   0.11739   0.00000  Uiso   1.00
C228   C     0.75972   0.15834   0.10942   0.00000  Uiso   1.00
H229   H     0.73526   0.14063   0.13266   0.00000  Uiso   1.00
H230   H     0.80063   0.14569   0.11873   0.00000  Uiso   1.00
H231   H     0.74378   0.14972   0.07200   0.00000  Uiso   1.00
O232   O     0.89016   0.31310   0.37996   0.00000  Uiso   1.00
C233   C     0.94444   0.30731   0.39528   0.00000  Uiso   1.00
H234   H     0.96642   0.32798   0.37233   0.00000  Uiso   1.00
H235   H     0.95668   0.27184   0.39180   0.00000  Uiso   1.00
H236   H     0.95578   0.31913   0.43247   0.00000  Uiso   1.00
O237   O     0.90985   0.29559   0.13779   0.00000  Uiso   1.00
C238   C     0.90600   0.34210   0.12897   0.00000  Uiso   1.00
H239   H     0.93107   0.35988   0.15837   0.00000  Uiso   1.00
H240   H     0.86508   0.35442   0.12816   0.00000  Uiso   1.00
H241   H     0.92085   0.35097   0.09539   0.00000  Uiso   1.00
O242   O     0.77660   0.18711   0.36362   0.00000  Uiso   1.00
C243   C     0.72498   0.18107   0.37385   0.00000  Uiso   1.00
H244   H     0.70033   0.16721   0.34174   0.00000  Uiso   1.00
H245   H     0.70664   0.21311   0.38277   0.00000  Uiso   1.00
H246   H     0.72452   0.15621   0.40290   0.00000  Uiso   1.00
C247   C     0.16575   0.66382   0.24989   0.00000  Uiso   1.00
C248   C     0.16588   0.83620   0.24985   0.00000  Uiso   1.00
C249   C     0.12674   0.72823   0.04735   0.00000  Uiso   1.00
C250   C     0.19404   0.78293   0.45091   0.00000  Uiso   1.00
C251   C     0.12858   0.72685   0.09732   0.00000  Uiso   1.00
C252   C     0.19564   0.78128   0.40146   0.00000  Uiso   1.00
C253   C     0.20455   0.77333   0.10746   0.00000  Uiso   1.00
C254   C     0.13743   0.71874   0.39346   0.00000  Uiso   1.00
C255   C     0.20629   0.77196   0.05801   0.00000  Uiso   1.00
C256   C     0.13908   0.71720   0.44356   0.00000  Uiso   1.00
C257   C     0.16652   0.75009   0.02667   0.00000  Uiso   1.00
C258   C     0.16652   0.75010   0.47321   0.00000  Uiso   1.00
C259   C     0.06704   0.74996   0.23756   0.00000  Uiso   1.00
C260   C     0.26629   0.75024   0.26244   0.00000  Uiso   1.00
C261   C     0.01200   0.74967   0.23085   0.00000  Uiso   1.00
C262   C     0.32133   0.75096   0.26911   0.00000  Uiso   1.00
C263   C     0.12274   0.54901   0.27938   0.00000  Uiso   1.00
C264   C     0.12591   0.95057   0.20693   0.00000  Uiso   1.00
C265   C     0.13154   0.59511   0.28164   0.00000  Uiso   1.00
C266   C     0.13442   0.90469   0.20748   0.00000  Uiso   1.00
C267   C     0.15937   0.61591   0.24886   0.00000  Uiso   1.00
C268   C     0.15967   0.88409   0.24891   0.00000  Uiso   1.00
C269   C     0.17868   0.59109   0.21372   0.00000  Uiso   1.00
C270   C     0.17650   0.90911   0.28993   0.00000  Uiso   1.00
C271   C     0.17210   0.54515   0.21253   0.00000  Uiso   1.00
C272   C     0.16971   0.95499   0.28908   0.00000  Uiso   1.00
C273   C     0.14506   0.52412   0.24571   0.00000  Uiso   1.00
C274   C     0.14512   0.97576   0.24757   0.00000  Uiso   1.00
H275   H     0.32474   0.74811   0.19457   0.00000  Uiso   1.00
H276   H     0.00860   0.75270   0.30536   0.00000  Uiso   1.00
H277   H     0.11646   0.61460   0.30863   0.00000  Uiso   1.00
H278   H     0.12056   0.88525   0.17585   0.00000  Uiso   1.00
H279   H     0.20009   0.60707   0.18817   0.00000  Uiso   1.00
H280   H     0.19596   0.89336   0.32212   0.00000  Uiso   1.00
H281   H     0.18954   0.52580   0.18676   0.00000  Uiso   1.00
H282   H     0.18509   0.97451   0.32027   0.00000  Uiso   1.00
H283   H     0.09377   0.71258   0.02530   0.00000  Uiso   1.00
H284   H     0.21403   0.81024   0.47118   0.00000  Uiso   1.00
H285   H     0.23917   0.78771   0.04481   0.00000  Uiso   1.00
H286   H     0.11963   0.68989   0.45895   0.00000  Uiso   1.00
N287   N     0.16667   0.74999   0.12624   0.00000  Uiso   1.00
N288   N     0.16667   0.75001   0.37377   0.00000  Uiso   1.00
O289   O     0.16667   0.68453   0.28974   0.00000  Uiso   1.00
O290   O     0.16666   0.81546   0.21026   0.00000  Uiso   1.00
O291   O     0.16667   0.68453   0.21026   0.00000  Uiso   1.00
O292   O     0.16666   0.81547   0.28974   0.00000  Uiso   1.00
O293   O     0.09058   0.75000   0.28044   0.00000  Uiso   1.00
O294   O     0.24275   0.75000   0.21956   0.00000  Uiso   1.00
O295   O     0.09058   0.74999   0.20096   0.00000  Uiso   1.00
O296   O     0.24275   0.75000   0.29904   0.00000  Uiso   1.00
Zn297  Zn    0.16667   0.75000   0.30307   0.00000  Uiso   1.00
Zn298  Zn    0.16667   0.74999   0.19693   0.00000  Uiso   1.00
O299   O     0.09646   0.52740   0.31211   0.00000  Uiso   1.00
C300   C     0.04340   0.54090   0.30528   0.00000  Uiso   1.00
H301   H     0.02501   0.53810   0.26733   0.00000  Uiso   1.00
H302   H     0.03945   0.57557   0.31852   0.00000  Uiso   1.00
H303   H     0.02118   0.51835   0.32624   0.00000  Uiso   1.00
O304   O     0.10199   0.97110   0.16578   0.00000  Uiso   1.00
C305   C     0.04717   0.96943   0.16535   0.00000  Uiso   1.00
H306   H     0.03569   0.98723   0.19661   0.00000  Uiso   1.00
H307   H     0.03241   0.93421   0.16405   0.00000  Uiso   1.00
H308   H     0.02779   0.98669   0.13287   0.00000  Uiso   1.00
O309   O     0.08987   0.70485   0.11739   0.00000  Uiso   1.00
C310   C     0.09305   0.65834   0.10942   0.00000  Uiso   1.00
H311   H     0.06859   0.64063   0.13266   0.00000  Uiso   1.00
H312   H     0.13396   0.64569   0.11873   0.00000  Uiso   1.00
H313   H     0.07712   0.64972   0.07200   0.00000  Uiso   1.00
O314   O     0.22349   0.81310   0.37996   0.00000  Uiso   1.00
C315   C     0.27777   0.80731   0.39528   0.00000  Uiso   1.00
H316   H     0.29976   0.82798   0.37233   0.00000  Uiso   1.00
H317   H     0.29002   0.77184   0.39180   0.00000  Uiso   1.00
H318   H     0.28912   0.81913   0.43247   0.00000  Uiso   1.00
O319   O     0.24318   0.79559   0.13779   0.00000  Uiso   1.00
C320   C     0.23934   0.84210   0.12897   0.00000  Uiso   1.00
H321   H     0.26441   0.85988   0.15837   0.00000  Uiso   1.00
H322   H     0.19842   0.85442   0.12816   0.00000  Uiso   1.00
H323   H     0.25418   0.85097   0.09539   0.00000  Uiso   1.00
O324   O     0.10993   0.68711   0.36362   0.00000  Uiso   1.00
C325   C     0.05831   0.68107   0.37385   0.00000  Uiso   1.00
H326   H     0.03366   0.66721   0.34174   0.00000  Uiso   1.00
H327   H     0.03998   0.71311   0.38277   0.00000  Uiso   1.00
H328   H     0.05785   0.65621   0.40290   0.00000  Uiso   1.00
C329   C     0.49909   0.66382   0.24989   0.00000  Uiso   1.00
C330   C     0.49921   0.83620   0.24985   0.00000  Uiso   1.00
C331   C     0.46007   0.72823   0.04735   0.00000  Uiso   1.00
C332   C     0.52737   0.78293   0.45091   0.00000  Uiso   1.00
C333   C     0.46191   0.72685   0.09732   0.00000  Uiso   1.00
C334   C     0.52898   0.78128   0.40146   0.00000  Uiso   1.00
C335   C     0.53788   0.77333   0.10746   0.00000  Uiso   1.00
C336   C     0.47076   0.71874   0.39346   0.00000  Uiso   1.00
C337   C     0.53962   0.77196   0.05801   0.00000  Uiso   1.00
C338   C     0.47242   0.71720   0.44356   0.00000  Uiso   1.00
C339   C     0.49985   0.75009   0.02667   0.00000  Uiso   1.00
C340   C     0.49985   0.75010   0.47321   0.00000  Uiso   1.00
C341   C     0.40038   0.74996   0.23756   0.00000  Uiso   1.00
C342   C     0.59962   0.75024   0.26244   0.00000  Uiso   1.00
C343   C     0.34533   0.74967   0.23085   0.00000  Uiso   1.00
C344   C     0.65466   0.75096   0.26911   0.00000  Uiso   1.00
C345   C     0.45608   0.54901   0.27938   0.00000  Uiso   1.00
C346   C     0.45924   0.95057   0.20693   0.00000  Uiso   1.00
C347   C     0.46487   0.59511   0.28164   0.00000  Uiso   1.00
C348   C     0.46775   0.90469   0.20748   0.00000  Uiso   1.00
C349   C     0.49270   0.61591   0.24886   0.00000  Uiso   1.00
C350   C     0.49300   0.88409   0.24891   0.00000  Uiso   1.00
C351   C     0.51201   0.59109   0.21372   0.00000  Uiso   1.00
C352   C     0.50983   0.90911   0.28993   0.00000  Uiso   1.00
C353   C     0.50543   0.54515   0.21253   0.00000  Uiso   1.00
C354   C     0.50305   0.95499   0.28908   0.00000  Uiso   1.00
C355   C     0.47839   0.52412   0.24571   0.00000  Uiso   1.00
C356   C     0.47845   0.97576   0.24757   0.00000  Uiso   1.00
H357   H     0.65807   0.74811   0.19457   0.00000  Uiso   1.00
H358   H     0.34193   0.75270   0.30536   0.00000  Uiso   1.00
H359   H     0.44979   0.61460   0.30863   0.00000  Uiso   1.00
H360   H     0.45389   0.88525   0.17585   0.00000  Uiso   1.00
H361   H     0.53342   0.60707   0.18817   0.00000  Uiso   1.00
H362   H     0.52929   0.89336   0.32212   0.00000  Uiso   1.00
H363   H     0.52287   0.52580   0.18676   0.00000  Uiso   1.00
H364   H     0.51842   0.97451   0.32027   0.00000  Uiso   1.00
H365   H     0.42711   0.71258   0.02530   0.00000  Uiso   1.00
H366   H     0.54736   0.81024   0.47118   0.00000  Uiso   1.00
H367   H     0.57250   0.78771   0.04481   0.00000  Uiso   1.00
H368   H     0.45296   0.68989   0.45895   0.00000  Uiso   1.00
N369   N     0.50000   0.74999   0.12624   0.00000  Uiso   1.00
N370   N     0.50000   0.75001   0.37377   0.00000  Uiso   1.00
O371   O     0.50000   0.68453   0.28974   0.00000  Uiso   1.00
O372   O     0.50000   0.81546   0.21026   0.00000  Uiso   1.00
O373   O     0.50000   0.68453   0.21026   0.00000  Uiso   1.00
O374   O     0.50000   0.81547   0.28974   0.00000  Uiso   1.00
O375   O     0.42392   0.75000   0.28044   0.00000  Uiso   1.00
O376   O     0.57608   0.75000   0.21956   0.00000  Uiso   1.00
O377   O     0.42392   0.74999   0.20096   0.00000  Uiso   1.00
O378   O     0.57608   0.75000   0.29904   0.00000  Uiso   1.00
Zn379  Zn    0.50000   0.75000   0.30307   0.00000  Uiso   1.00
Zn380  Zn    0.50000   0.74999   0.19693   0.00000  Uiso   1.00
O381   O     0.42979   0.52740   0.31211   0.00000  Uiso   1.00
C382   C     0.37674   0.54090   0.30528   0.00000  Uiso   1.00
H383   H     0.35834   0.53810   0.26733   0.00000  Uiso   1.00
H384   H     0.37278   0.57557   0.31852   0.00000  Uiso   1.00
H385   H     0.35452   0.51835   0.32624   0.00000  Uiso   1.00
O386   O     0.43532   0.97110   0.16578   0.00000  Uiso   1.00
C387   C     0.38050   0.96943   0.16535   0.00000  Uiso   1.00
H388   H     0.36903   0.98723   0.19661   0.00000  Uiso   1.00
H389   H     0.36574   0.93421   0.16405   0.00000  Uiso   1.00
H390   H     0.36112   0.98669   0.13287   0.00000  Uiso   1.00
O391   O     0.42320   0.70485   0.11739   0.00000  Uiso   1.00
C392   C     0.42638   0.65834   0.10942   0.00000  Uiso   1.00
H393   H     0.40192   0.64063   0.13266   0.00000  Uiso   1.00
H394   H     0.46729   0.64569   0.11873   0.00000  Uiso   1.00
H395   H     0.41045   0.64972   0.07200   0.00000  Uiso   1.00
O396   O     0.55683   0.81310   0.37996   0.00000  Uiso   1.00
C397   C     0.61110   0.80731   0.39528   0.00000  Uiso   1.00
H398   H     0.63309   0.82798   0.37233   0.00000  Uiso   1.00
H399   H     0.62335   0.77184   0.39180   0.00000  Uiso   1.00
H400   H     0.62245   0.81913   0.43247   0.00000  Uiso   1.00
O401   O     0.57651   0.79559   0.13779   0.00000  Uiso   1.00
C402   C     0.57267   0.84210   0.12897   0.00000  Uiso   1.00
H403   H     0.59774   0.85988   0.15837   0.00000  Uiso   1.00
H404   H     0.53175   0.85442   0.12816   0.00000  Uiso   1.00
H405   H     0.58752   0.85097   0.09539   0.00000  Uiso   1.00
O406   O     0.44327   0.68711   0.36362   0.00000  Uiso   1.00
C407   C     0.39165   0.68107   0.37385   0.00000  Uiso   1.00
H408   H     0.36699   0.66721   0.34174   0.00000  Uiso   1.00
H409   H     0.37331   0.71311   0.38277   0.00000  Uiso   1.00
H410   H     0.39118   0.65621   0.40290   0.00000  Uiso   1.00
C411   C     0.83242   0.66382   0.24989   0.00000  Uiso   1.00
C412   C     0.83254   0.83620   0.24985   0.00000  Uiso   1.00
C413   C     0.79341   0.72823   0.04735   0.00000  Uiso   1.00
C414   C     0.86071   0.78293   0.45091   0.00000  Uiso   1.00
C415   C     0.79525   0.72685   0.09732   0.00000  Uiso   1.00
C416   C     0.86231   0.78128   0.40146   0.00000  Uiso   1.00
C417   C     0.87122   0.77333   0.10746   0.00000  Uiso   1.00
C418   C     0.80410   0.71874   0.39346   0.00000  Uiso   1.00
C419   C     0.87295   0.77196   0.05801   0.00000  Uiso   1.00
C420   C     0.80575   0.71720   0.44356   0.00000  Uiso   1.00
C421   C     0.83318   0.75009   0.02667   0.00000  Uiso   1.00
C422   C     0.83318   0.75010   0.47321   0.00000  Uiso   1.00
C423   C     0.73371   0.74996   0.23756   0.00000  Uiso   1.00
C424   C     0.93296   0.75024   0.26244   0.00000  Uiso   1.00
C425   C     0.67867   0.74967   0.23085   0.00000  Uiso   1.00
C426   C     0.98799   0.75096   0.26911   0.00000  Uiso   1.00
C427   C     0.78941   0.54901   0.27938   0.00000  Uiso   1.00
C428   C     0.79258   0.95057   0.20693   0.00000  Uiso   1.00
C429   C     0.79821   0.59511   0.28164   0.00000  Uiso   1.00
C430   C     0.80109   0.90469   0.20748   0.00000  Uiso   1.00
C431   C     0.82603   0.61591   0.24886   0.00000  Uiso   1.00
C432   C     0.82633   0.88409   0.24891   0.00000  Uiso   1.00
C433   C     0.84535   0.59109   0.21372   0.00000  Uiso   1.00
C434   C     0.84317   0.90911   0.28993   0.00000  Uiso   1.00
C435   C     0.83876   0.54515   0.21253   0.00000  Uiso   1.00
C436   C     0.83638   0.95499   0.28908   0.00000  Uiso   1.00
C437   C     0.81172   0.52412   0.24571   0.00000  Uiso   1.00
C438   C     0.81178   0.97576   0.24757   0.00000  Uiso   1.00
H439   H     0.99141   0.74811   0.19457   0.00000  Uiso   1.00
H440   H     0.67527   0.75270   0.30536   0.00000  Uiso   1.00
H441   H     0.78312   0.61460   0.30863   0.00000  Uiso   1.00
H442   H     0.78723   0.88525   0.17585   0.00000  Uiso   1.00
H443   H     0.86676   0.60707   0.18817   0.00000  Uiso   1.00
H444   H     0.86263   0.89336   0.32212   0.00000  Uiso   1.00
H445   H     0.85620   0.52580   0.18676   0.00000  Uiso   1.00
H446   H     0.85175   0.97451   0.32027   0.00000  Uiso   1.00
H447   H     0.76044   0.71258   0.02530   0.00000  Uiso   1.00
H448   H     0.88070   0.81024   0.47118   0.00000  Uiso   1.00
H449   H     0.90583   0.78771   0.04481   0.00000  Uiso   1.00
H450   H     0.78630   0.68989   0.45895   0.00000  Uiso   1.00
N451   N     0.83333   0.74999   0.12624   0.00000  Uiso   1.00
N452   N     0.83333   0.75001   0.37377   0.00000  Uiso   1.00
O453   O     0.83334   0.68453   0.28974   0.00000  Uiso   1.00
O454   O     0.83333   0.81546   0.21026   0.00000  Uiso   1.00
O455   O     0.83334   0.68453   0.21026   0.00000  Uiso   1.00
O456   O     0.83333   0.81547   0.28974   0.00000  Uiso   1.00
O457   O     0.75725   0.75000   0.28044   0.00000  Uiso   1.00
O458   O     0.90942   0.75000   0.21956   0.00000  Uiso   1.00
O459   O     0.75725   0.74999   0.20096   0.00000  Uiso   1.00
O460   O     0.90942   0.75000   0.29904   0.00000  Uiso   1.00
Zn461  Zn    0.83333   0.75000   0.30307   0.00000  Uiso   1.00
Zn462  Zn    0.83333   0.74999   0.19693   0.00000  Uiso   1.00
O463   O     0.76312   0.52740   0.31211   0.00000  Uiso   1.00
C464   C     0.71007   0.54090   0.30528   0.00000  Uiso   1.00
H465   H     0.69168   0.53810   0.26733   0.00000  Uiso   1.00
H466   H     0.70612   0.57557   0.31852   0.00000  Uiso   1.00
H467   H     0.68785   0.51835   0.32624   0.00000  Uiso   1.00
O468   O     0.76865   0.97110   0.16578   0.00000  Uiso   1.00
C469   C     0.71384   0.96943   0.16535   0.00000  Uiso   1.00
H470   H     0.70236   0.98723   0.19661   0.00000  Uiso   1.00
H471   H     0.69908   0.93421   0.16405   0.00000  Uiso   1.00
H472   H     0.69446   0.98669   0.13287   0.00000  Uiso   1.00
O473   O     0.75654   0.70485   0.11739   0.00000  Uiso   1.00
C474   C     0.75972   0.65834   0.10942   0.00000  Uiso   1.00
H475   H     0.73526   0.64063   0.13266   0.00000  Uiso   1.00
H476   H     0.80063   0.64569   0.11873   0.00000  Uiso   1.00
H477   H     0.74378   0.64972   0.07200   0.00000  Uiso   1.00
O478   O     0.89016   0.81310   0.37996   0.00000  Uiso   1.00
C479   C     0.94444   0.80731   0.39528   0.00000  Uiso   1.00
H480   H     0.96642   0.82798   0.37233   0.00000  Uiso   1.00
H481   H     0.95668   0.77184   0.39180   0.00000  Uiso   1.00
H482   H     0.95578   0.81913   0.43247   0.00000  Uiso   1.00
O483   O     0.90985   0.79559   0.13779   0.00000  Uiso   1.00
C484   C     0.90600   0.84210   0.12897   0.00000  Uiso   1.00
H485   H     0.93107   0.85988   0.15837   0.00000  Uiso   1.00
H486   H     0.86508   0.85442   0.12816   0.00000  Uiso   1.00
H487   H     0.92085   0.85097   0.09539   0.00000  Uiso   1.00
O488   O     0.77660   0.68711   0.36362   0.00000  Uiso   1.00
C489   C     0.72498   0.68107   0.37385   0.00000  Uiso   1.00
H490   H     0.70033   0.66721   0.34174   0.00000  Uiso   1.00
H491   H     0.70664   0.71311   0.38277   0.00000  Uiso   1.00
H492   H     0.72452   0.65621   0.40290   0.00000  Uiso   1.00
C493   C     0.16575   0.16382   0.74989   0.00000  Uiso   1.00
C494   C     0.16588   0.33620   0.74985   0.00000  Uiso   1.00
C495   C     0.12674   0.22823   0.54735   0.00000  Uiso   1.00
C496   C     0.19404   0.28293   0.95091   0.00000  Uiso   1.00
C497   C     0.12858   0.22685   0.59732   0.00000  Uiso   1.00
C498   C     0.19564   0.28128   0.90146   0.00000  Uiso   1.00
C499   C     0.20455   0.27333   0.60746   0.00000  Uiso   1.00
C500   C     0.13743   0.21874   0.89346   0.00000  Uiso   1.00
C501   C     0.20629   0.27196   0.55801   0.00000  Uiso   1.00
C502   C     0.13908   0.21720   0.94356   0.00000  Uiso   1.00
C503   C     0.16652   0.25009   0.52667   0.00000  Uiso   1.00
C504   C     0.16652   0.25010   0.97321   0.00000  Uiso   1.00
C505   C     0.06704   0.24996   0.73756   0.00000  Uiso   1.00
C506   C     0.26629   0.25024   0.76244   0.00000  Uiso   1.00
C507   C     0.01200   0.24967   0.73085   0.00000  Uiso   1.00
C508   C     0.32133   0.25096   0.76911   0.00000  Uiso   1.00
C509   C     0.12274   0.04901   0.77938   0.00000  Uiso   1.00
C510   C     0.12591   0.45057   0.70693   0.00000  Uiso   1.00
C511   C     0.13154   0.09511   0.78164   0.00000  Uiso   1.00
C512   C     0.13442   0.40469   0.70748   0.00000  Uiso   1.00
C513   C     0.15937   0.11591   0.74886   0.00000  Uiso   1.00
C514   C     0.15967   0.38409   0.74891   0.00000  Uiso   1.00
C515   C     0.17868   0.09109   0.71372   0.00000  Uiso   1.00
C516   C     0.17650   0.40911   0.78993   0.00000  Uiso   1.00
C517   C     0.17210   0.04515   0.71253   0.00000  Uiso   1.00
C518   C     0.16971   0.45499   0.78908   0.00000  Uiso   1.00
C519   C     0.14506   0.02412   0.74571   0.00000  Uiso   1.00
C520   C     0.14512   0.47576   0.74757   0.00000  Uiso   1.00
H521   H     0.32474   0.24811   0.69457   0.00000  Uiso   1.00
H522   H     0.00860   0.25270   0.80536   0.00000  Uiso   1.00
H523   H     0.11646   0.11460   0.80863   0.00000  Uiso   1.00
H524   H     0.12056   0.38525   0.67585   0.00000  Uiso   1.00
H525   H     0.20009   0.10707   0.68817   0.00000  Uiso   1.00
H526   H     0.19596   0.39336   0.82212   0.00000  Uiso   1.00
H527   H     0.18954   0.02580   0.68676   0.00000  Uiso   1.00
H528   H     0.18509   0.47451   0.82027   0.00000  Uiso   1.00
H529   H     0.09377   0.21258   0.52530   0.00000  Uiso   1.00
H530   H     0.21403   0.31024   0.97118   0.00000  Uiso   1.00
H531   H     0.23917   0.28771   0.54481   0.00000  Uiso   1.00
H532   H     0.11963   0.18989   0.95895   0.00000  Uiso   1.00
N533   N     0.16667   0.24999   0.62624   0.00000  Uiso   1.00
N534   N     0.16667   0.25001   0.87377   0.00000  Uiso   1.00
O535   O     0.16667   0.18453   0.78974   0.00000  Uiso   1.00
O536   O     0.16666   0.31546   0.71026   0.00000  Uiso   1.00
O537   O     0.16667   0.18453   0.71026   0.00000  Uiso   1.00
O538   O     0.16666   0.31547   0.78974   0.00000  Uiso   1.00
O539   O     0.09058   0.25000   0.78044   0.00000  Uiso   1.00
O540   O     0.24275   0.25000   0.71956   0.00000  Uiso   1.00
O541   O     0.09058   0.24999   0.70096   0.00000  Uiso   1.00
O542   O     0.24275   0.25000   0.79904   0.00000  Uiso   1.00
Zn543  Zn    0.16667   0.25000   0.80307   0.00000  Uiso   1.00
Zn544  Zn    0.16667   0.24999   0.69693   0.00000  Uiso   1.00
O545   O     0.09646   0.02740   0.81211   0.00000  Uiso   1.00
C546   C     0.04340   0.04090   0.80528   0.00000  Uiso   1.00
H547   H     0.02501   0.03810   0.76733   0.00000  Uiso   1.00
H548   H     0.03945   0.07557   0.81852   0.00000  Uiso   1.00
H549   H     0.02118   0.01835   0.82624   0.00000  Uiso   1.00
O550   O     0.10199   0.47110   0.66578   0.00000  Uiso   1.00
C551   C     0.04717   0.46943   0.66535   0.00000  Uiso   1.00
H552   H     0.03569   0.48723   0.69661   0.00000  Uiso   1.00
H553   H     0.03241   0.43421   0.66405   0.00000  Uiso   1.00
H554   H     0.02779   0.48669   0.63287   0.00000  Uiso   1.00
O555   O     0.08987   0.20485   0.61739   0.00000  Uiso   1.00
C556   C     0.09305   0.15834   0.60942   0.00000  Uiso   1.00
H557   H     0.06859   0.14063   0.63266   0.00000  Uiso   1.00
H558   H     0.13396   0.14569   0.61873   0.00000  Uiso   1.00
H559   H     0.07712   0.14972   0.57200   0.00000  Uiso   1.00
O560   O     0.22349   0.31310   0.87996   0.00000  Uiso   1.00
C561   C     0.27777   0.30731   0.89528   0.00000  Uiso   1.00
H562   H     0.29976   0.32798   0.87233   0.00000  Uiso   1.00
H563   H     0.29002   0.27184   0.89180   0.00000  Uiso   1.00
H564   H     0.28912   0.31913   0.93247   0.00000  Uiso   1.00
O565   O     0.24318   0.29559   0.63779   0.00000  Uiso   1.00
C566   C     0.23934   0.34210   0.62897   0.00000  Uiso   1.00
H567   H     0.26441   0.35988   0.65837   0.00000  Uiso   1.00
H568   H     0.19842   0.35442   0.62816   0.00000  Uiso   1.00
H569   H     0.25418   0.35097   0.59539   0.00000  Uiso   1.00
O570   O     0.10993   0.18711   0.86362   0.00000  Uiso   1.00
C571   C     0.05831   0.18107   0.87385   0.00000  Uiso   1.00
H572   H     0.03366   0.16721   0.84174   0.00000  Uiso   1.00
H573   H     0.03998   0.21311   0.88277   0.00000  Uiso   1.00
H574   H     0.05785   0.15621   0.90290   0.00000  Uiso   1.00
C575   C     0.49909   0.16382   0.74989   0.00000  Uiso   1.00
C576   C     0.49921   0.33620   0.74985   0.00000  Uiso   1.00
C577   C     0.46007   0.22823   0.54735   0.00000  Uiso   1.00
C578   C     0.52737   0.28293   0.95091   0.00000  Uiso   1.00
C579   C     0.46191   0.22685   0.59732   0.00000  Uiso   1.00
C580   C     0.52898   0.28128   0.90146   0.00000  Uiso   1.00
C581   C     0.53788   0.27333   0.60746   0.00000  Uiso   1.00
C582   C     0.47076   0.21874   0.89346   0.00000  Uiso   1.00
C583   C     0.53962   0.27196   0.55801   0.00000  Uiso   1.00
C584   C     0.47242   0.21720   0.94356   0.00000  Uiso   1.00
C585   C     0.49985   0.25009   0.52667   0.00000  Uiso   1.00
C586   C     0.49985   0.25010   0.97321   0.00000  Uiso   1.00
C587   C     0.40038   0.24996   0.73756   0.00000  Uiso   1.00
C588   C     0.59962   0.25024   0.76244   0.00000  Uiso   1.00
C589   C     0.34533   0.24967   0.73085   0.00000  Uiso   1.00
C590   C     0.65466   0.25096   0.76911   0.00000  Uiso   1.00
C591   C     0.45608   0.04901   0.77938   0.00000  Uiso   1.00
C592   C     0.45924   0.45057   0.70693   0.00000  Uiso   1.00
C593   C     0.46487   0.09511   0.78164   0.00000  Uiso   1.00
C594   C     0.46775   0.40469   0.70748   0.00000  Uiso   1.00
C595   C     0.49270   0.11591   0.74886   0.00000  Uiso   1.00
C596   C     0.49300   0.38409   0.74891   0.00000  Uiso   1.00
C597   C     0.51201   0.09109   0.71372   0.00000  Uiso   1.00
C598   C     0.50983   0.40911   0.78993   0.00000  Uiso   1.00
C599   C     0.50543   0.04515   0.71253   0.00000  Uiso   1.00
C600   C     0.50305   0.45499   0.78908   0.00000  Uiso   1.00
C601   C     0.47839   0.02412   0.74571   0.00000  Uiso   1.00
C602   C     0.47845   0.47576   0.74757   0.00000  Uiso   1.00
H603   H     0.65807   0.24811   0.69457   0.00000  Uiso   1.00
H604   H     0.34193   0.25270   0.80536   0.00000  Uiso   1.00
H605   H     0.44979   0.11460   0.80863   0.00000  Uiso   1.00
H606   H     0.45389   0.38525   0.67585   0.00000  Uiso   1.00
H607   H     0.53342   0.10707   0.68817   0.00000  Uiso   1.00
H608   H     0.52929   0.39336   0.82212   0.00000  Uiso   1.00
H609   H     0.52287   0.02580   0.68676   0.00000  Uiso   1.00
H610   H     0.51842   0.47451   0.82027   0.00000  Uiso   1.00
H611   H     0.42711   0.21258   0.52530   0.00000  Uiso   1.00
H612   H     0.54736   0.31024   0.97118   0.00000  Uiso   1.00
H613   H     0.57250   0.28771   0.54481   0.00000  Uiso   1.00
H614   H     0.45296   0.18989   0.95895   0.00000  Uiso   1.00
N615   N     0.50000   0.24999   0.62624   0.00000  Uiso   1.00
N616   N     0.50000   0.25001   0.87377   0.00000  Uiso   1.00
O617   O     0.50000   0.18453   0.78974   0.00000  Uiso   1.00
O618   O     0.50000   0.31546   0.71026   0.00000  Uiso   1.00
O619   O     0.50000   0.18453   0.71026   0.00000  Uiso   1.00
O620   O     0.50000   0.31547   0.78974   0.00000  Uiso   1.00
O621   O     0.42392   0.25000   0.78044   0.00000  Uiso   1.00
O622   O     0.57608   0.25000   0.71956   0.00000  Uiso   1.00
O623   O     0.42392   0.24999   0.70096   0.00000  Uiso   1.00
O624   O     0.57608   0.25000   0.79904   0.00000  Uiso   1.00
Zn625  Zn    0.50000   0.25000   0.80307   0.00000  Uiso   1.00
Zn626  Zn    0.50000   0.24999   0.69693   0.00000  Uiso   1.00
O627   O     0.42979   0.02740   0.81211   0.00000  Uiso   1.00
C628   C     0.37674   0.04090   0.80528   0.00000  Uiso   1.00
H629   H     0.35834   0.03810   0.76733   0.00000  Uiso   1.00
H630   H     0.37278   0.07557   0.81852   0.00000  Uiso   1.00
H631   H     0.35452   0.01835   0.82624   0.00000  Uiso   1.00
O632   O     0.43532   0.47110   0.66578   0.00000  Uiso   1.00
C633   C     0.38050   0.46943   0.66535   0.00000  Uiso   1.00
H634   H     0.36903   0.48723   0.69661   0.00000  Uiso   1.00
H635   H     0.36574   0.43421   0.66405   0.00000  Uiso   1.00
H636   H     0.36112   0.48669   0.63287   0.00000  Uiso   1.00
O637   O     0.42320   0.20485   0.61739   0.00000  Uiso   1.00
C638   C     0.42638   0.15834   0.60942   0.00000  Uiso   1.00
H639   H     0.40192   0.14063   0.63266   0.00000  Uiso   1.00
H640   H     0.46729   0.14569   0.61873   0.00000  Uiso   1.00
H641   H     0.41045   0.14972   0.57200   0.00000  Uiso   1.00
O642   O     0.55683   0.31310   0.87996   0.00000  Uiso   1.00
C643   C     0.61110   0.30731   0.89528   0.00000  Uiso   1.00
H644   H     0.63309   0.32798   0.87233   0.00000  Uiso   1.00
H645   H     0.62335   0.27184   0.89180   0.00000  Uiso   1.00
H646   H     0.62245   0.31913   0.93247   0.00000  Uiso   1.00
O647   O     0.57651   0.29559   0.63779   0.00000  Uiso   1.00
C648   C     0.57267   0.34210   0.62897   0.00000  Uiso   1.00
H649   H     0.59774   0.35988   0.65837   0.00000  Uiso   1.00
H650   H     0.53175   0.35442   0.62816   0.00000  Uiso   1.00
H651   H     0.58752   0.35097   0.59539   0.00000  Uiso   1.00
O652   O     0.44327   0.18711   0.86362   0.00000  Uiso   1.00
C653   C     0.39165   0.18107   0.87385   0.00000  Uiso   1.00
H654   H     0.36699   0.16721   0.84174   0.00000  Uiso   1.00
H655   H     0.37331   0.21311   0.88277   0.00000  Uiso   1.00
H656   H     0.39118   0.15621   0.90290   0.00000  Uiso   1.00
C657   C     0.83242   0.16382   0.74989   0.00000  Uiso   1.00
C658   C     0.83254   0.33620   0.74985   0.00000  Uiso   1.00
C659   C     0.79341   0.22823   0.54735   0.00000  Uiso   1.00
C660   C     0.86071   0.28293   0.95091   0.00000  Uiso   1.00
C661   C     0.79525   0.22685   0.59732   0.00000  Uiso   1.00
C662   C     0.86231   0.28128   0.90146   0.00000  Uiso   1.00
C663   C     0.87122   0.27333   0.60746   0.00000  Uiso   1.00
C664   C     0.80410   0.21874   0.89346   0.00000  Uiso   1.00
C665   C     0.87295   0.27196   0.55801   0.00000  Uiso   1.00
C666   C     0.80575   0.21720   0.94356   0.00000  Uiso   1.00
C667   C     0.83318   0.25009   0.52667   0.00000  Uiso   1.00
C668   C     0.83318   0.25010   0.97321   0.00000  Uiso   1.00
C669   C     0.73371   0.24996   0.73756   0.00000  Uiso   1.00
C670   C     0.93296   0.25024   0.76244   0.00000  Uiso   1.00
C671   C     0.67867   0.24967   0.73085   0.00000  Uiso   1.00
C672   C     0.98799   0.25096   0.76911   0.00000  Uiso   1.00
C673   C     0.78941   0.04901   0.77938   0.00000  Uiso   1.00
C674   C     0.79258   0.45057   0.70693   0.00000  Uiso   1.00
C675   C     0.79821   0.09511   0.78164   0.00000  Uiso   1.00
C676   C     0.80109   0.40469   0.70748   0.00000  Uiso   1.00
C677   C     0.82603   0.11591   0.74886   0.00000  Uiso   1.00
C678   C     0.82633   0.38409   0.74891   0.00000  Uiso   1.00
C679   C     0.84535   0.09109   0.71372   0.00000  Uiso   1.00
C680   C     0.84317   0.40911   0.78993   0.00000  Uiso   1.00
C681   C     0.83876   0.04515   0.71253   0.00000  Uiso   1.00
C682   C     0.83638   0.45499   0.78908   0.00000  Uiso   1.00
C683   C     0.81172   0.02412   0.74571   0.00000  Uiso   1.00
C684   C     0.81178   0.47576   0.74757   0.00000  Uiso   1.00
H685   H     0.99141   0.24811   0.69457   0.00000  Uiso   1.00
H686   H     0.67527   0.25270   0.80536   0.00000  Uiso   1.00
H687   H     0.78312   0.11460   0.80863   0.00000  Uiso   1.00
H688   H     0.78723   0.38525   0.67585   0.00000  Uiso   1.00
H689   H     0.86676   0.10707   0.68817   0.00000  Uiso   1.00
H690   H     0.86263   0.39336   0.82212   0.00000  Uiso   1.00
H691   H     0.85620   0.02580   0.68676   0.00000  Uiso   1.00
H692   H     0.85175   0.47451   0.82027   0.00000  Uiso   1.00
H693   H     0.76044   0.21258   0.52530   0.00000  Uiso   1.00
H694   H     0.88070   0.31024   0.97118   0.00000  Uiso   1.00
H695   H     0.90583   0.28771   0.54481   0.00000  Uiso   1.00
H696   H     0.78630   0.18989   0.95895   0.00000  Uiso   1.00
N697   N     0.83333   0.24999   0.62624   0.00000  Uiso   1.00
N698   N     0.83333   0.25001   0.87377   0.00000  Uiso   1.00
O699   O     0.83334   0.18453   0.78974   0.00000  Uiso   1.00
O700   O     0.83333   0.31546   0.71026   0.00000  Uiso   1.00
O701   O     0.83334   0.18453   0.71026   0.00000  Uiso   1.00
O702   O     0.83333   0.31547   0.78974   0.00000  Uiso   1.00
O703   O     0.75725   0.25000   0.78044   0.00000  Uiso   1.00
O704   O     0.90942   0.25000   0.71956   0.00000  Uiso   1.00
O705   O     0.75725   0.24999   0.70096   0.00000  Uiso   1.00
O706   O     0.90942   0.25000   0.79904   0.00000  Uiso   1.00
Zn707  Zn    0.83333   0.25000   0.80307   0.00000  Uiso   1.00
Zn708  Zn    0.83333   0.24999   0.69693   0.00000  Uiso   1.00
O709   O     0.76312   0.02740   0.81211   0.00000  Uiso   1.00
C710   C     0.71007   0.04090   0.80528   0.00000  Uiso   1.00
H711   H     0.69168   0.03810   0.76733   0.00000  Uiso   1.00
H712   H     0.70612   0.07557   0.81852   0.00000  Uiso   1.00
H713   H     0.68785   0.01835   0.82624   0.00000  Uiso   1.00
O714   O     0.76865   0.47110   0.66578   0.00000  Uiso   1.00
C715   C     0.71384   0.46943   0.66535   0.00000  Uiso   1.00
H716   H     0.70236   0.48723   0.69661   0.00000  Uiso   1.00
H717   H     0.69908   0.43421   0.66405   0.00000  Uiso   1.00
H718   H     0.69446   0.48669   0.63287   0.00000  Uiso   1.00
O719   O     0.75654   0.20485   0.61739   0.00000  Uiso   1.00
C720   C     0.75972   0.15834   0.60942   0.00000  Uiso   1.00
H721   H     0.73526   0.14063   0.63266   0.00000  Uiso   1.00
H722   H     0.80063   0.14569   0.61873   0.00000  Uiso   1.00
H723   H     0.74378   0.14972   0.57200   0.00000  Uiso   1.00
O724   O     0.89016   0.31310   0.87996   0.00000  Uiso   1.00
C725   C     0.94444   0.30731   0.89528   0.00000  Uiso   1.00
H726   H     0.96642   0.32798   0.87233   0.00000  Uiso   1.00
H727   H     0.95668   0.27184   0.89180   0.00000  Uiso   1.00
H728   H     0.95578   0.31913   0.93247   0.00000  Uiso   1.00
O729   O     0.90985   0.29559   0.63779   0.00000  Uiso   1.00
C730   C     0.90600   0.34210   0.62897   0.00000  Uiso   1.00
H731   H     0.93107   0.35988   0.65837   0.00000  Uiso   1.00
H732   H     0.86508   0.35442   0.62816   0.00000  Uiso   1.00
H733   H     0.92085   0.35097   0.59539   0.00000  Uiso   1.00
O734   O     0.77660   0.18711   0.86362   0.00000  Uiso   1.00
C735   C     0.72498   0.18107   0.87385   0.00000  Uiso   1.00
H736   H     0.70033   0.16721   0.84174   0.00000  Uiso   1.00
H737   H     0.70664   0.21311   0.88277   0.00000  Uiso   1.00
H738   H     0.72452   0.15621   0.90290   0.00000  Uiso   1.00
C739   C     0.16575   0.66382   0.74989   0.00000  Uiso   1.00
C740   C     0.16588   0.83620   0.74985   0.00000  Uiso   1.00
C741   C     0.12674   0.72823   0.54735   0.00000  Uiso   1.00
C742   C     0.19404   0.78293   0.95091   0.00000  Uiso   1.00
C743   C     0.12858   0.72685   0.59732   0.00000  Uiso   1.00
C744   C     0.19564   0.78128   0.90146   0.00000  Uiso   1.00
C745   C     0.20455   0.77333   0.60746   0.00000  Uiso   1.00
C746   C     0.13743   0.71874   0.89346   0.00000  Uiso   1.00
C747   C     0.20629   0.77196   0.55801   0.00000  Uiso   1.00
C748   C     0.13908   0.71720   0.94356   0.00000  Uiso   1.00
C749   C     0.16652   0.75009   0.52667   0.00000  Uiso   1.00
C750   C     0.16652   0.75010   0.97321   0.00000  Uiso   1.00
C751   C     0.06704   0.74996   0.73756   0.00000  Uiso   1.00
C752   C     0.26629   0.75024   0.76244   0.00000  Uiso   1.00
C753   C     0.01200   0.74967   0.73085   0.00000  Uiso   1.00
C754   C     0.32133   0.75096   0.76911   0.00000  Uiso   1.00
C755   C     0.12274   0.54901   0.77938   0.00000  Uiso   1.00
C756   C     0.12591   0.95057   0.70693   0.00000  Uiso   1.00
C757   C     0.13154   0.59511   0.78164   0.00000  Uiso   1.00
C758   C     0.13442   0.90469   0.70748   0.00000  Uiso   1.00
C759   C     0.15937   0.61591   0.74886   0.00000  Uiso   1.00
C760   C     0.15967   0.88409   0.74891   0.00000  Uiso   1.00
C761   C     0.17868   0.59109   0.71372   0.00000  Uiso   1.00
C762   C     0.17650   0.90911   0.78993   0.00000  Uiso   1.00
C763   C     0.17210   0.54515   0.71253   0.00000  Uiso   1.00
C764   C     0.16971   0.95499   0.78908   0.00000  Uiso   1.00
C765   C     0.14506   0.52412   0.74571   0.00000  Uiso   1.00
C766   C     0.14512   0.97576   0.74757   0.00000  Uiso   1.00
H767   H     0.32474   0.74811   0.69457   0.00000  Uiso   1.00
H768   H     0.00860   0.75270   0.80536   0.00000  Uiso   1.00
H769   H     0.11646   0.61460   0.80863   0.00000  Uiso   1.00
H770   H     0.12056   0.88525   0.67585   0.00000  Uiso   1.00
H771   H     0.20009   0.60707   0.68817   0.00000  Uiso   1.00
H772   H     0.19596   0.89336   0.82212   0.00000  Uiso   1.00
H773   H     0.18954   0.52580   0.68676   0.00000  Uiso   1.00
H774   H     0.18509   0.97451   0.82027   0.00000  Uiso   1.00
H775   H     0.09377   0.71258   0.52530   0.00000  Uiso   1.00
H776   H     0.21403   0.81024   0.97118   0.00000  Uiso   1.00
H777   H     0.23917   0.78771   0.54481   0.00000  Uiso   1.00
H778   H     0.11963   0.68989   0.95895   0.00000  Uiso   1.00
N779   N     0.16667   0.74999   0.62624   0.00000  Uiso   1.00
N780   N     0.16667   0.75001   0.87377   0.00000  Uiso   1.00
O781   O     0.16667   0.68453   0.78974   0.00000  Uiso   1.00
O782   O     0.16666   0.81546   0.71026   0.00000  Uiso   1.00
O783   O     0.16667   0.68453   0.71026   0.00000  Uiso   1.00
O784   O     0.16666   0.81547   0.78974   0.00000  Uiso   1.00
O785   O     0.09058   0.75000   0.78044   0.00000  Uiso   1.00
O786   O     0.24275   0.75000   0.71956   0.00000  Uiso   1.00
O787   O     0.09058   0.74999   0.70096   0.00000  Uiso   1.00
O788   O     0.24275   0.75000   0.79904   0.00000  Uiso   1.00
Zn789  Zn    0.16667   0.75000   0.80307   0.00000  Uiso   1.00
Zn790  Zn    0.16667   0.74999   0.69693   0.00000  Uiso   1.00
O791   O     0.09646   0.52740   0.81211   0.00000  Uiso   1.00
C792   C     0.04340   0.54090   0.80528   0.00000  Uiso   1.00
H793   H     0.02501   0.53810   0.76733   0.00000  Uiso   1.00
H794   H     0.03945   0.57557   0.81852   0.00000  Uiso   1.00
H795   H     0.02118   0.51835   0.82624   0.00000  Uiso   1.00
O796   O     0.10199   0.97110   0.66578   0.00000  Uiso   1.00
C797   C     0.04717   0.96943   0.66535   0.00000  Uiso   1.00
H798   H     0.03569   0.98723   0.69661   0.00000  Uiso   1.00
H799   H     0.03241   0.93421   0.66405   0.00000  Uiso   1.00
H800   H     0.02779   0.98669   0.63287   0.00000  Uiso   1.00
O801   O     0.08987   0.70485   0.61739   0.00000  Uiso   1.00
C802   C     0.09305   0.65834   0.60942   0.00000  Uiso   1.00
H803   H     0.06859   0.64063   0.63266   0.00000  Uiso   1.00
H804   H     0.13396   0.64569   0.61873   0.00000  Uiso   1.00
H805   H     0.07712   0.64972   0.57200   0.00000  Uiso   1.00
O806   O     0.22349   0.81310   0.87996   0.00000  Uiso   1.00
C807   C     0.27777   0.80731   0.89528   0.00000  Uiso   1.00
H808   H     0.29976   0.82798   0.87233   0.00000  Uiso   1.00
H809   H     0.29002   0.77184   0.89180   0.00000  Uiso   1.00
H810   H     0.28912   0.81913   0.93247   0.00000  Uiso   1.00
O811   O     0.24318   0.79559   0.63779   0.00000  Uiso   1.00
C812   C     0.23934   0.84210   0.62897   0.00000  Uiso   1.00
H813   H     0.26441   0.85988   0.65837   0.00000  Uiso   1.00
H814   H     0.19842   0.85442   0.62816   0.00000  Uiso   1.00
H815   H     0.25418   0.85097   0.59539   0.00000  Uiso   1.00
O816   O     0.10993   0.68711   0.86362   0.00000  Uiso   1.00
C817   C     0.05831   0.68107   0.87385   0.00000  Uiso   1.00
H818   H     0.03366   0.66721   0.84174   0.00000  Uiso   1.00
H819   H     0.03998   0.71311   0.88277   0.00000  Uiso   1.00
H820   H     0.05785   0.65621   0.90290   0.00000  Uiso   1.00
C821   C     0.49909   0.66382   0.74989   0.00000  Uiso   1.00
C822   C     0.49921   0.83620   0.74985   0.00000  Uiso   1.00
C823   C     0.46007   0.72823   0.54735   0.00000  Uiso   1.00
C824   C     0.52737   0.78293   0.95091   0.00000  Uiso   1.00
C825   C     0.46191   0.72685   0.59732   0.00000  Uiso   1.00
C826   C     0.52898   0.78128   0.90146   0.00000  Uiso   1.00
C827   C     0.53788   0.77333   0.60746   0.00000  Uiso   1.00
C828   C     0.47076   0.71874   0.89346   0.00000  Uiso   1.00
C829   C     0.53962   0.77196   0.55801   0.00000  Uiso   1.00
C830   C     0.47242   0.71720   0.94356   0.00000  Uiso   1.00
C831   C     0.49985   0.75009   0.52667   0.00000  Uiso   1.00
C832   C     0.49985   0.75010   0.97321   0.00000  Uiso   1.00
C833   C     0.40038   0.74996   0.73756   0.00000  Uiso   1.00
C834   C     0.59962   0.75024   0.76244   0.00000  Uiso   1.00
C835   C     0.34533   0.74967   0.73085   0.00000  Uiso   1.00
C836   C     0.65466   0.75096   0.76911   0.00000  Uiso   1.00
C837   C     0.45608   0.54901   0.77938   0.00000  Uiso   1.00
C838   C     0.45924   0.95057   0.70693   0.00000  Uiso   1.00
C839   C     0.46487   0.59511   0.78164   0.00000  Uiso   1.00
C840   C     0.46775   0.90469   0.70748   0.00000  Uiso   1.00
C841   C     0.49270   0.61591   0.74886   0.00000  Uiso   1.00
C842   C     0.49300   0.88409   0.74891   0.00000  Uiso   1.00
C843   C     0.51201   0.59109   0.71372   0.00000  Uiso   1.00
C844   C     0.50983   0.90911   0.78993   0.00000  Uiso   1.00
C845   C     0.50543   0.54515   0.71253   0.00000  Uiso   1.00
C846   C     0.50305   0.95499   0.78908   0.00000  Uiso   1.00
C847   C     0.47839   0.52412   0.74571   0.00000  Uiso   1.00
C848   C     0.47845   0.97576   0.74757   0.00000  Uiso   1.00
H849   H     0.65807   0.74811   0.69457   0.00000  Uiso   1.00
H850   H     0.34193   0.75270   0.80536   0.00000  Uiso   1.00
H851   H     0.44979   0.61460   0.80863   0.00000  Uiso   1.00
H852   H     0.45389   0.88525   0.67585   0.00000  Uiso   1.00
H853   H     0.53342   0.60707   0.68817   0.00000  Uiso   1.00
H854   H     0.52929   0.89336   0.82212   0.00000  Uiso   1.00
H855   H     0.52287   0.52580   0.68676   0.00000  Uiso   1.00
H856   H     0.51842   0.97451   0.82027   0.00000  Uiso   1.00
H857   H     0.42711   0.71258   0.52530   0.00000  Uiso   1.00
H858   H     0.54736   0.81024   0.97118   0.00000  Uiso   1.00
H859   H     0.57250   0.78771   0.54481   0.00000  Uiso   1.00
H860   H     0.45296   0.68989   0.95895   0.00000  Uiso   1.00
N861   N     0.50000   0.74999   0.62624   0.00000  Uiso   1.00
N862   N     0.50000   0.75001   0.87377   0.00000  Uiso   1.00
O863   O     0.50000   0.68453   0.78974   0.00000  Uiso   1.00
O864   O     0.50000   0.81546   0.71026   0.00000  Uiso   1.00
O865   O     0.50000   0.68453   0.71026   0.00000  Uiso   1.00
O866   O     0.50000   0.81547   0.78974   0.00000  Uiso   1.00
O867   O     0.42392   0.75000   0.78044   0.00000  Uiso   1.00
O868   O     0.57608   0.75000   0.71956   0.00000  Uiso   1.00
O869   O     0.42392   0.74999   0.70096   0.00000  Uiso   1.00
O870   O     0.57608   0.75000   0.79904   0.00000  Uiso   1.00
Zn871  Zn    0.50000   0.75000   0.80307   0.00000  Uiso   1.00
Zn872  Zn    0.50000   0.74999   0.69693   0.00000  Uiso   1.00
O873   O     0.42979   0.52740   0.81211   0.00000  Uiso   1.00
C874   C     0.37674   0.54090   0.80528   0.00000  Uiso   1.00
H875   H     0.35834   0.53810   0.76733   0.00000  Uiso   1.00
H876   H     0.37278   0.57557   0.81852   0.00000  Uiso   1.00
H877   H     0.35452   0.51835   0.82624   0.00000  Uiso   1.00
O878   O     0.43532   0.97110   0.66578   0.00000  Uiso   1.00
C879   C     0.38050   0.96943   0.66535   0.00000  Uiso   1.00
H880   H     0.36903   0.98723   0.69661   0.00000  Uiso   1.00
H881   H     0.36574   0.93421   0.66405   0.00000  Uiso   1.00
H882   H     0.36112   0.98669   0.63287   0.00000  Uiso   1.00
O883   O     0.42320   0.70485   0.61739   0.00000  Uiso   1.00
C884   C     0.42638   0.65834   0.60942   0.00000  Uiso   1.00
H885   H     0.40192   0.64063   0.63266   0.00000  Uiso   1.00
H886   H     0.46729   0.64569   0.61873   0.00000  Uiso   1.00
H887   H     0.41045   0.64972   0.57200   0.00000  Uiso   1.00
O888   O     0.55683   0.81310   0.87996   0.00000  Uiso   1.00
C889   C     0.61110   0.80731   0.89528   0.00000  Uiso   1.00
H890   H     0.63309   0.82798   0.87233   0.00000  Uiso   1.00
H891   H     0.62335   0.77184   0.89180   0.00000  Uiso   1.00
H892   H     0.62245   0.81913   0.93247   0.00000  Uiso   1.00
O893   O     0.57651   0.79559   0.63779   0.00000  Uiso   1.00
C894   C     0.57267   0.84210   0.62897   0.00000  Uiso   1.00
H895   H     0.59774   0.85988   0.65837   0.00000  Uiso   1.00
H896   H     0.53175   0.85442   0.62816   0.00000  Uiso   1.00
H897   H     0.58752   0.85097   0.59539   0.00000  Uiso   1.00
O898   O     0.44327   0.68711   0.86362   0.00000  Uiso   1.00
C899   C     0.39165   0.68107   0.87385   0.00000  Uiso   1.00
H900   H     0.36699   0.66721   0.84174   0.00000  Uiso   1.00
H901   H     0.37331   0.71311   0.88277   0.00000  Uiso   1.00
H902   H     0.39118   0.65621   0.90290   0.00000  Uiso   1.00
C903   C     0.83242   0.66382   0.74989   0.00000  Uiso   1.00
C904   C     0.83254   0.83620   0.74985   0.00000  Uiso   1.00
C905   C     0.79341   0.72823   0.54735   0.00000  Uiso   1.00
C906   C     0.86071   0.78293   0.95091   0.00000  Uiso   1.00
C907   C     0.79525   0.72685   0.59732   0.00000  Uiso   1.00
C908   C     0.86231   0.78128   0.90146   0.00000  Uiso   1.00
C909   C     0.87122   0.77333   0.60746   0.00000  Uiso   1.00
C910   C     0.80410   0.71874   0.89346   0.00000  Uiso   1.00
C911   C     0.87295   0.77196   0.55801   0.00000  Uiso   1.00
C912   C     0.80575   0.71720   0.94356   0.00000  Uiso   1.00
C913   C     0.83318   0.75009   0.52667   0.00000  Uiso   1.00
C914   C     0.83318   0.75010   0.97321   0.00000  Uiso   1.00
C915   C     0.73371   0.74996   0.73756   0.00000  Uiso   1.00
C916   C     0.93296   0.75024   0.76244   0.00000  Uiso   1.00
C917   C     0.67867   0.74967   0.73085   0.00000  Uiso   1.00
C918   C     0.98799   0.75096   0.76911   0.00000  Uiso   1.00
C919   C     0.78941   0.54901   0.77938   0.00000  Uiso   1.00
C920   C     0.79258   0.95057   0.70693   0.00000  Uiso   1.00
C921   C     0.79821   0.59511   0.78164   0.00000  Uiso   1.00
C922   C     0.80109   0.90469   0.70748   0.00000  Uiso   1.00
C923   C     0.82603   0.61591   0.74886   0.00000  Uiso   1.00
C924   C     0.82633   0.88409   0.74891   0.00000  Uiso   1.00
C925   C     0.84535   0.59109   0.71372   0.00000  Uiso   1.00
C926   C     0.84317   0.90911   0.78993   0.00000  Uiso   1.00
C927   C     0.83876   0.54515   0.71253   0.00000  Uiso   1.00
C928   C     0.83638   0.95499   0.78908   0.00000  Uiso   1.00
C929   C     0.81172   0.52412   0.74571   0.00000  Uiso   1.00
C930   C     0.81178   0.97576   0.74757   0.00000  Uiso   1.00
H931   H     0.99141   0.74811   0.69457   0.00000  Uiso   1.00
H932   H     0.67527   0.75270   0.80536   0.00000  Uiso   1.00
H933   H     0.78312   0.61460   0.80863   0.00000  Uiso   1.00
H934   H     0.78723   0.88525   0.67585   0.00000  Uiso   1.00
H935   H     0.86676   0.60707   0.68817   0.00000  Uiso   1.00
H936   H     0.86263   0.89336   0.82212   0.00000  Uiso   1.00
H937   H     0.85620   0.52580   0.68676   0.00000  Uiso   1.00
H938   H     0.85175   0.97451   0.82027   0.00000  Uiso   1.00
H939   H     0.76044   0.71258   0.52530   0.00000  Uiso   1.00
H940   H     0.88070   0.81024   0.97118   0.00000  Uiso   1.00
H941   H     0.90583   0.78771   0.54481   0.00000  Uiso   1.00
H942   H     0.78630   0.68989   0.95895   0.00000  Uiso   1.00
N943   N     0.83333   0.74999   0.62624   0.00000  Uiso   1.00
N944   N     0.83333   0.75001   0.87377   0.00000  Uiso   1.00
O945   O     0.83334   0.68453   0.78974   0.00000  Uiso   1.00
O946   O     0.83333   0.81546   0.71026   0.00000  Uiso   1.00
O947   O     0.83334   0.68453   0.71026   0.00000  Uiso   1.00
O948   O     0.83333   0.81547   0.78974   0.00000  Uiso   1.00
O949   O     0.75725   0.75000   0.78044   0.00000  Uiso   1.00
O950   O     0.90942   0.75000   0.71956   0.00000  Uiso   1.00
O951   O     0.75725   0.74999   0.70096   0.00000  Uiso   1.00
O952   O     0.90942   0.75000   0.79904   0.00000  Uiso   1.00
Zn953  Zn    0.83333   0.75000   0.80307   0.00000  Uiso   1.00
Zn954  Zn    0.83333   0.74999   0.69693   0.00000  Uiso   1.00
O955   O     0.76312   0.52740   0.81211   0.00000  Uiso   1.00
C956   C     0.71007   0.54090   0.80528   0.00000  Uiso   1.00
H957   H     0.69168   0.53810   0.76733   0.00000  Uiso   1.00
H958   H     0.70612   0.57557   0.81852   0.00000  Uiso   1.00
H959   H     0.68785   0.51835   0.82624   0.00000  Uiso   1.00
O960   O     0.76865   0.97110   0.66578   0.00000  Uiso   1.00
C961   C     0.71384   0.96943   0.66535   0.00000  Uiso   1.00
H962   H     0.70236   0.98723   0.69661   0.00000  Uiso   1.00
H963   H     0.69908   0.93421   0.66405   0.00000  Uiso   1.00
H964   H     0.69446   0.98669   0.63287   0.00000  Uiso   1.00
O965   O     0.75654   0.70485   0.61739   0.00000  Uiso   1.00
C966   C     0.75972   0.65834   0.60942   0.00000  Uiso   1.00
H967   H     0.73526   0.64063   0.63266   0.00000  Uiso   1.00
H968   H     0.80063   0.64569   0.61873   0.00000  Uiso   1.00
H969   H     0.74378   0.64972   0.57200   0.00000  Uiso   1.00
O970   O     0.89016   0.81310   0.87996   0.00000  Uiso   1.00
C971   C     0.94444   0.80731   0.89528   0.00000  Uiso   1.00
H972   H     0.96642   0.82798   0.87233   0.00000  Uiso   1.00
H973   H     0.95668   0.77184   0.89180   0.00000  Uiso   1.00
H974   H     0.95578   0.81913   0.93247   0.00000  Uiso   1.00
O975   O     0.90985   0.79559   0.63779   0.00000  Uiso   1.00
C976   C     0.90600   0.84210   0.62897   0.00000  Uiso   1.00
H977   H     0.93107   0.85988   0.65837   0.00000  Uiso   1.00
H978   H     0.86508   0.85442   0.62816   0.00000  Uiso   1.00
H979   H     0.92085   0.85097   0.59539   0.00000  Uiso   1.00
O980   O     0.77660   0.68711   0.86362   0.00000  Uiso   1.00
C981   C     0.72498   0.68107   0.87385   0.00000  Uiso   1.00
H982   H     0.70033   0.66721   0.84174   0.00000  Uiso   1.00
H983   H     0.70664   0.71311   0.88277   0.00000  Uiso   1.00
H984   H     0.72452   0.65621   0.90290   0.00000  Uiso   1.00
loop_
_geom_bond_atom_site_label_1
_geom_bond_atom_site_label_2
_geom_bond_distance
_geom_bond_site_symmetry_2
_ccdc_geom_bond_type
C1     C21     1.437   .     S
C1     O43     1.288   .     A
C1     O45     1.287   .     A
C2     O46     1.289   .     A
C2     O44     1.288   .     A
C2     C22     1.438   .     S
C3     C5      1.415   .     A
C3     C11     1.410   .     A
C3     H37     1.080   .     S
C4     C12     1.409   .     A
C4     C6      1.413   .     A
C4     H38     1.080   .     S
C5     O63     1.382   .     S
C5     N41     1.365   .     A
C6     O68     1.382   .     S
C6     N42     1.365   .     A
C7     O73     1.382   .     S
C7     C9      1.414   .     A
C7     N41     1.366   .     A
C8     N42     1.366   .     A
C8     O78     1.387   .     S
C8     C10     1.419   .     A
C9     H39     1.080   .     S
C9     C11     1.409   .     A
C10    H40     1.079   .     S
C10    C12     1.410   .     A
C11    C504    1.520   1_554 S
C12    C503    1.520   .     S
C13    O49     1.280   .     A
C13    C15     1.401   .     S
C13    O47     1.278   .     A
C14    O48     1.277   .     A
C14    C16     1.401   .     S
C14    O50     1.280   .     A
C15    C180    1.329   1_455 S
C15    H193    1.088   1_455 S
C16    C97     1.329   .     S
C16    H112    1.087   .     S
C17    C27     1.403   .     A
C17    O53     1.386   .     S
C17    C19     1.392   .     A
C18    O58     1.382   .     S
C18    C28     1.404   .     A
C18    C20     1.387   .     A
C19    H31     1.082   .     S
C19    C21     1.399   .     A
C20    C22     1.400   .     A
C20    H32     1.084   .     S
C21    C23     1.396   .     A
C22    C24     1.397   .     A
C23    H33     1.084   .     S
C23    C25     1.379   .     A
C24    H34     1.083   .     S
C24    C26     1.380   .     A
C25    H35     1.084   .     S
C25    C27     1.399   .     A
C26    H36     1.084   .     S
C26    C28     1.399   .     A
C27    C274    1.443   1_545 S
C28    C273    1.443   .     S
H29    C97     1.088   .     S
H30    C180    1.087   1_455 S
N41    Zn52    2.010   .     S
N42    Zn51    2.010   .     S
O43    Zn51    1.990   .     S
O44    Zn52    1.990   .     S
O45    Zn52    1.988   .     S
O46    Zn51    1.988   .     S
O47    Zn51    1.967   .     S
O48    Zn52    1.967   .     S
O49    Zn52    1.978   .     S
O50    Zn51    1.978   .     S
O53    C54     1.411   .     S
C54    H56     1.111   .     S
C54    H55     1.114   .     S
C54    H57     1.109   .     S
O58    C59     1.410   .     S
C59    H60     1.114   .     S
C59    H61     1.114   .     S
C59    H62     1.109   .     S
O63    C64     1.411   .     S
C64    H67     1.111   .     S
C64    H66     1.114   .     S
C64    H65     1.109   .     S
O68    C69     1.411   .     S
C69    H71     1.115   .     S
C69    H72     1.111   .     S
C69    H70     1.109   .     S
O73    C74     1.411   .     S
C74    H76     1.114   .     S
C74    H77     1.111   .     S
C74    H75     1.109   .     S
O78    C79     1.412   .     S
C79    H81     1.115   .     S
C79    H82     1.110   .     S
C79    H80     1.110   .     S
C83    C103    1.437   .     S
C83    O125    1.288   .     A
C83    O127    1.287   .     A
C84    O128    1.289   .     A
C84    O126    1.288   .     A
C84    C104    1.438   .     S
C85    C87     1.415   .     A
C85    C93     1.410   .     A
C85    H119    1.080   .     S
C86    C94     1.409   .     A
C86    C88     1.413   .     A
C86    H120    1.080   .     S
C87    O145    1.382   .     S
C87    N123    1.365   .     A
C88    O150    1.382   .     S
C88    N124    1.365   .     A
C89    O155    1.382   .     S
C89    C91     1.414   .     A
C89    N123    1.366   .     A
C90    N124    1.366   .     A
C90    O160    1.387   .     S
C90    C92     1.419   .     A
C91    H121    1.080   .     S
C91    C93     1.409   .     A
C92    H122    1.079   .     S
C92    C94     1.410   .     A
C93    C586    1.520   1_554 S
C94    C585    1.520   .     S
C95    O131    1.280   .     A
C95    C97     1.401   .     S
C95    O129    1.278   .     A
C96    O130    1.277   .     A
C96    C98     1.401   .     S
C96    O132    1.280   .     A
C98    C179    1.329   .     S
C98    H194    1.087   .     S
C99    C109    1.403   .     A
C99    O135    1.386   .     S
C99    C101    1.392   .     A
C100   O140    1.382   .     S
C100   C110    1.404   .     A
C100   C102    1.387   .     A
C101   H113    1.082   .     S
C101   C103    1.399   .     A
C102   C104    1.400   .     A
C102   H114    1.084   .     S
C103   C105    1.396   .     A
C104   C106    1.397   .     A
C105   H115    1.084   .     S
C105   C107    1.379   .     A
C106   H116    1.083   .     S
C106   C108    1.380   .     A
C107   H117    1.084   .     S
C107   C109    1.399   .     A
C108   H118    1.084   .     S
C108   C110    1.399   .     A
C109   C356    1.443   1_545 S
C110   C355    1.443   .     S
H111   C179    1.088   .     S
N123   Zn134   2.010   .     S
N124   Zn133   2.010   .     S
O125   Zn133   1.990   .     S
O126   Zn134   1.990   .     S
O127   Zn134   1.988   .     S
O128   Zn133   1.988   .     S
O129   Zn133   1.967   .     S
O130   Zn134   1.967   .     S
O131   Zn134   1.978   .     S
O132   Zn133   1.978   .     S
O135   C136    1.411   .     S
C136   H138    1.111   .     S
C136   H137    1.114   .     S
C136   H139    1.109   .     S
O140   C141    1.410   .     S
C141   H142    1.114   .     S
C141   H143    1.114   .     S
C141   H144    1.109   .     S
O145   C146    1.411   .     S
C146   H149    1.111   .     S
C146   H148    1.114   .     S
C146   H147    1.109   .     S
O150   C151    1.411   .     S
C151   H153    1.115   .     S
C151   H154    1.111   .     S
C151   H152    1.109   .     S
O155   C156    1.411   .     S
C156   H158    1.114   .     S
C156   H159    1.111   .     S
C156   H157    1.109   .     S
O160   C161    1.412   .     S
C161   H163    1.115   .     S
C161   H164    1.110   .     S
C161   H162    1.110   .     S
C165   C185    1.437   .     S
C165   O207    1.288   .     A
C165   O209    1.287   .     A
C166   O210    1.289   .     A
C166   O208    1.288   .     A
C166   C186    1.438   .     S
C167   C169    1.415   .     A
C167   C175    1.410   .     A
C167   H201    1.080   .     S
C168   C176    1.409   .     A
C168   C170    1.413   .     A
C168   H202    1.080   .     S
C169   O227    1.382   .     S
C169   N205    1.365   .     A
C170   O232    1.382   .     S
C170   N206    1.365   .     A
C171   O237    1.382   .     S
C171   C173    1.414   .     A
C171   N205    1.366   .     A
C172   N206    1.366   .     A
C172   O242    1.387   .     S
C172   C174    1.419   .     A
C173   H203    1.080   .     S
C173   C175    1.409   .     A
C174   H204    1.079   .     S
C174   C176    1.410   .     A
C175   C668    1.520   1_554 S
C176   C667    1.520   .     S
C177   O213    1.280   .     A
C177   C179    1.401   .     S
C177   O211    1.278   .     A
C178   O212    1.277   .     A
C178   C180    1.401   .     S
C178   O214    1.280   .     A
C180   C15     1.329   1_655 S
C180   H30     1.087   1_655 S
C181   C191    1.403   .     A
C181   O217    1.386   .     S
C181   C183    1.392   .     A
C182   O222    1.382   .     S
C182   C192    1.404   .     A
C182   C184    1.387   .     A
C183   H195    1.082   .     S
C183   C185    1.399   .     A
C184   C186    1.400   .     A
C184   H196    1.084   .     S
C185   C187    1.396   .     A
C186   C188    1.397   .     A
C187   H197    1.084   .     S
C187   C189    1.379   .     A
C188   H198    1.083   .     S
C188   C190    1.380   .     A
C189   H199    1.084   .     S
C189   C191    1.399   .     A
C190   H200    1.084   .     S
C190   C192    1.399   .     A
C191   C438    1.443   1_545 S
C192   C437    1.443   .     S
H193   C15     1.088   1_655 S
N205   Zn216   2.010   .     S
N206   Zn215   2.010   .     S
O207   Zn215   1.990   .     S
O208   Zn216   1.990   .     S
O209   Zn216   1.988   .     S
O210   Zn215   1.988   .     S
O211   Zn215   1.967   .     S
O212   Zn216   1.967   .     S
O213   Zn216   1.978   .     S
O214   Zn215   1.978   .     S
O217   C218    1.411   .     S
C218   H220    1.111   .     S
C218   H219    1.114   .     S
C218   H221    1.109   .     S
O222   C223    1.410   .     S
C223   H224    1.114   .     S
C223   H225    1.114   .     S
C223   H226    1.109   .     S
O227   C228    1.411   .     S
C228   H231    1.111   .     S
C228   H230    1.114   .     S
C228   H229    1.109   .     S
O232   C233    1.411   .     S
C233   H235    1.115   .     S
C233   H236    1.111   .     S
C233   H234    1.109   .     S
O237   C238    1.411   .     S
C238   H240    1.114   .     S
C238   H241    1.111   .     S
C238   H239    1.109   .     S
O242   C243    1.412   .     S
C243   H245    1.115   .     S
C243   H246    1.110   .     S
C243   H244    1.110   .     S
C247   C267    1.437   .     S
C247   O289    1.288   .     A
C247   O291    1.287   .     A
C248   O292    1.289   .     A
C248   O290    1.288   .     A
C248   C268    1.438   .     S
C249   C251    1.415   .     A
C249   C257    1.410   .     A
C249   H283    1.080   .     S
C250   C258    1.409   .     A
C250   C252    1.413   .     A
C250   H284    1.080   .     S
C251   O309    1.382   .     S
C251   N287    1.365   .     A
C252   O314    1.382   .     S
C252   N288    1.365   .     A
C253   O319    1.382   .     S
C253   C255    1.414   .     A
C253   N287    1.366   .     A
C254   N288    1.366   .     A
C254   O324    1.387   .     S
C254   C256    1.419   .     A
C255   H285    1.080   .     S
C255   C257    1.409   .     A
C256   H286    1.079   .     S
C256   C258    1.410   .     A
C257   C750    1.520   1_554 S
C258   C749    1.520   .     S
C259   O295    1.280   .     A
C259   C261    1.401   .     S
C259   O293    1.278   .     A
C260   O294    1.277   .     A
C260   C262    1.401   .     S
C260   O296    1.280   .     A
C261   C426    1.329   1_455 S
C261   H439    1.088   1_455 S
C262   C343    1.329   .     S
C262   H358    1.087   .     S
C263   C273    1.403   .     A
C263   O299    1.386   .     S
C263   C265    1.392   .     A
C264   O304    1.382   .     S
C264   C274    1.404   .     A
C264   C266    1.387   .     A
C265   H277    1.082   .     S
C265   C267    1.399   .     A
C266   C268    1.400   .     A
C266   H278    1.084   .     S
C267   C269    1.396   .     A
C268   C270    1.397   .     A
C269   H279    1.084   .     S
C269   C271    1.379   .     A
C270   H280    1.083   .     S
C270   C272    1.380   .     A
C271   H281    1.084   .     S
C271   C273    1.399   .     A
C272   H282    1.084   .     S
C272   C274    1.399   .     A
C274   C27     1.443   1_565 S
H275   C343    1.088   .     S
H276   C426    1.087   1_455 S
N287   Zn298   2.010   .     S
N288   Zn297   2.010   .     S
O289   Zn297   1.990   .     S
O290   Zn298   1.990   .     S
O291   Zn298   1.988   .     S
O292   Zn297   1.988   .     S
O293   Zn297   1.967   .     S
O294   Zn298   1.967   .     S
O295   Zn298   1.978   .     S
O296   Zn297   1.978   .     S
O299   C300    1.411   .     S
C300   H302    1.111   .     S
C300   H301    1.114   .     S
C300   H303    1.109   .     S
O304   C305    1.410   .     S
C305   H306    1.114   .     S
C305   H307    1.114   .     S
C305   H308    1.109   .     S
O309   C310    1.411   .     S
C310   H313    1.111   .     S
C310   H312    1.114   .     S
C310   H311    1.109   .     S
O314   C315    1.411   .     S
C315   H317    1.115   .     S
C315   H318    1.111   .     S
C315   H316    1.109   .     S
O319   C320    1.411   .     S
C320   H322    1.114   .     S
C320   H323    1.111   .     S
C320   H321    1.109   .     S
O324   C325    1.412   .     S
C325   H327    1.115   .     S
C325   H328    1.110   .     S
C325   H326    1.110   .     S
C329   C349    1.437   .     S
C329   O371    1.288   .     A
C329   O373    1.287   .     A
C330   O374    1.289   .     A
C330   O372    1.288   .     A
C330   C350    1.438   .     S
C331   C333    1.415   .     A
C331   C339    1.410   .     A
C331   H365    1.080   .     S
C332   C340    1.409   .     A
C332   C334    1.413   .     A
C332   H366    1.080   .     S
C333   O391    1.382   .     S
C333   N369    1.365   .     A
C334   O396    1.382   .     S
C334   N370    1.365   .     A
C335   O401    1.382   .     S
C335   C337    1.414   .     A
C335   N369    1.366   .     A
C336   N370    1.366   .     A
C336   O406    1.387   .     S
C336   C338    1.419   .     A
C337   H367    1.080   .     S
C337   C339    1.409   .     A
C338   H368    1.079   .     S
C338   C340    1.410   .     A
C339   C832    1.520   1_554 S
C340   C831    1.520   .     S
C341   O377    1.280   .     A
C341   C343    1.401   .     S
C341   O375    1.278   .     A
C342   O376    1.277   .     A
C342   C344    1.401   .     S
C342   O378    1.280   .     A
C344   C425    1.329   .     S
C344   H440    1.087   .     S
C345   C355    1.403   .     A
C345   O381    1.386   .     S
C345   C347    1.392   .     A
C346   O386    1.382   .     S
C346   C356    1.404   .     A
C346   C348    1.387   .     A
C347   H359    1.082   .     S
C347   C349    1.399   .     A
C348   C350    1.400   .     A
C348   H360    1.084   .     S
C349   C351    1.396   .     A
C350   C352    1.397   .     A
C351   H361    1.084   .     S
C351   C353    1.379   .     A
C352   H362    1.083   .     S
C352   C354    1.380   .     A
C353   H363    1.084   .     S
C353   C355    1.399   .     A
C354   H364    1.084   .     S
C354   C356    1.399   .     A
C356   C109    1.443   1_565 S
H357   C425    1.088   .     S
N369   Zn380   2.010   .     S
N370   Zn379   2.010   .     S
O371   Zn379   1.990   .     S
O372   Zn380   1.990   .     S
O373   Zn380   1.988   .     S
O374   Zn379   1.988   .     S
O375   Zn379   1.967   .     S
O376   Zn380   1.967   .     S
O377   Zn380   1.978   .     S
O378   Zn379   1.978   .     S
O381   C382    1.411   .     S
C382   H384    1.111   .     S
C382   H383    1.114   .     S
C382   H385    1.109   .     S
O386   C387    1.410   .     S
C387   H388    1.114   .     S
C387   H389    1.114   .     S
C387   H390    1.109   .     S
O391   C392    1.411   .     S
C392   H395    1.111   .     S
C392   H394    1.114   .     S
C392   H393    1.109   .     S
O396   C397    1.411   .     S
C397   H399    1.115   .     S
C397   H400    1.111   .     S
C397   H398    1.109   .     S
O401   C402    1.411   .     S
C402   H404    1.114   .     S
C402   H405    1.111   .     S
C402   H403    1.109   .     S
O406   C407    1.412   .     S
C407   H409    1.115   .     S
C407   H410    1.110   .     S
C407   H408    1.110   .     S
C411   C431    1.437   .     S
C411   O453    1.288   .     A
C411   O455    1.287   .     A
C412   O456    1.289   .     A
C412   O454    1.288   .     A
C412   C432    1.438   .     S
C413   C415    1.415   .     A
C413   C421    1.410   .     A
C413   H447    1.080   .     S
C414   C422    1.409   .     A
C414   C416    1.413   .     A
C414   H448    1.080   .     S
C415   O473    1.382   .     S
C415   N451    1.365   .     A
C416   O478    1.382   .     S
C416   N452    1.365   .     A
C417   O483    1.382   .     S
C417   C419    1.414   .     A
C417   N451    1.366   .     A
C418   N452    1.366   .     A
C418   O488    1.387   .     S
C418   C420    1.419   .     A
C419   H449    1.080   .     S
C419   C421    1.409   .     A
C420   H450    1.079   .     S
C420   C422    1.410   .     A
C421   C914    1.520   1_554 S
C422   C913    1.520   .     S
C423   O459    1.280   .     A
C423   C425    1.401   .     S
C423   O457    1.278   .     A
C424   O458    1.277   .     A
C424   C426    1.401   .     S
C424   O460    1.280   .     A
C426   C261    1.329   1_655 S
C426   H276    1.087   1_655 S
C427   C437    1.403   .     A
C427   O463    1.386   .     S
C427   C429    1.392   .     A
C428   O468    1.382   .     S
C428   C438    1.404   .     A
C428   C430    1.387   .     A
C429   H441    1.082   .     S
C429   C431    1.399   .     A
C430   C432    1.400   .     A
C430   H442    1.084   .     S
C431   C433    1.396   .     A
C432   C434    1.397   .     A
C433   H443    1.084   .     S
C433   C435    1.379   .     A
C434   H444    1.083   .     S
C434   C436    1.380   .     A
C435   H445    1.084   .     S
C435   C437    1.399   .     A
C436   H446    1.084   .     S
C436   C438    1.399   .     A
C438   C191    1.443   1_565 S
H439   C261    1.088   1_655 S
N451   Zn462   2.010   .     S
N452   Zn461   2.010   .     S
O453   Zn461   1.990   .     S
O454   Zn462   1.990   .     S
O455   Zn462   1.988   .     S
O456   Zn461   1.988   .     S
O457   Zn461   1.967   .     S
O458   Zn462   1.967   .     S
O459   Zn462   1.978   .     S
O460   Zn461   1.978   .     S
O463   C464    1.411   .     S
C464   H466    1.111   .     S
C464   H465    1.114   .     S
C464   H467    1.109   .     S
O468   C469    1.410   .     S
C469   H470    1.114   .     S
C469   H471    1.114   .     S
C469   H472    1.109   .     S
O473   C474    1.411   .     S
C474   H477    1.111   .     S
C474   H476    1.114   .     S
C474   H475    1.109   .     S
O478   C479    1.411   .     S
C479   H481    1.115   .     S
C479   H482    1.111   .     S
C479   H480    1.109   .     S
O483   C484    1.411   .     S
C484   H486    1.114   .     S
C484   H487    1.111   .     S
C484   H485    1.109   .     S
O488   C489    1.412   .     S
C489   H491    1.115   .     S
C489   H492    1.110   .     S
C489   H490    1.110   .     S
C493   C513    1.437   .     S
C493   O535    1.288   .     A
C493   O537    1.287   .     A
C494   O538    1.289   .     A
C494   O536    1.288   .     A
C494   C514    1.438   .     S
C495   C497    1.415   .     A
C495   C503    1.410   .     A
C495   H529    1.080   .     S
C496   C504    1.409   .     A
C496   C498    1.413   .     A
C496   H530    1.080   .     S
C497   O555    1.382   .     S
C497   N533    1.365   .     A
C498   O560    1.382   .     S
C498   N534    1.365   .     A
C499   O565    1.382   .     S
C499   C501    1.414   .     A
C499   N533    1.366   .     A
C500   N534    1.366   .     A
C500   O570    1.387   .     S
C500   C502    1.419   .     A
C501   H531    1.080   .     S
C501   C503    1.409   .     A
C502   H532    1.079   .     S
C502   C504    1.410   .     A
C504   C11     1.520   1_556 S
C505   O541    1.280   .     A
C505   C507    1.401   .     S
C505   O539    1.278   .     A
C506   O540    1.277   .     A
C506   C508    1.401   .     S
C506   O542    1.280   .     A
C507   C672    1.329   1_455 S
C507   H685    1.088   1_455 S
C508   C589    1.329   .     S
C508   H604    1.087   .     S
C509   C519    1.403   .     A
C509   O545    1.386   .     S
C509   C511    1.392   .     A
C510   O550    1.382   .     S
C510   C520    1.404   .     A
C510   C512    1.387   .     A
C511   H523    1.082   .     S
C511   C513    1.399   .     A
C512   C514    1.400   .     A
C512   H524    1.084   .     S
C513   C515    1.396   .     A
C514   C516    1.397   .     A
C515   H525    1.084   .     S
C515   C517    1.379   .     A
C516   H526    1.083   .     S
C516   C518    1.380   .     A
C517   H527    1.084   .     S
C517   C519    1.399   .     A
C518   H528    1.084   .     S
C518   C520    1.399   .     A
C519   C766    1.443   1_545 S
C520   C765    1.443   .     S
H521   C589    1.088   .     S
H522   C672    1.087   1_455 S
N533   Zn544   2.010   .     S
N534   Zn543   2.010   .     S
O535   Zn543   1.990   .     S
O536   Zn544   1.990   .     S
O537   Zn544   1.988   .     S
O538   Zn543   1.988   .     S
O539   Zn543   1.967   .     S
O540   Zn544   1.967   .     S
O541   Zn544   1.978   .     S
O542   Zn543   1.978   .     S
O545   C546    1.411   .     S
C546   H548    1.111   .     S
C546   H547    1.114   .     S
C546   H549    1.109   .     S
O550   C551    1.410   .     S
C551   H552    1.114   .     S
C551   H553    1.114   .     S
C551   H554    1.109   .     S
O555   C556    1.411   .     S
C556   H559    1.111   .     S
C556   H558    1.114   .     S
C556   H557    1.109   .     S
O560   C561    1.411   .     S
C561   H563    1.115   .     S
C561   H564    1.111   .     S
C561   H562    1.109   .     S
O565   C566    1.411   .     S
C566   H568    1.114   .     S
C566   H569    1.111   .     S
C566   H567    1.109   .     S
O570   C571    1.412   .     S
C571   H573    1.115   .     S
C571   H574    1.110   .     S
C571   H572    1.110   .     S
C575   C595    1.437   .     S
C575   O617    1.288   .     A
C575   O619    1.287   .     A
C576   O620    1.289   .     A
C576   O618    1.288   .     A
C576   C596    1.438   .     S
C577   C579    1.415   .     A
C577   C585    1.410   .     A
C577   H611    1.080   .     S
C578   C586    1.409   .     A
C578   C580    1.413   .     A
C578   H612    1.080   .     S
C579   O637    1.382   .     S
C579   N615    1.365   .     A
C580   O642    1.382   .     S
C580   N616    1.365   .     A
C581   O647    1.382   .     S
C581   C583    1.414   .     A
C581   N615    1.366   .     A
C582   N616    1.366   .     A
C582   O652    1.387   .     S
C582   C584    1.419   .     A
C583   H613    1.080   .     S
C583   C585    1.409   .     A
C584   H614    1.079   .     S
C584   C586    1.410   .     A
C586   C93     1.520   1_556 S
C587   O623    1.280   .     A
C587   C589    1.401   .     S
C587   O621    1.278   .     A
C588   O622    1.277   .     A
C588   C590    1.401   .     S
C588   O624    1.280   .     A
C590   C671    1.329   .     S
C590   H686    1.087   .     S
C591   C601    1.403   .     A
C591   O627    1.386   .     S
C591   C593    1.392   .     A
C592   O632    1.382   .     S
C592   C602    1.404   .     A
C592   C594    1.387   .     A
C593   H605    1.082   .     S
C593   C595    1.399   .     A
C594   C596    1.400   .     A
C594   H606    1.084   .     S
C595   C597    1.396   .     A
C596   C598    1.397   .     A
C597   H607    1.084   .     S
C597   C599    1.379   .     A
C598   H608    1.083   .     S
C598   C600    1.380   .     A
C599   H609    1.084   .     S
C599   C601    1.399   .     A
C600   H610    1.084   .     S
C600   C602    1.399   .     A
C601   C848    1.443   1_545 S
C602   C847    1.443   .     S
H603   C671    1.088   .     S
N615   Zn626   2.010   .     S
N616   Zn625   2.010   .     S
O617   Zn625   1.990   .     S
O618   Zn626   1.990   .     S
O619   Zn626   1.988   .     S
O620   Zn625   1.988   .     S
O621   Zn625   1.967   .     S
O622   Zn626   1.967   .     S
O623   Zn626   1.978   .     S
O624   Zn625   1.978   .     S
O627   C628    1.411   .     S
C628   H630    1.111   .     S
C628   H629    1.114   .     S
C628   H631    1.109   .     S
O632   C633    1.410   .     S
C633   H634    1.114   .     S
C633   H635    1.114   .     S
C633   H636    1.109   .     S
O637   C638    1.411   .     S
C638   H641    1.111   .     S
C638   H640    1.114   .     S
C638   H639    1.109   .     S
O642   C643    1.411   .     S
C643   H645    1.115   .     S
C643   H646    1.111   .     S
C643   H644    1.109   .     S
O647   C648    1.411   .     S
C648   H650    1.114   .     S
C648   H651    1.111   .     S
C648   H649    1.109   .     S
O652   C653    1.412   .     S
C653   H655    1.115   .     S
C653   H656    1.110   .     S
C653   H654    1.110   .     S
C657   C677    1.437   .     S
C657   O699    1.288   .     A
C657   O701    1.287   .     A
C658   O702    1.289   .     A
C658   O700    1.288   .     A
C658   C678    1.438   .     S
C659   C661    1.415   .     A
C659   C667    1.410   .     A
C659   H693    1.080   .     S
C660   C668    1.409   .     A
C660   C662    1.413   .     A
C660   H694    1.080   .     S
C661   O719    1.382   .     S
C661   N697    1.365   .     A
C662   O724    1.382   .     S
C662   N698    1.365   .     A
C663   O729    1.382   .     S
C663   C665    1.414   .     A
C663   N697    1.366   .     A
C664   N698    1.366   .     A
C664   O734    1.387   .     S
C664   C666    1.419   .     A
C665   H695    1.080   .     S
C665   C667    1.409   .     A
C666   H696    1.079   .     S
C666   C668    1.410   .     A
C668   C175    1.520   1_556 S
C669   O705    1.280   .     A
C669   C671    1.401   .     S
C669   O703    1.278   .     A
C670   O704    1.277   .     A
C670   C672    1.401   .     S
C670   O706    1.280   .     A
C672   C507    1.329   1_655 S
C672   H522    1.087   1_655 S
C673   C683    1.403   .     A
C673   O709    1.386   .     S
C673   C675    1.392   .     A
C674   O714    1.382   .     S
C674   C684    1.404   .     A
C674   C676    1.387   .     A
C675   H687    1.082   .     S
C675   C677    1.399   .     A
C676   C678    1.400   .     A
C676   H688    1.084   .     S
C677   C679    1.396   .     A
C678   C680    1.397   .     A
C679   H689    1.084   .     S
C679   C681    1.379   .     A
C680   H690    1.083   .     S
C680   C682    1.380   .     A
C681   H691    1.084   .     S
C681   C683    1.399   .     A
C682   H692    1.084   .     S
C682   C684    1.399   .     A
C683   C930    1.443   1_545 S
C684   C929    1.443   .     S
H685   C507    1.088   1_655 S
N697   Zn708   2.010   .     S
N698   Zn707   2.010   .     S
O699   Zn707   1.990   .     S
O700   Zn708   1.990   .     S
O701   Zn708   1.988   .     S
O702   Zn707   1.988   .     S
O703   Zn707   1.967   .     S
O704   Zn708   1.967   .     S
O705   Zn708   1.978   .     S
O706   Zn707   1.978   .     S
O709   C710    1.411   .     S
C710   H712    1.111   .     S
C710   H711    1.114   .     S
C710   H713    1.109   .     S
O714   C715    1.410   .     S
C715   H716    1.114   .     S
C715   H717    1.114   .     S
C715   H718    1.109   .     S
O719   C720    1.411   .     S
C720   H723    1.111   .     S
C720   H722    1.114   .     S
C720   H721    1.109   .     S
O724   C725    1.411   .     S
C725   H727    1.115   .     S
C725   H728    1.111   .     S
C725   H726    1.109   .     S
O729   C730    1.411   .     S
C730   H732    1.114   .     S
C730   H733    1.111   .     S
C730   H731    1.109   .     S
O734   C735    1.412   .     S
C735   H737    1.115   .     S
C735   H738    1.110   .     S
C735   H736    1.110   .     S
C739   C759    1.437   .     S
C739   O781    1.288   .     A
C739   O783    1.287   .     A
C740   O784    1.289   .     A
C740   O782    1.288   .     A
C740   C760    1.438   .     S
C741   C743    1.415   .     A
C741   C749    1.410   .     A
C741   H775    1.080   .     S
C742   C750    1.409   .     A
C742   C744    1.413   .     A
C742   H776    1.080   .     S
C743   O801    1.382   .     S
C743   N779    1.365   .     A
C744   O806    1.382   .     S
C744   N780    1.365   .     A
C745   O811    1.382   .     S
C745   C747    1.414   .     A
C745   N779    1.366   .     A
C746   N780    1.366   .     A
C746   O816    1.387   .     S
C746   C748    1.419   .     A
C747   H777    1.080   .     S
C747   C749    1.409   .     A
C748   H778    1.079   .     S
C748   C750    1.410   .     A
C750   C257    1.520   1_556 S
C751   O787    1.280   .     A
C751   C753    1.401   .     S
C751   O785    1.278   .     A
C752   O786    1.277   .     A
C752   C754    1.401   .     S
C752   O788    1.280   .     A
C753   C918    1.329   1_455 S
C753   H931    1.088   1_455 S
C754   C835    1.329   .     S
C754   H850    1.087   .     S
C755   C765    1.403   .     A
C755   O791    1.386   .     S
C755   C757    1.392   .     A
C756   O796    1.382   .     S
C756   C766    1.404   .     A
C756   C758    1.387   .     A
C757   H769    1.082   .     S
C757   C759    1.399   .     A
C758   C760    1.400   .     A
C758   H770    1.084   .     S
C759   C761    1.396   .     A
C760   C762    1.397   .     A
C761   H771    1.084   .     S
C761   C763    1.379   .     A
C762   H772    1.083   .     S
C762   C764    1.380   .     A
C763   H773    1.084   .     S
C763   C765    1.399   .     A
C764   H774    1.084   .     S
C764   C766    1.399   .     A
C766   C519    1.443   1_565 S
H767   C835    1.088   .     S
H768   C918    1.087   1_455 S
N779   Zn790   2.010   .     S
N780   Zn789   2.010   .     S
O781   Zn789   1.990   .     S
O782   Zn790   1.990   .     S
O783   Zn790   1.988   .     S
O784   Zn789   1.988   .     S
O785   Zn789   1.967   .     S
O786   Zn790   1.967   .     S
O787   Zn790   1.978   .     S
O788   Zn789   1.978   .     S
O791   C792    1.411   .     S
C792   H794    1.111   .     S
C792   H793    1.114   .     S
C792   H795    1.109   .     S
O796   C797    1.410   .     S
C797   H798    1.114   .     S
C797   H799    1.114   .     S
C797   H800    1.109   .     S
O801   C802    1.411   .     S
C802   H805    1.111   .     S
C802   H804    1.114   .     S
C802   H803    1.109   .     S
O806   C807    1.411   .     S
C807   H809    1.115   .     S
C807   H810    1.111   .     S
C807   H808    1.109   .     S
O811   C812    1.411   .     S
C812   H814    1.114   .     S
C812   H815    1.111   .     S
C812   H813    1.109   .     S
O816   C817    1.412   .     S
C817   H819    1.115   .     S
C817   H820    1.110   .     S
C817   H818    1.110   .     S
C821   C841    1.437   .     S
C821   O863    1.288   .     A
C821   O865    1.287   .     A
C822   O866    1.289   .     A
C822   O864    1.288   .     A
C822   C842    1.438   .     S
C823   C825    1.415   .     A
C823   C831    1.410   .     A
C823   H857    1.080   .     S
C824   C832    1.409   .     A
C824   C826    1.413   .     A
C824   H858    1.080   .     S
C825   O883    1.382   .     S
C825   N861    1.365   .     A
C826   O888    1.382   .     S
C826   N862    1.365   .     A
C827   O893    1.382   .     S
C827   C829    1.414   .     A
C827   N861    1.366   .     A
C828   N862    1.366   .     A
C828   O898    1.387   .     S
C828   C830    1.419   .     A
C829   H859    1.080   .     S
C829   C831    1.409   .     A
C830   H860    1.079   .     S
C830   C832    1.410   .     A
C832   C339    1.520   1_556 S
C833   O869    1.280   .     A
C833   C835    1.401   .     S
C833   O867    1.278   .     A
C834   O868    1.277   .     A
C834   C836    1.401   .     S
C834   O870    1.280   .     A
C836   C917    1.329   .     S
C836   H932    1.087   .     S
C837   C847    1.403   .     A
C837   O873    1.386   .     S
C837   C839    1.392   .     A
C838   O878    1.382   .     S
C838   C848    1.404   .     A
C838   C840    1.387   .     A
C839   H851    1.082   .     S
C839   C841    1.399   .     A
C840   C842    1.400   .     A
C840   H852    1.084   .     S
C841   C843    1.396   .     A
C842   C844    1.397   .     A
C843   H853    1.084   .     S
C843   C845    1.379   .     A
C844   H854    1.083   .     S
C844   C846    1.380   .     A
C845   H855    1.084   .     S
C845   C847    1.399   .     A
C846   H856    1.084   .     S
C846   C848    1.399   .     A
C848   C601    1.443   1_565 S
H849   C917    1.088   .     S
N861   Zn872   2.010   .     S
N862   Zn871   2.010   .     S
O863   Zn871   1.990   .     S
O864   Zn872   1.990   .     S
O865   Zn872   1.988   .     S
O866   Zn871   1.988   .     S
O867   Zn871   1.967   .     S
O868   Zn872   1.967   .     S
O869   Zn872   1.978   .     S
O870   Zn871   1.978   .     S
O873   C874    1.411   .     S
C874   H876    1.111   .     S
C874   H875    1.114   .     S
C874   H877    1.109   .     S
O878   C879    1.410   .     S
C879   H880    1.114   .     S
C879   H881    1.114   .     S
C879   H882    1.109   .     S
O883   C884    1.411   .     S
C884   H887    1.111   .     S
C884   H886    1.114   .     S
C884   H885    1.109   .     S
O888   C889    1.411   .     S
C889   H891    1.115   .     S
C889   H892    1.111   .     S
C889   H890    1.109   .     S
O893   C894    1.411   .     S
C894   H896    1.114   .     S
C894   H897    1.111   .     S
C894   H895    1.109   .     S
O898   C899    1.412   .     S
C899   H901    1.115   .     S
C899   H902    1.110   .     S
C899   H900    1.110   .     S
C903   C923    1.437   .     S
C903   O945    1.288   .     A
C903   O947    1.287   .     A
C904   O948    1.289   .     A
C904   O946    1.288   .     A
C904   C924    1.438   .     S
C905   C907    1.415   .     A
C905   C913    1.410   .     A
C905   H939    1.080   .     S
C906   C914    1.409   .     A
C906   C908    1.413   .     A
C906   H940    1.080   .     S
C907   O965    1.382   .     S
C907   N943    1.365   .     A
C908   O970    1.382   .     S
C908   N944    1.365   .     A
C909   O975    1.382   .     S
C909   C911    1.414   .     A
C909   N943    1.366   .     A
C910   N944    1.366   .     A
C910   O980    1.387   .     S
C910   C912    1.419   .     A
C911   H941    1.080   .     S
C911   C913    1.409   .     A
C912   H942    1.079   .     S
C912   C914    1.410   .     A
C914   C421    1.520   1_556 S
C915   O951    1.280   .     A
C915   C917    1.401   .     S
C915   O949    1.278   .     A
C916   O950    1.277   .     A
C916   C918    1.401   .     S
C916   O952    1.280   .     A
C918   C753    1.329   1_655 S
C918   H768    1.087   1_655 S
C919   C929    1.403   .     A
C919   O955    1.386   .     S
C919   C921    1.392   .     A
C920   O960    1.382   .     S
C920   C930    1.404   .     A
C920   C922    1.387   .     A
C921   H933    1.082   .     S
C921   C923    1.399   .     A
C922   C924    1.400   .     A
C922   H934    1.084   .     S
C923   C925    1.396   .     A
C924   C926    1.397   .     A
C925   H935    1.084   .     S
C925   C927    1.379   .     A
C926   H936    1.083   .     S
C926   C928    1.380   .     A
C927   H937    1.084   .     S
C927   C929    1.399   .     A
C928   H938    1.084   .     S
C928   C930    1.399   .     A
C930   C683    1.443   1_565 S
H931   C753    1.088   1_655 S
N943   Zn954   2.010   .     S
N944   Zn953   2.010   .     S
O945   Zn953   1.990   .     S
O946   Zn954   1.990   .     S
O947   Zn954   1.988   .     S
O948   Zn953   1.988   .     S
O949   Zn953   1.967   .     S
O950   Zn954   1.967   .     S
O951   Zn954   1.978   .     S
O952   Zn953   1.978   .     S
O955   C956    1.411   .     S
C956   H958    1.111   .     S
C956   H957    1.114   .     S
C956   H959    1.109   .     S
O960   C961    1.410   .     S
C961   H962    1.114   .     S
C961   H963    1.114   .     S
C961   H964    1.109   .     S
O965   C966    1.411   .     S
C966   H969    1.111   .     S
C966   H968    1.114   .     S
C966   H967    1.109   .     S
O970   C971    1.411   .     S
C971   H973    1.115   .     S
C971   H974    1.111   .     S
C971   H972    1.109   .     S
O975   C976    1.411   .     S
C976   H978    1.114   .     S
C976   H979    1.111   .     S
C976   H977    1.109   .     S
O980   C981    1.412   .     S
C981   H983    1.115   .     S
C981   H984    1.110   .     S
C981   H982    1.110   .     S
