data_str_m3_o10_o17_pcu_sym.154
_audit_creation_date              2020-01-03
_audit_creation_method            'Materials Studio'
_symmetry_space_group_name_H-M    'P1'
_symmetry_Int_Tables_number       1
_symmetry_cell_setting            triclinic
loop_
_symmetry_equiv_pos_as_xyz
  x,y,z
_cell_length_a                    23.6041
_cell_length_b                    26.2804
_cell_length_c                    29.9369
_cell_angle_alpha                 93.3854
_cell_angle_beta                  84.8027
_cell_angle_gamma                 93.1443
loop_
_atom_site_label
_atom_site_type_symbol
_atom_site_fract_x
_atom_site_fract_y
_atom_site_fract_z
_atom_site_U_iso_or_equiv
_atom_site_adp_type
_atom_site_occupancy
C1     C     0.18141   0.26444   0.24851   0.00000  Uiso   1.00
C2     C     0.21092   0.18807   0.40425   0.00000  Uiso   1.00
C3     C     0.16701   0.17103   0.11605   0.00000  Uiso   1.00
C4     C     0.16632   0.16230   0.38395   0.00000  Uiso   1.00
C5     C     0.21168   0.19704   0.09109   0.00000  Uiso   1.00
C6     C     0.12166   0.13630   0.40891   0.00000  Uiso   1.00
C7     C     0.21192   0.19485   0.04416   0.00000  Uiso   1.00
C8     C     0.12142   0.13848   0.45584   0.00000  Uiso   1.00
C9     C     0.16670   0.16772   0.02341   0.00000  Uiso   1.00
C10    C     0.16664   0.16561   0.47659   0.00000  Uiso   1.00
C11    C     0.12139   0.14296   0.04950   0.00000  Uiso   1.00
C12    C     0.15192   0.06890   0.25149   0.00000  Uiso   1.00
C13    C     0.21194   0.19038   0.45050   0.00000  Uiso   1.00
C14    C     0.25586   0.21976   0.01767   0.00000  Uiso   1.00
C15    C     0.07747   0.11357   0.48233   0.00000  Uiso   1.00
C16    C     0.25636   0.22756   0.11439   0.00000  Uiso   1.00
C17    C     0.07697   0.10577   0.38561   0.00000  Uiso   1.00
C18    C     0.30576   0.24472   0.44460   0.00000  Uiso   1.00
C19    C     0.02757   0.08861   0.05540   0.00000  Uiso   1.00
C20    C     0.24858   0.00389   0.25668   0.00000  Uiso   1.00
C21    C     0.08475   0.32945   0.24332   0.00000  Uiso   1.00
C22    C     0.00359   0.10565   0.21723   0.00000  Uiso   1.00
C23    C     0.25677   0.21753   0.47115   0.00000  Uiso   1.00
C24    C     0.32974   0.22768   0.28277   0.00000  Uiso   1.00
C25    C     0.07656   0.11580   0.02885   0.00000  Uiso   1.00
C26    C     0.18926   0.31837   0.25049   0.00000  Uiso   1.00
C27    C     0.14407   0.01497   0.24951   0.00000  Uiso   1.00
C28    C     0.16650   0.16511   0.33625   0.00000  Uiso   1.00
C29    C     0.16683   0.16822   0.16375   0.00000  Uiso   1.00
C30    C     0.12242   0.14526   0.09575   0.00000  Uiso   1.00
H31    H     0.08925   0.12578   0.11664   0.00000  Uiso   1.00
H32    H     0.32961   0.06980   0.03339   0.00000  Uiso   1.00
H33    H     0.00449   0.11632   0.07879   0.00000  Uiso   1.00
H34    H     0.04390   0.05860   0.07473   0.00000  Uiso   1.00
H35    H     0.22961   0.02921   0.32095   0.00000  Uiso   1.00
H36    H     0.10372   0.30413   0.17905   0.00000  Uiso   1.00
H37    H     0.30461   0.08873   0.19533   0.00000  Uiso   1.00
H38    H     0.04306   0.11144   0.19536   0.00000  Uiso   1.00
H39    H     0.00843   0.07913   0.24362   0.00000  Uiso   1.00
H40    H     0.02872   0.24461   0.30467   0.00000  Uiso   1.00
H41    H     0.32490   0.25420   0.25638   0.00000  Uiso   1.00
H42    H     0.24409   0.20755   0.38336   0.00000  Uiso   1.00
H43    H     0.29027   0.22189   0.30464   0.00000  Uiso   1.00
H44    H     0.28998   0.24147   0.03293   0.00000  Uiso   1.00
H45    H     0.04335   0.09186   0.46707   0.00000  Uiso   1.00
H46    H     0.00601   0.23744   0.12563   0.00000  Uiso   1.00
H47    H     0.32732   0.09589   0.37437   0.00000  Uiso   1.00
H48    H     0.00373   0.26353   0.46661   0.00000  Uiso   1.00
H49    H     0.28944   0.27473   0.42527   0.00000  Uiso   1.00
H50    H     0.32885   0.21701   0.42121   0.00000  Uiso   1.00
N51    N     0.31678   0.15265   0.23783   0.00000  Uiso   1.00
N52    N     0.01656   0.18068   0.26217   0.00000  Uiso   1.00
O53    O     0.12975   0.24619   0.25299   0.00000  Uiso   1.00
O54    O     0.31318   0.21430   0.10745   0.00000  Uiso   1.00
O55    O     0.09032   0.06977   0.35977   0.00000  Uiso   1.00
O56    O     0.02016   0.11903   0.39255   0.00000  Uiso   1.00
O57    O     0.28508   0.33119   0.22558   0.00000  Uiso   1.00
O58    O     0.26331   0.02721   0.29751   0.00000  Uiso   1.00
O59    O     0.04825   0.00215   0.27442   0.00000  Uiso   1.00
O60    O     0.07002   0.30612   0.20249   0.00000  Uiso   1.00
O61    O     0.20358   0.08714   0.24701   0.00000  Uiso   1.00
O62    O     0.22613   0.23721   0.24519   0.00000  Uiso   1.00
O63    O     0.10720   0.09613   0.25482   0.00000  Uiso   1.00
O64    O     0.11847   0.17117   0.31998   0.00000  Uiso   1.00
O65    O     0.21486   0.16216   0.18003   0.00000  Uiso   1.00
O66    O     0.21485   0.16219   0.31218   0.00000  Uiso   1.00
O67    O     0.11848   0.17115   0.18783   0.00000  Uiso   1.00
O68    O     0.24302   0.26356   0.14023   0.00000  Uiso   1.00
Zn69   Zn    0.10231   0.17266   0.25521   0.00000  Uiso   1.00
Zn70   Zn    0.23102   0.16067   0.24479   0.00000  Uiso   1.00
C71    C     0.51474   0.26444   0.24851   0.00000  Uiso   1.00
C72    C     0.54425   0.18807   0.40425   0.00000  Uiso   1.00
C73    C     0.50034   0.17103   0.11605   0.00000  Uiso   1.00
C74    C     0.49966   0.16230   0.38395   0.00000  Uiso   1.00
C75    C     0.54501   0.19704   0.09109   0.00000  Uiso   1.00
C76    C     0.45499   0.13630   0.40891   0.00000  Uiso   1.00
C77    C     0.54525   0.19485   0.04416   0.00000  Uiso   1.00
C78    C     0.45475   0.13848   0.45584   0.00000  Uiso   1.00
C79    C     0.50003   0.16772   0.02341   0.00000  Uiso   1.00
C80    C     0.49997   0.16561   0.47659   0.00000  Uiso   1.00
C81    C     0.45472   0.14296   0.04950   0.00000  Uiso   1.00
C82    C     0.48526   0.06890   0.25149   0.00000  Uiso   1.00
C83    C     0.54528   0.19038   0.45050   0.00000  Uiso   1.00
C84    C     0.58920   0.21976   0.01767   0.00000  Uiso   1.00
C85    C     0.41080   0.11357   0.48233   0.00000  Uiso   1.00
C86    C     0.58970   0.22756   0.11439   0.00000  Uiso   1.00
C87    C     0.41030   0.10577   0.38561   0.00000  Uiso   1.00
C88    C     0.63909   0.24472   0.44460   0.00000  Uiso   1.00
C89    C     0.36091   0.08861   0.05540   0.00000  Uiso   1.00
C90    C     0.58192   0.00389   0.25668   0.00000  Uiso   1.00
C91    C     0.41808   0.32945   0.24332   0.00000  Uiso   1.00
C92    C     0.33692   0.10565   0.21723   0.00000  Uiso   1.00
C93    C     0.59010   0.21753   0.47115   0.00000  Uiso   1.00
C94    C     0.66308   0.22768   0.28277   0.00000  Uiso   1.00
C95    C     0.40990   0.11580   0.02885   0.00000  Uiso   1.00
C96    C     0.52259   0.31837   0.25049   0.00000  Uiso   1.00
C97    C     0.47741   0.01497   0.24951   0.00000  Uiso   1.00
C98    C     0.49984   0.16511   0.33625   0.00000  Uiso   1.00
C99    C     0.50016   0.16822   0.16375   0.00000  Uiso   1.00
C100   C     0.45575   0.14526   0.09575   0.00000  Uiso   1.00
H101   H     0.42258   0.12578   0.11664   0.00000  Uiso   1.00
H102   H     0.66294   0.06980   0.03339   0.00000  Uiso   1.00
H103   H     0.33782   0.11632   0.07879   0.00000  Uiso   1.00
H104   H     0.37723   0.05860   0.07473   0.00000  Uiso   1.00
H105   H     0.56294   0.02921   0.32095   0.00000  Uiso   1.00
H106   H     0.43706   0.30413   0.17905   0.00000  Uiso   1.00
H107   H     0.63795   0.08873   0.19533   0.00000  Uiso   1.00
H108   H     0.37640   0.11144   0.19536   0.00000  Uiso   1.00
H109   H     0.34176   0.07913   0.24362   0.00000  Uiso   1.00
H110   H     0.36205   0.24461   0.30467   0.00000  Uiso   1.00
H111   H     0.65824   0.25420   0.25638   0.00000  Uiso   1.00
H112   H     0.57742   0.20755   0.38336   0.00000  Uiso   1.00
H113   H     0.62360   0.22189   0.30464   0.00000  Uiso   1.00
H114   H     0.62332   0.24147   0.03293   0.00000  Uiso   1.00
H115   H     0.37668   0.09186   0.46707   0.00000  Uiso   1.00
H116   H     0.33934   0.23744   0.12563   0.00000  Uiso   1.00
H117   H     0.66066   0.09589   0.37437   0.00000  Uiso   1.00
H118   H     0.33706   0.26353   0.46661   0.00000  Uiso   1.00
H119   H     0.62277   0.27473   0.42527   0.00000  Uiso   1.00
H120   H     0.66218   0.21701   0.42121   0.00000  Uiso   1.00
N121   N     0.65011   0.15265   0.23783   0.00000  Uiso   1.00
N122   N     0.34989   0.18068   0.26217   0.00000  Uiso   1.00
O123   O     0.46308   0.24619   0.25299   0.00000  Uiso   1.00
O124   O     0.64651   0.21430   0.10745   0.00000  Uiso   1.00
O125   O     0.42365   0.06977   0.35977   0.00000  Uiso   1.00
O126   O     0.35349   0.11903   0.39255   0.00000  Uiso   1.00
O127   O     0.61841   0.33119   0.22558   0.00000  Uiso   1.00
O128   O     0.59664   0.02721   0.29751   0.00000  Uiso   1.00
O129   O     0.38159   0.00215   0.27442   0.00000  Uiso   1.00
O130   O     0.40336   0.30612   0.20249   0.00000  Uiso   1.00
O131   O     0.53692   0.08714   0.24701   0.00000  Uiso   1.00
O132   O     0.55946   0.23721   0.24519   0.00000  Uiso   1.00
O133   O     0.44054   0.09613   0.25482   0.00000  Uiso   1.00
O134   O     0.45181   0.17117   0.31998   0.00000  Uiso   1.00
O135   O     0.54819   0.16216   0.18003   0.00000  Uiso   1.00
O136   O     0.54819   0.16219   0.31218   0.00000  Uiso   1.00
O137   O     0.45181   0.17115   0.18783   0.00000  Uiso   1.00
O138   O     0.57635   0.26356   0.14023   0.00000  Uiso   1.00
Zn139  Zn    0.43565   0.17266   0.25521   0.00000  Uiso   1.00
Zn140  Zn    0.56435   0.16067   0.24479   0.00000  Uiso   1.00
C141   C     0.84808   0.26444   0.24851   0.00000  Uiso   1.00
C142   C     0.87759   0.18807   0.40425   0.00000  Uiso   1.00
C143   C     0.83368   0.17103   0.11605   0.00000  Uiso   1.00
C144   C     0.83299   0.16230   0.38395   0.00000  Uiso   1.00
C145   C     0.87834   0.19704   0.09109   0.00000  Uiso   1.00
C146   C     0.78832   0.13630   0.40891   0.00000  Uiso   1.00
C147   C     0.87859   0.19485   0.04416   0.00000  Uiso   1.00
C148   C     0.78808   0.13848   0.45584   0.00000  Uiso   1.00
C149   C     0.83336   0.16772   0.02341   0.00000  Uiso   1.00
C150   C     0.83330   0.16561   0.47659   0.00000  Uiso   1.00
C151   C     0.78806   0.14296   0.04950   0.00000  Uiso   1.00
C152   C     0.81859   0.06890   0.25149   0.00000  Uiso   1.00
C153   C     0.87861   0.19038   0.45050   0.00000  Uiso   1.00
C154   C     0.92253   0.21976   0.01767   0.00000  Uiso   1.00
C155   C     0.74414   0.11357   0.48233   0.00000  Uiso   1.00
C156   C     0.92303   0.22756   0.11439   0.00000  Uiso   1.00
C157   C     0.74364   0.10577   0.38561   0.00000  Uiso   1.00
C158   C     0.97243   0.24472   0.44460   0.00000  Uiso   1.00
C159   C     0.69424   0.08861   0.05540   0.00000  Uiso   1.00
C160   C     0.91525   0.00389   0.25668   0.00000  Uiso   1.00
C161   C     0.75142   0.32945   0.24332   0.00000  Uiso   1.00
C162   C     0.67026   0.10565   0.21723   0.00000  Uiso   1.00
C163   C     0.92344   0.21753   0.47115   0.00000  Uiso   1.00
C164   C     0.99641   0.22768   0.28277   0.00000  Uiso   1.00
C165   C     0.74323   0.11580   0.02885   0.00000  Uiso   1.00
C166   C     0.85593   0.31837   0.25049   0.00000  Uiso   1.00
C167   C     0.81074   0.01497   0.24951   0.00000  Uiso   1.00
C168   C     0.83317   0.16511   0.33625   0.00000  Uiso   1.00
C169   C     0.83350   0.16822   0.16375   0.00000  Uiso   1.00
C170   C     0.78908   0.14526   0.09575   0.00000  Uiso   1.00
H171   H     0.75591   0.12578   0.11664   0.00000  Uiso   1.00
H172   H     0.99627   0.06980   0.03339   0.00000  Uiso   1.00
H173   H     0.67115   0.11632   0.07879   0.00000  Uiso   1.00
H174   H     0.71056   0.05860   0.07473   0.00000  Uiso   1.00
H175   H     0.89628   0.02921   0.32095   0.00000  Uiso   1.00
H176   H     0.77039   0.30413   0.17905   0.00000  Uiso   1.00
H177   H     0.97128   0.08873   0.19533   0.00000  Uiso   1.00
H178   H     0.70973   0.11144   0.19536   0.00000  Uiso   1.00
H179   H     0.67510   0.07913   0.24362   0.00000  Uiso   1.00
H180   H     0.69539   0.24461   0.30467   0.00000  Uiso   1.00
H181   H     0.99157   0.25420   0.25638   0.00000  Uiso   1.00
H182   H     0.91075   0.20755   0.38336   0.00000  Uiso   1.00
H183   H     0.95694   0.22189   0.30464   0.00000  Uiso   1.00
H184   H     0.95665   0.24147   0.03293   0.00000  Uiso   1.00
H185   H     0.71002   0.09186   0.46707   0.00000  Uiso   1.00
H186   H     0.67268   0.23744   0.12563   0.00000  Uiso   1.00
H187   H     0.99399   0.09589   0.37437   0.00000  Uiso   1.00
H188   H     0.67039   0.26353   0.46661   0.00000  Uiso   1.00
H189   H     0.95610   0.27473   0.42527   0.00000  Uiso   1.00
H190   H     0.99551   0.21701   0.42121   0.00000  Uiso   1.00
N191   N     0.98344   0.15265   0.23783   0.00000  Uiso   1.00
N192   N     0.68322   0.18068   0.26217   0.00000  Uiso   1.00
O193   O     0.79642   0.24619   0.25299   0.00000  Uiso   1.00
O194   O     0.97984   0.21430   0.10745   0.00000  Uiso   1.00
O195   O     0.75698   0.06977   0.35977   0.00000  Uiso   1.00
O196   O     0.68682   0.11903   0.39255   0.00000  Uiso   1.00
O197   O     0.95175   0.33119   0.22558   0.00000  Uiso   1.00
O198   O     0.92998   0.02721   0.29751   0.00000  Uiso   1.00
O199   O     0.71492   0.00215   0.27442   0.00000  Uiso   1.00
O200   O     0.73669   0.30612   0.20249   0.00000  Uiso   1.00
O201   O     0.87025   0.08714   0.24701   0.00000  Uiso   1.00
O202   O     0.89280   0.23721   0.24519   0.00000  Uiso   1.00
O203   O     0.77387   0.09613   0.25482   0.00000  Uiso   1.00
O204   O     0.78514   0.17117   0.31998   0.00000  Uiso   1.00
O205   O     0.88153   0.16216   0.18003   0.00000  Uiso   1.00
O206   O     0.88152   0.16219   0.31218   0.00000  Uiso   1.00
O207   O     0.78515   0.17115   0.18783   0.00000  Uiso   1.00
O208   O     0.90968   0.26356   0.14023   0.00000  Uiso   1.00
Zn209  Zn    0.76898   0.17266   0.25521   0.00000  Uiso   1.00
Zn210  Zn    0.89769   0.16067   0.24479   0.00000  Uiso   1.00
C211   C     0.18141   0.59777   0.24851   0.00000  Uiso   1.00
C212   C     0.21092   0.52141   0.40425   0.00000  Uiso   1.00
C213   C     0.16701   0.50437   0.11605   0.00000  Uiso   1.00
C214   C     0.16632   0.49563   0.38395   0.00000  Uiso   1.00
C215   C     0.21168   0.53037   0.09109   0.00000  Uiso   1.00
C216   C     0.12166   0.46963   0.40891   0.00000  Uiso   1.00
C217   C     0.21192   0.52818   0.04416   0.00000  Uiso   1.00
C218   C     0.12142   0.47182   0.45584   0.00000  Uiso   1.00
C219   C     0.16670   0.50105   0.02341   0.00000  Uiso   1.00
C220   C     0.16664   0.49895   0.47659   0.00000  Uiso   1.00
C221   C     0.12139   0.47629   0.04950   0.00000  Uiso   1.00
C222   C     0.15192   0.40223   0.25149   0.00000  Uiso   1.00
C223   C     0.21194   0.52371   0.45050   0.00000  Uiso   1.00
C224   C     0.25586   0.55310   0.01767   0.00000  Uiso   1.00
C225   C     0.07747   0.44690   0.48233   0.00000  Uiso   1.00
C226   C     0.25636   0.56089   0.11439   0.00000  Uiso   1.00
C227   C     0.07697   0.43911   0.38561   0.00000  Uiso   1.00
C228   C     0.30576   0.57806   0.44460   0.00000  Uiso   1.00
C229   C     0.02757   0.42194   0.05540   0.00000  Uiso   1.00
C230   C     0.24858   0.33722   0.25668   0.00000  Uiso   1.00
C231   C     0.08475   0.66278   0.24332   0.00000  Uiso   1.00
C232   C     0.00359   0.43898   0.21723   0.00000  Uiso   1.00
C233   C     0.25677   0.55086   0.47115   0.00000  Uiso   1.00
C234   C     0.32974   0.56102   0.28277   0.00000  Uiso   1.00
C235   C     0.07656   0.44914   0.02885   0.00000  Uiso   1.00
C236   C     0.18926   0.65170   0.25049   0.00000  Uiso   1.00
C237   C     0.14407   0.34830   0.24951   0.00000  Uiso   1.00
C238   C     0.16650   0.49844   0.33625   0.00000  Uiso   1.00
C239   C     0.16683   0.50156   0.16375   0.00000  Uiso   1.00
C240   C     0.12242   0.47859   0.09575   0.00000  Uiso   1.00
H241   H     0.08925   0.45911   0.11664   0.00000  Uiso   1.00
H242   H     0.32961   0.40313   0.03339   0.00000  Uiso   1.00
H243   H     0.00449   0.44966   0.07879   0.00000  Uiso   1.00
H244   H     0.04390   0.39193   0.07473   0.00000  Uiso   1.00
H245   H     0.22961   0.36254   0.32095   0.00000  Uiso   1.00
H246   H     0.10372   0.63746   0.17905   0.00000  Uiso   1.00
H247   H     0.30461   0.42206   0.19533   0.00000  Uiso   1.00
H248   H     0.04306   0.44478   0.19536   0.00000  Uiso   1.00
H249   H     0.00843   0.41246   0.24362   0.00000  Uiso   1.00
H250   H     0.02872   0.57794   0.30467   0.00000  Uiso   1.00
H251   H     0.32490   0.58754   0.25638   0.00000  Uiso   1.00
H252   H     0.24409   0.54089   0.38336   0.00000  Uiso   1.00
H253   H     0.29027   0.55522   0.30464   0.00000  Uiso   1.00
H254   H     0.28998   0.57481   0.03293   0.00000  Uiso   1.00
H255   H     0.04335   0.42519   0.46707   0.00000  Uiso   1.00
H256   H     0.00601   0.57077   0.12563   0.00000  Uiso   1.00
H257   H     0.32732   0.42923   0.37437   0.00000  Uiso   1.00
H258   H     0.00373   0.59687   0.46661   0.00000  Uiso   1.00
H259   H     0.28944   0.60807   0.42527   0.00000  Uiso   1.00
H260   H     0.32885   0.55034   0.42121   0.00000  Uiso   1.00
N261   N     0.31678   0.48598   0.23783   0.00000  Uiso   1.00
N262   N     0.01656   0.51402   0.26217   0.00000  Uiso   1.00
O263   O     0.12975   0.57952   0.25299   0.00000  Uiso   1.00
O264   O     0.31318   0.54764   0.10745   0.00000  Uiso   1.00
O265   O     0.09032   0.40310   0.35977   0.00000  Uiso   1.00
O266   O     0.02016   0.45236   0.39255   0.00000  Uiso   1.00
O267   O     0.28508   0.66452   0.22558   0.00000  Uiso   1.00
O268   O     0.26331   0.36055   0.29751   0.00000  Uiso   1.00
O269   O     0.04825   0.33548   0.27442   0.00000  Uiso   1.00
O270   O     0.07002   0.63945   0.20249   0.00000  Uiso   1.00
O271   O     0.20358   0.42048   0.24701   0.00000  Uiso   1.00
O272   O     0.22613   0.57054   0.24519   0.00000  Uiso   1.00
O273   O     0.10720   0.42946   0.25482   0.00000  Uiso   1.00
O274   O     0.11847   0.50450   0.31998   0.00000  Uiso   1.00
O275   O     0.21486   0.49550   0.18003   0.00000  Uiso   1.00
O276   O     0.21485   0.49552   0.31218   0.00000  Uiso   1.00
O277   O     0.11848   0.50448   0.18783   0.00000  Uiso   1.00
O278   O     0.24302   0.59690   0.14023   0.00000  Uiso   1.00
Zn279  Zn    0.10231   0.50600   0.25521   0.00000  Uiso   1.00
Zn280  Zn    0.23102   0.49400   0.24479   0.00000  Uiso   1.00
C281   C     0.51474   0.59777   0.24851   0.00000  Uiso   1.00
C282   C     0.54425   0.52141   0.40425   0.00000  Uiso   1.00
C283   C     0.50034   0.50437   0.11605   0.00000  Uiso   1.00
C284   C     0.49966   0.49563   0.38395   0.00000  Uiso   1.00
C285   C     0.54501   0.53037   0.09109   0.00000  Uiso   1.00
C286   C     0.45499   0.46963   0.40891   0.00000  Uiso   1.00
C287   C     0.54525   0.52818   0.04416   0.00000  Uiso   1.00
C288   C     0.45475   0.47182   0.45584   0.00000  Uiso   1.00
C289   C     0.50003   0.50105   0.02341   0.00000  Uiso   1.00
C290   C     0.49997   0.49895   0.47659   0.00000  Uiso   1.00
C291   C     0.45472   0.47629   0.04950   0.00000  Uiso   1.00
C292   C     0.48526   0.40223   0.25149   0.00000  Uiso   1.00
C293   C     0.54528   0.52371   0.45050   0.00000  Uiso   1.00
C294   C     0.58920   0.55310   0.01767   0.00000  Uiso   1.00
C295   C     0.41080   0.44690   0.48233   0.00000  Uiso   1.00
C296   C     0.58970   0.56089   0.11439   0.00000  Uiso   1.00
C297   C     0.41030   0.43911   0.38561   0.00000  Uiso   1.00
C298   C     0.63909   0.57806   0.44460   0.00000  Uiso   1.00
C299   C     0.36091   0.42194   0.05540   0.00000  Uiso   1.00
C300   C     0.58192   0.33722   0.25668   0.00000  Uiso   1.00
C301   C     0.41808   0.66278   0.24332   0.00000  Uiso   1.00
C302   C     0.33692   0.43898   0.21723   0.00000  Uiso   1.00
C303   C     0.59010   0.55086   0.47115   0.00000  Uiso   1.00
C304   C     0.66308   0.56102   0.28277   0.00000  Uiso   1.00
C305   C     0.40990   0.44914   0.02885   0.00000  Uiso   1.00
C306   C     0.52259   0.65170   0.25049   0.00000  Uiso   1.00
C307   C     0.47741   0.34830   0.24951   0.00000  Uiso   1.00
C308   C     0.49984   0.49844   0.33625   0.00000  Uiso   1.00
C309   C     0.50016   0.50156   0.16375   0.00000  Uiso   1.00
C310   C     0.45575   0.47859   0.09575   0.00000  Uiso   1.00
H311   H     0.42258   0.45911   0.11664   0.00000  Uiso   1.00
H312   H     0.66294   0.40313   0.03339   0.00000  Uiso   1.00
H313   H     0.33782   0.44966   0.07879   0.00000  Uiso   1.00
H314   H     0.37723   0.39193   0.07473   0.00000  Uiso   1.00
H315   H     0.56294   0.36254   0.32095   0.00000  Uiso   1.00
H316   H     0.43706   0.63746   0.17905   0.00000  Uiso   1.00
H317   H     0.63795   0.42206   0.19533   0.00000  Uiso   1.00
H318   H     0.37640   0.44478   0.19536   0.00000  Uiso   1.00
H319   H     0.34176   0.41246   0.24362   0.00000  Uiso   1.00
H320   H     0.36205   0.57794   0.30467   0.00000  Uiso   1.00
H321   H     0.65824   0.58754   0.25638   0.00000  Uiso   1.00
H322   H     0.57742   0.54089   0.38336   0.00000  Uiso   1.00
H323   H     0.62360   0.55522   0.30464   0.00000  Uiso   1.00
H324   H     0.62332   0.57481   0.03293   0.00000  Uiso   1.00
H325   H     0.37668   0.42519   0.46707   0.00000  Uiso   1.00
H326   H     0.33934   0.57077   0.12563   0.00000  Uiso   1.00
H327   H     0.66066   0.42923   0.37437   0.00000  Uiso   1.00
H328   H     0.33706   0.59687   0.46661   0.00000  Uiso   1.00
H329   H     0.62277   0.60807   0.42527   0.00000  Uiso   1.00
H330   H     0.66218   0.55034   0.42121   0.00000  Uiso   1.00
N331   N     0.65011   0.48598   0.23783   0.00000  Uiso   1.00
N332   N     0.34989   0.51402   0.26217   0.00000  Uiso   1.00
O333   O     0.46308   0.57952   0.25299   0.00000  Uiso   1.00
O334   O     0.64651   0.54764   0.10745   0.00000  Uiso   1.00
O335   O     0.42365   0.40310   0.35977   0.00000  Uiso   1.00
O336   O     0.35349   0.45236   0.39255   0.00000  Uiso   1.00
O337   O     0.61841   0.66452   0.22558   0.00000  Uiso   1.00
O338   O     0.59664   0.36055   0.29751   0.00000  Uiso   1.00
O339   O     0.38159   0.33548   0.27442   0.00000  Uiso   1.00
O340   O     0.40336   0.63945   0.20249   0.00000  Uiso   1.00
O341   O     0.53692   0.42048   0.24701   0.00000  Uiso   1.00
O342   O     0.55946   0.57054   0.24519   0.00000  Uiso   1.00
O343   O     0.44054   0.42946   0.25482   0.00000  Uiso   1.00
O344   O     0.45181   0.50450   0.31998   0.00000  Uiso   1.00
O345   O     0.54819   0.49550   0.18003   0.00000  Uiso   1.00
O346   O     0.54819   0.49552   0.31218   0.00000  Uiso   1.00
O347   O     0.45181   0.50448   0.18783   0.00000  Uiso   1.00
O348   O     0.57635   0.59690   0.14023   0.00000  Uiso   1.00
Zn349  Zn    0.43565   0.50600   0.25521   0.00000  Uiso   1.00
Zn350  Zn    0.56435   0.49400   0.24479   0.00000  Uiso   1.00
C351   C     0.84808   0.59777   0.24851   0.00000  Uiso   1.00
C352   C     0.87759   0.52141   0.40425   0.00000  Uiso   1.00
C353   C     0.83368   0.50437   0.11605   0.00000  Uiso   1.00
C354   C     0.83299   0.49563   0.38395   0.00000  Uiso   1.00
C355   C     0.87834   0.53037   0.09109   0.00000  Uiso   1.00
C356   C     0.78832   0.46963   0.40891   0.00000  Uiso   1.00
C357   C     0.87859   0.52818   0.04416   0.00000  Uiso   1.00
C358   C     0.78808   0.47182   0.45584   0.00000  Uiso   1.00
C359   C     0.83336   0.50105   0.02341   0.00000  Uiso   1.00
C360   C     0.83330   0.49895   0.47659   0.00000  Uiso   1.00
C361   C     0.78806   0.47629   0.04950   0.00000  Uiso   1.00
C362   C     0.81859   0.40223   0.25149   0.00000  Uiso   1.00
C363   C     0.87861   0.52371   0.45050   0.00000  Uiso   1.00
C364   C     0.92253   0.55310   0.01767   0.00000  Uiso   1.00
C365   C     0.74414   0.44690   0.48233   0.00000  Uiso   1.00
C366   C     0.92303   0.56089   0.11439   0.00000  Uiso   1.00
C367   C     0.74364   0.43911   0.38561   0.00000  Uiso   1.00
C368   C     0.97243   0.57806   0.44460   0.00000  Uiso   1.00
C369   C     0.69424   0.42194   0.05540   0.00000  Uiso   1.00
C370   C     0.91525   0.33722   0.25668   0.00000  Uiso   1.00
C371   C     0.75142   0.66278   0.24332   0.00000  Uiso   1.00
C372   C     0.67026   0.43898   0.21723   0.00000  Uiso   1.00
C373   C     0.92344   0.55086   0.47115   0.00000  Uiso   1.00
C374   C     0.99641   0.56102   0.28277   0.00000  Uiso   1.00
C375   C     0.74323   0.44914   0.02885   0.00000  Uiso   1.00
C376   C     0.85593   0.65170   0.25049   0.00000  Uiso   1.00
C377   C     0.81074   0.34830   0.24951   0.00000  Uiso   1.00
C378   C     0.83317   0.49844   0.33625   0.00000  Uiso   1.00
C379   C     0.83350   0.50156   0.16375   0.00000  Uiso   1.00
C380   C     0.78908   0.47859   0.09575   0.00000  Uiso   1.00
H381   H     0.75591   0.45911   0.11664   0.00000  Uiso   1.00
H382   H     0.99627   0.40313   0.03339   0.00000  Uiso   1.00
H383   H     0.67115   0.44966   0.07879   0.00000  Uiso   1.00
H384   H     0.71056   0.39193   0.07473   0.00000  Uiso   1.00
H385   H     0.89628   0.36254   0.32095   0.00000  Uiso   1.00
H386   H     0.77039   0.63746   0.17905   0.00000  Uiso   1.00
H387   H     0.97128   0.42206   0.19533   0.00000  Uiso   1.00
H388   H     0.70973   0.44478   0.19536   0.00000  Uiso   1.00
H389   H     0.67510   0.41246   0.24362   0.00000  Uiso   1.00
H390   H     0.69539   0.57794   0.30467   0.00000  Uiso   1.00
H391   H     0.99157   0.58754   0.25638   0.00000  Uiso   1.00
H392   H     0.91075   0.54089   0.38336   0.00000  Uiso   1.00
H393   H     0.95694   0.55522   0.30464   0.00000  Uiso   1.00
H394   H     0.95665   0.57481   0.03293   0.00000  Uiso   1.00
H395   H     0.71002   0.42519   0.46707   0.00000  Uiso   1.00
H396   H     0.67268   0.57077   0.12563   0.00000  Uiso   1.00
H397   H     0.99399   0.42923   0.37437   0.00000  Uiso   1.00
H398   H     0.67039   0.59687   0.46661   0.00000  Uiso   1.00
H399   H     0.95610   0.60807   0.42527   0.00000  Uiso   1.00
H400   H     0.99551   0.55034   0.42121   0.00000  Uiso   1.00
N401   N     0.98344   0.48598   0.23783   0.00000  Uiso   1.00
N402   N     0.68322   0.51402   0.26217   0.00000  Uiso   1.00
O403   O     0.79642   0.57952   0.25299   0.00000  Uiso   1.00
O404   O     0.97984   0.54764   0.10745   0.00000  Uiso   1.00
O405   O     0.75698   0.40310   0.35977   0.00000  Uiso   1.00
O406   O     0.68682   0.45236   0.39255   0.00000  Uiso   1.00
O407   O     0.95175   0.66452   0.22558   0.00000  Uiso   1.00
O408   O     0.92998   0.36055   0.29751   0.00000  Uiso   1.00
O409   O     0.71492   0.33548   0.27442   0.00000  Uiso   1.00
O410   O     0.73669   0.63945   0.20249   0.00000  Uiso   1.00
O411   O     0.87025   0.42048   0.24701   0.00000  Uiso   1.00
O412   O     0.89280   0.57054   0.24519   0.00000  Uiso   1.00
O413   O     0.77387   0.42946   0.25482   0.00000  Uiso   1.00
O414   O     0.78514   0.50450   0.31998   0.00000  Uiso   1.00
O415   O     0.88153   0.49550   0.18003   0.00000  Uiso   1.00
O416   O     0.88152   0.49552   0.31218   0.00000  Uiso   1.00
O417   O     0.78515   0.50448   0.18783   0.00000  Uiso   1.00
O418   O     0.90968   0.59690   0.14023   0.00000  Uiso   1.00
Zn419  Zn    0.76898   0.50600   0.25521   0.00000  Uiso   1.00
Zn420  Zn    0.89769   0.49400   0.24479   0.00000  Uiso   1.00
C421   C     0.18141   0.93110   0.24851   0.00000  Uiso   1.00
C422   C     0.21092   0.85474   0.40425   0.00000  Uiso   1.00
C423   C     0.16701   0.83770   0.11605   0.00000  Uiso   1.00
C424   C     0.16632   0.82897   0.38395   0.00000  Uiso   1.00
C425   C     0.21168   0.86370   0.09109   0.00000  Uiso   1.00
C426   C     0.12166   0.80296   0.40891   0.00000  Uiso   1.00
C427   C     0.21192   0.86152   0.04416   0.00000  Uiso   1.00
C428   C     0.12142   0.80515   0.45584   0.00000  Uiso   1.00
C429   C     0.16670   0.83439   0.02341   0.00000  Uiso   1.00
C430   C     0.16664   0.83228   0.47659   0.00000  Uiso   1.00
C431   C     0.12139   0.80962   0.04950   0.00000  Uiso   1.00
C432   C     0.15192   0.73556   0.25149   0.00000  Uiso   1.00
C433   C     0.21194   0.85704   0.45050   0.00000  Uiso   1.00
C434   C     0.25586   0.88643   0.01767   0.00000  Uiso   1.00
C435   C     0.07747   0.78024   0.48233   0.00000  Uiso   1.00
C436   C     0.25636   0.89423   0.11439   0.00000  Uiso   1.00
C437   C     0.07697   0.77244   0.38561   0.00000  Uiso   1.00
C438   C     0.30576   0.91139   0.44460   0.00000  Uiso   1.00
C439   C     0.02757   0.75528   0.05540   0.00000  Uiso   1.00
C440   C     0.24858   0.67055   0.25668   0.00000  Uiso   1.00
C441   C     0.08475   0.99611   0.24332   0.00000  Uiso   1.00
C442   C     0.00359   0.77232   0.21723   0.00000  Uiso   1.00
C443   C     0.25677   0.88420   0.47115   0.00000  Uiso   1.00
C444   C     0.32974   0.89435   0.28277   0.00000  Uiso   1.00
C445   C     0.07656   0.78247   0.02885   0.00000  Uiso   1.00
C446   C     0.18926   0.98503   0.25049   0.00000  Uiso   1.00
C447   C     0.14407   0.68163   0.24951   0.00000  Uiso   1.00
C448   C     0.16650   0.83178   0.33625   0.00000  Uiso   1.00
C449   C     0.16683   0.83489   0.16375   0.00000  Uiso   1.00
C450   C     0.12242   0.81193   0.09575   0.00000  Uiso   1.00
H451   H     0.08925   0.79244   0.11664   0.00000  Uiso   1.00
H452   H     0.32961   0.73647   0.03339   0.00000  Uiso   1.00
H453   H     0.00449   0.78299   0.07879   0.00000  Uiso   1.00
H454   H     0.04390   0.72527   0.07473   0.00000  Uiso   1.00
H455   H     0.22961   0.69587   0.32095   0.00000  Uiso   1.00
H456   H     0.10372   0.97079   0.17905   0.00000  Uiso   1.00
H457   H     0.30461   0.75539   0.19533   0.00000  Uiso   1.00
H458   H     0.04306   0.77811   0.19536   0.00000  Uiso   1.00
H459   H     0.00843   0.74580   0.24362   0.00000  Uiso   1.00
H460   H     0.02872   0.91127   0.30467   0.00000  Uiso   1.00
H461   H     0.32490   0.92087   0.25638   0.00000  Uiso   1.00
H462   H     0.24409   0.87422   0.38336   0.00000  Uiso   1.00
H463   H     0.29027   0.88856   0.30464   0.00000  Uiso   1.00
H464   H     0.28998   0.90814   0.03293   0.00000  Uiso   1.00
H465   H     0.04335   0.75852   0.46707   0.00000  Uiso   1.00
H466   H     0.00601   0.90411   0.12563   0.00000  Uiso   1.00
H467   H     0.32732   0.76256   0.37437   0.00000  Uiso   1.00
H468   H     0.00373   0.93020   0.46661   0.00000  Uiso   1.00
H469   H     0.28944   0.94140   0.42527   0.00000  Uiso   1.00
H470   H     0.32885   0.88368   0.42121   0.00000  Uiso   1.00
N471   N     0.31678   0.81932   0.23783   0.00000  Uiso   1.00
N472   N     0.01656   0.84735   0.26217   0.00000  Uiso   1.00
O473   O     0.12975   0.91286   0.25299   0.00000  Uiso   1.00
O474   O     0.31318   0.88097   0.10745   0.00000  Uiso   1.00
O475   O     0.09032   0.73644   0.35977   0.00000  Uiso   1.00
O476   O     0.02016   0.78570   0.39255   0.00000  Uiso   1.00
O477   O     0.28508   0.99785   0.22558   0.00000  Uiso   1.00
O478   O     0.26331   0.69388   0.29751   0.00000  Uiso   1.00
O479   O     0.04825   0.66881   0.27442   0.00000  Uiso   1.00
O480   O     0.07002   0.97279   0.20249   0.00000  Uiso   1.00
O481   O     0.20358   0.75381   0.24701   0.00000  Uiso   1.00
O482   O     0.22613   0.90387   0.24519   0.00000  Uiso   1.00
O483   O     0.10720   0.76279   0.25482   0.00000  Uiso   1.00
O484   O     0.11847   0.83784   0.31998   0.00000  Uiso   1.00
O485   O     0.21486   0.82883   0.18003   0.00000  Uiso   1.00
O486   O     0.21485   0.82885   0.31218   0.00000  Uiso   1.00
O487   O     0.11848   0.83781   0.18783   0.00000  Uiso   1.00
O488   O     0.24302   0.93023   0.14023   0.00000  Uiso   1.00
Zn489  Zn    0.10231   0.83933   0.25521   0.00000  Uiso   1.00
Zn490  Zn    0.23102   0.82734   0.24479   0.00000  Uiso   1.00
C491   C     0.51474   0.93110   0.24851   0.00000  Uiso   1.00
C492   C     0.54425   0.85474   0.40425   0.00000  Uiso   1.00
C493   C     0.50034   0.83770   0.11605   0.00000  Uiso   1.00
C494   C     0.49966   0.82897   0.38395   0.00000  Uiso   1.00
C495   C     0.54501   0.86370   0.09109   0.00000  Uiso   1.00
C496   C     0.45499   0.80296   0.40891   0.00000  Uiso   1.00
C497   C     0.54525   0.86152   0.04416   0.00000  Uiso   1.00
C498   C     0.45475   0.80515   0.45584   0.00000  Uiso   1.00
C499   C     0.50003   0.83439   0.02341   0.00000  Uiso   1.00
C500   C     0.49997   0.83228   0.47659   0.00000  Uiso   1.00
C501   C     0.45472   0.80962   0.04950   0.00000  Uiso   1.00
C502   C     0.48526   0.73556   0.25149   0.00000  Uiso   1.00
C503   C     0.54528   0.85704   0.45050   0.00000  Uiso   1.00
C504   C     0.58920   0.88643   0.01767   0.00000  Uiso   1.00
C505   C     0.41080   0.78024   0.48233   0.00000  Uiso   1.00
C506   C     0.58970   0.89423   0.11439   0.00000  Uiso   1.00
C507   C     0.41030   0.77244   0.38561   0.00000  Uiso   1.00
C508   C     0.63909   0.91139   0.44460   0.00000  Uiso   1.00
C509   C     0.36091   0.75528   0.05540   0.00000  Uiso   1.00
C510   C     0.58192   0.67055   0.25668   0.00000  Uiso   1.00
C511   C     0.41808   0.99611   0.24332   0.00000  Uiso   1.00
C512   C     0.33692   0.77232   0.21723   0.00000  Uiso   1.00
C513   C     0.59010   0.88420   0.47115   0.00000  Uiso   1.00
C514   C     0.66308   0.89435   0.28277   0.00000  Uiso   1.00
C515   C     0.40990   0.78247   0.02885   0.00000  Uiso   1.00
C516   C     0.52259   0.98503   0.25049   0.00000  Uiso   1.00
C517   C     0.47741   0.68163   0.24951   0.00000  Uiso   1.00
C518   C     0.49984   0.83178   0.33625   0.00000  Uiso   1.00
C519   C     0.50016   0.83489   0.16375   0.00000  Uiso   1.00
C520   C     0.45575   0.81193   0.09575   0.00000  Uiso   1.00
H521   H     0.42258   0.79244   0.11664   0.00000  Uiso   1.00
H522   H     0.66294   0.73647   0.03339   0.00000  Uiso   1.00
H523   H     0.33782   0.78299   0.07879   0.00000  Uiso   1.00
H524   H     0.37723   0.72527   0.07473   0.00000  Uiso   1.00
H525   H     0.56294   0.69587   0.32095   0.00000  Uiso   1.00
H526   H     0.43706   0.97079   0.17905   0.00000  Uiso   1.00
H527   H     0.63795   0.75539   0.19533   0.00000  Uiso   1.00
H528   H     0.37640   0.77811   0.19536   0.00000  Uiso   1.00
H529   H     0.34176   0.74580   0.24362   0.00000  Uiso   1.00
H530   H     0.36205   0.91127   0.30467   0.00000  Uiso   1.00
H531   H     0.65824   0.92087   0.25638   0.00000  Uiso   1.00
H532   H     0.57742   0.87422   0.38336   0.00000  Uiso   1.00
H533   H     0.62360   0.88856   0.30464   0.00000  Uiso   1.00
H534   H     0.62332   0.90814   0.03293   0.00000  Uiso   1.00
H535   H     0.37668   0.75852   0.46707   0.00000  Uiso   1.00
H536   H     0.33934   0.90411   0.12563   0.00000  Uiso   1.00
H537   H     0.66066   0.76256   0.37437   0.00000  Uiso   1.00
H538   H     0.33706   0.93020   0.46661   0.00000  Uiso   1.00
H539   H     0.62277   0.94140   0.42527   0.00000  Uiso   1.00
H540   H     0.66218   0.88368   0.42121   0.00000  Uiso   1.00
N541   N     0.65011   0.81932   0.23783   0.00000  Uiso   1.00
N542   N     0.34989   0.84735   0.26217   0.00000  Uiso   1.00
O543   O     0.46308   0.91286   0.25299   0.00000  Uiso   1.00
O544   O     0.64651   0.88097   0.10745   0.00000  Uiso   1.00
O545   O     0.42365   0.73644   0.35977   0.00000  Uiso   1.00
O546   O     0.35349   0.78570   0.39255   0.00000  Uiso   1.00
O547   O     0.61841   0.99785   0.22558   0.00000  Uiso   1.00
O548   O     0.59664   0.69388   0.29751   0.00000  Uiso   1.00
O549   O     0.38159   0.66881   0.27442   0.00000  Uiso   1.00
O550   O     0.40336   0.97279   0.20249   0.00000  Uiso   1.00
O551   O     0.53692   0.75381   0.24701   0.00000  Uiso   1.00
O552   O     0.55946   0.90387   0.24519   0.00000  Uiso   1.00
O553   O     0.44054   0.76279   0.25482   0.00000  Uiso   1.00
O554   O     0.45181   0.83784   0.31998   0.00000  Uiso   1.00
O555   O     0.54819   0.82883   0.18003   0.00000  Uiso   1.00
O556   O     0.54819   0.82885   0.31218   0.00000  Uiso   1.00
O557   O     0.45181   0.83781   0.18783   0.00000  Uiso   1.00
O558   O     0.57635   0.93023   0.14023   0.00000  Uiso   1.00
Zn559  Zn    0.43565   0.83933   0.25521   0.00000  Uiso   1.00
Zn560  Zn    0.56435   0.82734   0.24479   0.00000  Uiso   1.00
C561   C     0.84808   0.93110   0.24851   0.00000  Uiso   1.00
C562   C     0.87759   0.85474   0.40425   0.00000  Uiso   1.00
C563   C     0.83368   0.83770   0.11605   0.00000  Uiso   1.00
C564   C     0.83299   0.82897   0.38395   0.00000  Uiso   1.00
C565   C     0.87834   0.86370   0.09109   0.00000  Uiso   1.00
C566   C     0.78832   0.80296   0.40891   0.00000  Uiso   1.00
C567   C     0.87859   0.86152   0.04416   0.00000  Uiso   1.00
C568   C     0.78808   0.80515   0.45584   0.00000  Uiso   1.00
C569   C     0.83336   0.83439   0.02341   0.00000  Uiso   1.00
C570   C     0.83330   0.83228   0.47659   0.00000  Uiso   1.00
C571   C     0.78806   0.80962   0.04950   0.00000  Uiso   1.00
C572   C     0.81859   0.73556   0.25149   0.00000  Uiso   1.00
C573   C     0.87861   0.85704   0.45050   0.00000  Uiso   1.00
C574   C     0.92253   0.88643   0.01767   0.00000  Uiso   1.00
C575   C     0.74414   0.78024   0.48233   0.00000  Uiso   1.00
C576   C     0.92303   0.89423   0.11439   0.00000  Uiso   1.00
C577   C     0.74364   0.77244   0.38561   0.00000  Uiso   1.00
C578   C     0.97243   0.91139   0.44460   0.00000  Uiso   1.00
C579   C     0.69424   0.75528   0.05540   0.00000  Uiso   1.00
C580   C     0.91525   0.67055   0.25668   0.00000  Uiso   1.00
C581   C     0.75142   0.99611   0.24332   0.00000  Uiso   1.00
C582   C     0.67026   0.77232   0.21723   0.00000  Uiso   1.00
C583   C     0.92344   0.88420   0.47115   0.00000  Uiso   1.00
C584   C     0.99641   0.89435   0.28277   0.00000  Uiso   1.00
C585   C     0.74323   0.78247   0.02885   0.00000  Uiso   1.00
C586   C     0.85593   0.98503   0.25049   0.00000  Uiso   1.00
C587   C     0.81074   0.68163   0.24951   0.00000  Uiso   1.00
C588   C     0.83317   0.83178   0.33625   0.00000  Uiso   1.00
C589   C     0.83350   0.83489   0.16375   0.00000  Uiso   1.00
C590   C     0.78908   0.81193   0.09575   0.00000  Uiso   1.00
H591   H     0.75591   0.79244   0.11664   0.00000  Uiso   1.00
H592   H     0.99627   0.73647   0.03339   0.00000  Uiso   1.00
H593   H     0.67115   0.78299   0.07879   0.00000  Uiso   1.00
H594   H     0.71056   0.72527   0.07473   0.00000  Uiso   1.00
H595   H     0.89628   0.69587   0.32095   0.00000  Uiso   1.00
H596   H     0.77039   0.97079   0.17905   0.00000  Uiso   1.00
H597   H     0.97128   0.75539   0.19533   0.00000  Uiso   1.00
H598   H     0.70973   0.77811   0.19536   0.00000  Uiso   1.00
H599   H     0.67510   0.74580   0.24362   0.00000  Uiso   1.00
H600   H     0.69539   0.91127   0.30467   0.00000  Uiso   1.00
H601   H     0.99157   0.92087   0.25638   0.00000  Uiso   1.00
H602   H     0.91075   0.87422   0.38336   0.00000  Uiso   1.00
H603   H     0.95694   0.88856   0.30464   0.00000  Uiso   1.00
H604   H     0.95665   0.90814   0.03293   0.00000  Uiso   1.00
H605   H     0.71002   0.75852   0.46707   0.00000  Uiso   1.00
H606   H     0.67268   0.90411   0.12563   0.00000  Uiso   1.00
H607   H     0.99399   0.76256   0.37437   0.00000  Uiso   1.00
H608   H     0.67039   0.93020   0.46661   0.00000  Uiso   1.00
H609   H     0.95610   0.94140   0.42527   0.00000  Uiso   1.00
H610   H     0.99551   0.88368   0.42121   0.00000  Uiso   1.00
N611   N     0.98344   0.81932   0.23783   0.00000  Uiso   1.00
N612   N     0.68322   0.84735   0.26217   0.00000  Uiso   1.00
O613   O     0.79642   0.91286   0.25299   0.00000  Uiso   1.00
O614   O     0.97984   0.88097   0.10745   0.00000  Uiso   1.00
O615   O     0.75698   0.73644   0.35977   0.00000  Uiso   1.00
O616   O     0.68682   0.78570   0.39255   0.00000  Uiso   1.00
O617   O     0.95175   0.99785   0.22558   0.00000  Uiso   1.00
O618   O     0.92998   0.69388   0.29751   0.00000  Uiso   1.00
O619   O     0.71492   0.66881   0.27442   0.00000  Uiso   1.00
O620   O     0.73669   0.97279   0.20249   0.00000  Uiso   1.00
O621   O     0.87025   0.75381   0.24701   0.00000  Uiso   1.00
O622   O     0.89280   0.90387   0.24519   0.00000  Uiso   1.00
O623   O     0.77387   0.76279   0.25482   0.00000  Uiso   1.00
O624   O     0.78514   0.83784   0.31998   0.00000  Uiso   1.00
O625   O     0.88153   0.82883   0.18003   0.00000  Uiso   1.00
O626   O     0.88152   0.82885   0.31218   0.00000  Uiso   1.00
O627   O     0.78515   0.83781   0.18783   0.00000  Uiso   1.00
O628   O     0.90968   0.93023   0.14023   0.00000  Uiso   1.00
Zn629  Zn    0.76898   0.83933   0.25521   0.00000  Uiso   1.00
Zn630  Zn    0.89769   0.82734   0.24479   0.00000  Uiso   1.00
C631   C     0.18141   0.26444   0.74851   0.00000  Uiso   1.00
C632   C     0.21092   0.18807   0.90425   0.00000  Uiso   1.00
C633   C     0.16701   0.17103   0.61605   0.00000  Uiso   1.00
C634   C     0.16632   0.16230   0.88395   0.00000  Uiso   1.00
C635   C     0.21168   0.19704   0.59109   0.00000  Uiso   1.00
C636   C     0.12166   0.13630   0.90891   0.00000  Uiso   1.00
C637   C     0.21192   0.19485   0.54416   0.00000  Uiso   1.00
C638   C     0.12142   0.13848   0.95584   0.00000  Uiso   1.00
C639   C     0.16670   0.16772   0.52341   0.00000  Uiso   1.00
C640   C     0.16664   0.16561   0.97659   0.00000  Uiso   1.00
C641   C     0.12139   0.14296   0.54950   0.00000  Uiso   1.00
C642   C     0.15192   0.06890   0.75149   0.00000  Uiso   1.00
C643   C     0.21194   0.19038   0.95050   0.00000  Uiso   1.00
C644   C     0.25586   0.21976   0.51767   0.00000  Uiso   1.00
C645   C     0.07747   0.11357   0.98233   0.00000  Uiso   1.00
C646   C     0.25636   0.22756   0.61439   0.00000  Uiso   1.00
C647   C     0.07697   0.10577   0.88561   0.00000  Uiso   1.00
C648   C     0.30576   0.24472   0.94460   0.00000  Uiso   1.00
C649   C     0.02757   0.08861   0.55540   0.00000  Uiso   1.00
C650   C     0.24858   0.00389   0.75668   0.00000  Uiso   1.00
C651   C     0.08475   0.32945   0.74332   0.00000  Uiso   1.00
C652   C     0.00359   0.10565   0.71723   0.00000  Uiso   1.00
C653   C     0.25677   0.21753   0.97115   0.00000  Uiso   1.00
C654   C     0.32974   0.22768   0.78277   0.00000  Uiso   1.00
C655   C     0.07656   0.11580   0.52885   0.00000  Uiso   1.00
C656   C     0.18926   0.31837   0.75049   0.00000  Uiso   1.00
C657   C     0.14407   0.01497   0.74951   0.00000  Uiso   1.00
C658   C     0.16650   0.16511   0.83625   0.00000  Uiso   1.00
C659   C     0.16683   0.16822   0.66375   0.00000  Uiso   1.00
C660   C     0.12242   0.14526   0.59575   0.00000  Uiso   1.00
H661   H     0.08925   0.12578   0.61664   0.00000  Uiso   1.00
H662   H     0.32961   0.06980   0.53339   0.00000  Uiso   1.00
H663   H     0.00449   0.11632   0.57879   0.00000  Uiso   1.00
H664   H     0.04390   0.05860   0.57473   0.00000  Uiso   1.00
H665   H     0.22961   0.02921   0.82095   0.00000  Uiso   1.00
H666   H     0.10372   0.30413   0.67905   0.00000  Uiso   1.00
H667   H     0.30461   0.08873   0.69533   0.00000  Uiso   1.00
H668   H     0.04306   0.11144   0.69536   0.00000  Uiso   1.00
H669   H     0.00843   0.07913   0.74362   0.00000  Uiso   1.00
H670   H     0.02872   0.24461   0.80467   0.00000  Uiso   1.00
H671   H     0.32490   0.25420   0.75638   0.00000  Uiso   1.00
H672   H     0.24409   0.20755   0.88336   0.00000  Uiso   1.00
H673   H     0.29027   0.22189   0.80464   0.00000  Uiso   1.00
H674   H     0.28998   0.24147   0.53293   0.00000  Uiso   1.00
H675   H     0.04335   0.09186   0.96707   0.00000  Uiso   1.00
H676   H     0.00601   0.23744   0.62563   0.00000  Uiso   1.00
H677   H     0.32732   0.09589   0.87437   0.00000  Uiso   1.00
H678   H     0.00373   0.26353   0.96661   0.00000  Uiso   1.00
H679   H     0.28944   0.27473   0.92527   0.00000  Uiso   1.00
H680   H     0.32885   0.21701   0.92121   0.00000  Uiso   1.00
N681   N     0.31678   0.15265   0.73783   0.00000  Uiso   1.00
N682   N     0.01656   0.18068   0.76217   0.00000  Uiso   1.00
O683   O     0.12975   0.24619   0.75299   0.00000  Uiso   1.00
O684   O     0.31318   0.21430   0.60745   0.00000  Uiso   1.00
O685   O     0.09032   0.06977   0.85977   0.00000  Uiso   1.00
O686   O     0.02016   0.11903   0.89255   0.00000  Uiso   1.00
O687   O     0.28508   0.33119   0.72558   0.00000  Uiso   1.00
O688   O     0.26331   0.02721   0.79751   0.00000  Uiso   1.00
O689   O     0.04825   0.00215   0.77442   0.00000  Uiso   1.00
O690   O     0.07002   0.30612   0.70249   0.00000  Uiso   1.00
O691   O     0.20358   0.08714   0.74701   0.00000  Uiso   1.00
O692   O     0.22613   0.23721   0.74519   0.00000  Uiso   1.00
O693   O     0.10720   0.09613   0.75482   0.00000  Uiso   1.00
O694   O     0.11847   0.17117   0.81998   0.00000  Uiso   1.00
O695   O     0.21486   0.16216   0.68003   0.00000  Uiso   1.00
O696   O     0.21485   0.16219   0.81218   0.00000  Uiso   1.00
O697   O     0.11848   0.17115   0.68783   0.00000  Uiso   1.00
O698   O     0.24302   0.26356   0.64023   0.00000  Uiso   1.00
Zn699  Zn    0.10231   0.17266   0.75521   0.00000  Uiso   1.00
Zn700  Zn    0.23102   0.16067   0.74479   0.00000  Uiso   1.00
C701   C     0.51474   0.26444   0.74851   0.00000  Uiso   1.00
C702   C     0.54425   0.18807   0.90425   0.00000  Uiso   1.00
C703   C     0.50034   0.17103   0.61605   0.00000  Uiso   1.00
C704   C     0.49966   0.16230   0.88395   0.00000  Uiso   1.00
C705   C     0.54501   0.19704   0.59109   0.00000  Uiso   1.00
C706   C     0.45499   0.13630   0.90891   0.00000  Uiso   1.00
C707   C     0.54525   0.19485   0.54416   0.00000  Uiso   1.00
C708   C     0.45475   0.13848   0.95584   0.00000  Uiso   1.00
C709   C     0.50003   0.16772   0.52341   0.00000  Uiso   1.00
C710   C     0.49997   0.16561   0.97659   0.00000  Uiso   1.00
C711   C     0.45472   0.14296   0.54950   0.00000  Uiso   1.00
C712   C     0.48526   0.06890   0.75149   0.00000  Uiso   1.00
C713   C     0.54528   0.19038   0.95050   0.00000  Uiso   1.00
C714   C     0.58920   0.21976   0.51767   0.00000  Uiso   1.00
C715   C     0.41080   0.11357   0.98233   0.00000  Uiso   1.00
C716   C     0.58970   0.22756   0.61439   0.00000  Uiso   1.00
C717   C     0.41030   0.10577   0.88561   0.00000  Uiso   1.00
C718   C     0.63909   0.24472   0.94460   0.00000  Uiso   1.00
C719   C     0.36091   0.08861   0.55540   0.00000  Uiso   1.00
C720   C     0.58192   0.00389   0.75668   0.00000  Uiso   1.00
C721   C     0.41808   0.32945   0.74332   0.00000  Uiso   1.00
C722   C     0.33692   0.10565   0.71723   0.00000  Uiso   1.00
C723   C     0.59010   0.21753   0.97115   0.00000  Uiso   1.00
C724   C     0.66308   0.22768   0.78277   0.00000  Uiso   1.00
C725   C     0.40990   0.11580   0.52885   0.00000  Uiso   1.00
C726   C     0.52259   0.31837   0.75049   0.00000  Uiso   1.00
C727   C     0.47741   0.01497   0.74951   0.00000  Uiso   1.00
C728   C     0.49984   0.16511   0.83625   0.00000  Uiso   1.00
C729   C     0.50016   0.16822   0.66375   0.00000  Uiso   1.00
C730   C     0.45575   0.14526   0.59575   0.00000  Uiso   1.00
H731   H     0.42258   0.12578   0.61664   0.00000  Uiso   1.00
H732   H     0.66294   0.06980   0.53339   0.00000  Uiso   1.00
H733   H     0.33782   0.11632   0.57879   0.00000  Uiso   1.00
H734   H     0.37723   0.05860   0.57473   0.00000  Uiso   1.00
H735   H     0.56294   0.02921   0.82095   0.00000  Uiso   1.00
H736   H     0.43706   0.30413   0.67905   0.00000  Uiso   1.00
H737   H     0.63795   0.08873   0.69533   0.00000  Uiso   1.00
H738   H     0.37640   0.11144   0.69536   0.00000  Uiso   1.00
H739   H     0.34176   0.07913   0.74362   0.00000  Uiso   1.00
H740   H     0.36205   0.24461   0.80467   0.00000  Uiso   1.00
H741   H     0.65824   0.25420   0.75638   0.00000  Uiso   1.00
H742   H     0.57742   0.20755   0.88336   0.00000  Uiso   1.00
H743   H     0.62360   0.22189   0.80464   0.00000  Uiso   1.00
H744   H     0.62332   0.24147   0.53293   0.00000  Uiso   1.00
H745   H     0.37668   0.09186   0.96707   0.00000  Uiso   1.00
H746   H     0.33934   0.23744   0.62563   0.00000  Uiso   1.00
H747   H     0.66066   0.09589   0.87437   0.00000  Uiso   1.00
H748   H     0.33706   0.26353   0.96661   0.00000  Uiso   1.00
H749   H     0.62277   0.27473   0.92527   0.00000  Uiso   1.00
H750   H     0.66218   0.21701   0.92121   0.00000  Uiso   1.00
N751   N     0.65011   0.15265   0.73783   0.00000  Uiso   1.00
N752   N     0.34989   0.18068   0.76217   0.00000  Uiso   1.00
O753   O     0.46308   0.24619   0.75299   0.00000  Uiso   1.00
O754   O     0.64651   0.21430   0.60745   0.00000  Uiso   1.00
O755   O     0.42365   0.06977   0.85977   0.00000  Uiso   1.00
O756   O     0.35349   0.11903   0.89255   0.00000  Uiso   1.00
O757   O     0.61841   0.33119   0.72558   0.00000  Uiso   1.00
O758   O     0.59664   0.02721   0.79751   0.00000  Uiso   1.00
O759   O     0.38159   0.00215   0.77442   0.00000  Uiso   1.00
O760   O     0.40336   0.30612   0.70249   0.00000  Uiso   1.00
O761   O     0.53692   0.08714   0.74701   0.00000  Uiso   1.00
O762   O     0.55946   0.23721   0.74519   0.00000  Uiso   1.00
O763   O     0.44054   0.09613   0.75482   0.00000  Uiso   1.00
O764   O     0.45181   0.17117   0.81998   0.00000  Uiso   1.00
O765   O     0.54819   0.16216   0.68003   0.00000  Uiso   1.00
O766   O     0.54819   0.16219   0.81218   0.00000  Uiso   1.00
O767   O     0.45181   0.17115   0.68783   0.00000  Uiso   1.00
O768   O     0.57635   0.26356   0.64023   0.00000  Uiso   1.00
Zn769  Zn    0.43565   0.17266   0.75521   0.00000  Uiso   1.00
Zn770  Zn    0.56435   0.16067   0.74479   0.00000  Uiso   1.00
C771   C     0.84808   0.26444   0.74851   0.00000  Uiso   1.00
C772   C     0.87759   0.18807   0.90425   0.00000  Uiso   1.00
C773   C     0.83368   0.17103   0.61605   0.00000  Uiso   1.00
C774   C     0.83299   0.16230   0.88395   0.00000  Uiso   1.00
C775   C     0.87834   0.19704   0.59109   0.00000  Uiso   1.00
C776   C     0.78832   0.13630   0.90891   0.00000  Uiso   1.00
C777   C     0.87859   0.19485   0.54416   0.00000  Uiso   1.00
C778   C     0.78808   0.13848   0.95584   0.00000  Uiso   1.00
C779   C     0.83336   0.16772   0.52341   0.00000  Uiso   1.00
C780   C     0.83330   0.16561   0.97659   0.00000  Uiso   1.00
C781   C     0.78806   0.14296   0.54950   0.00000  Uiso   1.00
C782   C     0.81859   0.06890   0.75149   0.00000  Uiso   1.00
C783   C     0.87861   0.19038   0.95050   0.00000  Uiso   1.00
C784   C     0.92253   0.21976   0.51767   0.00000  Uiso   1.00
C785   C     0.74414   0.11357   0.98233   0.00000  Uiso   1.00
C786   C     0.92303   0.22756   0.61439   0.00000  Uiso   1.00
C787   C     0.74364   0.10577   0.88561   0.00000  Uiso   1.00
C788   C     0.97243   0.24472   0.94460   0.00000  Uiso   1.00
C789   C     0.69424   0.08861   0.55540   0.00000  Uiso   1.00
C790   C     0.91525   0.00389   0.75668   0.00000  Uiso   1.00
C791   C     0.75142   0.32945   0.74332   0.00000  Uiso   1.00
C792   C     0.67026   0.10565   0.71723   0.00000  Uiso   1.00
C793   C     0.92344   0.21753   0.97115   0.00000  Uiso   1.00
C794   C     0.99641   0.22768   0.78277   0.00000  Uiso   1.00
C795   C     0.74323   0.11580   0.52885   0.00000  Uiso   1.00
C796   C     0.85593   0.31837   0.75049   0.00000  Uiso   1.00
C797   C     0.81074   0.01497   0.74951   0.00000  Uiso   1.00
C798   C     0.83317   0.16511   0.83625   0.00000  Uiso   1.00
C799   C     0.83350   0.16822   0.66375   0.00000  Uiso   1.00
C800   C     0.78908   0.14526   0.59575   0.00000  Uiso   1.00
H801   H     0.75591   0.12578   0.61664   0.00000  Uiso   1.00
H802   H     0.99627   0.06980   0.53339   0.00000  Uiso   1.00
H803   H     0.67115   0.11632   0.57879   0.00000  Uiso   1.00
H804   H     0.71056   0.05860   0.57473   0.00000  Uiso   1.00
H805   H     0.89628   0.02921   0.82095   0.00000  Uiso   1.00
H806   H     0.77039   0.30413   0.67905   0.00000  Uiso   1.00
H807   H     0.97128   0.08873   0.69533   0.00000  Uiso   1.00
H808   H     0.70973   0.11144   0.69536   0.00000  Uiso   1.00
H809   H     0.67510   0.07913   0.74362   0.00000  Uiso   1.00
H810   H     0.69539   0.24461   0.80467   0.00000  Uiso   1.00
H811   H     0.99157   0.25420   0.75638   0.00000  Uiso   1.00
H812   H     0.91075   0.20755   0.88336   0.00000  Uiso   1.00
H813   H     0.95694   0.22189   0.80464   0.00000  Uiso   1.00
H814   H     0.95665   0.24147   0.53293   0.00000  Uiso   1.00
H815   H     0.71002   0.09186   0.96707   0.00000  Uiso   1.00
H816   H     0.67268   0.23744   0.62563   0.00000  Uiso   1.00
H817   H     0.99399   0.09589   0.87437   0.00000  Uiso   1.00
H818   H     0.67039   0.26353   0.96661   0.00000  Uiso   1.00
H819   H     0.95610   0.27473   0.92527   0.00000  Uiso   1.00
H820   H     0.99551   0.21701   0.92121   0.00000  Uiso   1.00
N821   N     0.98344   0.15265   0.73783   0.00000  Uiso   1.00
N822   N     0.68322   0.18068   0.76217   0.00000  Uiso   1.00
O823   O     0.79642   0.24619   0.75299   0.00000  Uiso   1.00
O824   O     0.97984   0.21430   0.60745   0.00000  Uiso   1.00
O825   O     0.75698   0.06977   0.85977   0.00000  Uiso   1.00
O826   O     0.68682   0.11903   0.89255   0.00000  Uiso   1.00
O827   O     0.95175   0.33119   0.72558   0.00000  Uiso   1.00
O828   O     0.92998   0.02721   0.79751   0.00000  Uiso   1.00
O829   O     0.71492   0.00215   0.77442   0.00000  Uiso   1.00
O830   O     0.73669   0.30612   0.70249   0.00000  Uiso   1.00
O831   O     0.87025   0.08714   0.74701   0.00000  Uiso   1.00
O832   O     0.89280   0.23721   0.74519   0.00000  Uiso   1.00
O833   O     0.77387   0.09613   0.75482   0.00000  Uiso   1.00
O834   O     0.78514   0.17117   0.81998   0.00000  Uiso   1.00
O835   O     0.88153   0.16216   0.68003   0.00000  Uiso   1.00
O836   O     0.88152   0.16219   0.81218   0.00000  Uiso   1.00
O837   O     0.78515   0.17115   0.68783   0.00000  Uiso   1.00
O838   O     0.90968   0.26356   0.64023   0.00000  Uiso   1.00
Zn839  Zn    0.76898   0.17266   0.75521   0.00000  Uiso   1.00
Zn840  Zn    0.89769   0.16067   0.74479   0.00000  Uiso   1.00
C841   C     0.18141   0.59777   0.74851   0.00000  Uiso   1.00
C842   C     0.21092   0.52141   0.90425   0.00000  Uiso   1.00
C843   C     0.16701   0.50437   0.61605   0.00000  Uiso   1.00
C844   C     0.16632   0.49563   0.88395   0.00000  Uiso   1.00
C845   C     0.21168   0.53037   0.59109   0.00000  Uiso   1.00
C846   C     0.12166   0.46963   0.90891   0.00000  Uiso   1.00
C847   C     0.21192   0.52818   0.54416   0.00000  Uiso   1.00
C848   C     0.12142   0.47182   0.95584   0.00000  Uiso   1.00
C849   C     0.16670   0.50105   0.52341   0.00000  Uiso   1.00
C850   C     0.16664   0.49895   0.97659   0.00000  Uiso   1.00
C851   C     0.12139   0.47629   0.54950   0.00000  Uiso   1.00
C852   C     0.15192   0.40223   0.75149   0.00000  Uiso   1.00
C853   C     0.21194   0.52371   0.95050   0.00000  Uiso   1.00
C854   C     0.25586   0.55310   0.51767   0.00000  Uiso   1.00
C855   C     0.07747   0.44690   0.98233   0.00000  Uiso   1.00
C856   C     0.25636   0.56089   0.61439   0.00000  Uiso   1.00
C857   C     0.07697   0.43911   0.88561   0.00000  Uiso   1.00
C858   C     0.30576   0.57806   0.94460   0.00000  Uiso   1.00
C859   C     0.02757   0.42194   0.55540   0.00000  Uiso   1.00
C860   C     0.24858   0.33722   0.75668   0.00000  Uiso   1.00
C861   C     0.08475   0.66278   0.74332   0.00000  Uiso   1.00
C862   C     0.00359   0.43898   0.71723   0.00000  Uiso   1.00
C863   C     0.25677   0.55086   0.97115   0.00000  Uiso   1.00
C864   C     0.32974   0.56102   0.78277   0.00000  Uiso   1.00
C865   C     0.07656   0.44914   0.52885   0.00000  Uiso   1.00
C866   C     0.18926   0.65170   0.75049   0.00000  Uiso   1.00
C867   C     0.14407   0.34830   0.74951   0.00000  Uiso   1.00
C868   C     0.16650   0.49844   0.83625   0.00000  Uiso   1.00
C869   C     0.16683   0.50156   0.66375   0.00000  Uiso   1.00
C870   C     0.12242   0.47859   0.59575   0.00000  Uiso   1.00
H871   H     0.08925   0.45911   0.61664   0.00000  Uiso   1.00
H872   H     0.32961   0.40313   0.53339   0.00000  Uiso   1.00
H873   H     0.00449   0.44966   0.57879   0.00000  Uiso   1.00
H874   H     0.04390   0.39193   0.57473   0.00000  Uiso   1.00
H875   H     0.22961   0.36254   0.82095   0.00000  Uiso   1.00
H876   H     0.10372   0.63746   0.67905   0.00000  Uiso   1.00
H877   H     0.30461   0.42206   0.69533   0.00000  Uiso   1.00
H878   H     0.04306   0.44478   0.69536   0.00000  Uiso   1.00
H879   H     0.00843   0.41246   0.74362   0.00000  Uiso   1.00
H880   H     0.02872   0.57794   0.80467   0.00000  Uiso   1.00
H881   H     0.32490   0.58754   0.75638   0.00000  Uiso   1.00
H882   H     0.24409   0.54089   0.88336   0.00000  Uiso   1.00
H883   H     0.29027   0.55522   0.80464   0.00000  Uiso   1.00
H884   H     0.28998   0.57481   0.53293   0.00000  Uiso   1.00
H885   H     0.04335   0.42519   0.96707   0.00000  Uiso   1.00
H886   H     0.00601   0.57077   0.62563   0.00000  Uiso   1.00
H887   H     0.32732   0.42923   0.87437   0.00000  Uiso   1.00
H888   H     0.00373   0.59687   0.96661   0.00000  Uiso   1.00
H889   H     0.28944   0.60807   0.92527   0.00000  Uiso   1.00
H890   H     0.32885   0.55034   0.92121   0.00000  Uiso   1.00
N891   N     0.31678   0.48598   0.73783   0.00000  Uiso   1.00
N892   N     0.01656   0.51402   0.76217   0.00000  Uiso   1.00
O893   O     0.12975   0.57952   0.75299   0.00000  Uiso   1.00
O894   O     0.31318   0.54764   0.60745   0.00000  Uiso   1.00
O895   O     0.09032   0.40310   0.85977   0.00000  Uiso   1.00
O896   O     0.02016   0.45236   0.89255   0.00000  Uiso   1.00
O897   O     0.28508   0.66452   0.72558   0.00000  Uiso   1.00
O898   O     0.26331   0.36055   0.79751   0.00000  Uiso   1.00
O899   O     0.04825   0.33548   0.77442   0.00000  Uiso   1.00
O900   O     0.07002   0.63945   0.70249   0.00000  Uiso   1.00
O901   O     0.20358   0.42048   0.74701   0.00000  Uiso   1.00
O902   O     0.22613   0.57054   0.74519   0.00000  Uiso   1.00
O903   O     0.10720   0.42946   0.75482   0.00000  Uiso   1.00
O904   O     0.11847   0.50450   0.81998   0.00000  Uiso   1.00
O905   O     0.21486   0.49550   0.68003   0.00000  Uiso   1.00
O906   O     0.21485   0.49552   0.81218   0.00000  Uiso   1.00
O907   O     0.11848   0.50448   0.68783   0.00000  Uiso   1.00
O908   O     0.24302   0.59690   0.64023   0.00000  Uiso   1.00
Zn909  Zn    0.10231   0.50600   0.75521   0.00000  Uiso   1.00
Zn910  Zn    0.23102   0.49400   0.74479   0.00000  Uiso   1.00
C911   C     0.51474   0.59777   0.74851   0.00000  Uiso   1.00
C912   C     0.54425   0.52141   0.90425   0.00000  Uiso   1.00
C913   C     0.50034   0.50437   0.61605   0.00000  Uiso   1.00
C914   C     0.49966   0.49563   0.88395   0.00000  Uiso   1.00
C915   C     0.54501   0.53037   0.59109   0.00000  Uiso   1.00
C916   C     0.45499   0.46963   0.90891   0.00000  Uiso   1.00
C917   C     0.54525   0.52818   0.54416   0.00000  Uiso   1.00
C918   C     0.45475   0.47182   0.95584   0.00000  Uiso   1.00
C919   C     0.50003   0.50105   0.52341   0.00000  Uiso   1.00
C920   C     0.49997   0.49895   0.97659   0.00000  Uiso   1.00
C921   C     0.45472   0.47629   0.54950   0.00000  Uiso   1.00
C922   C     0.48526   0.40223   0.75149   0.00000  Uiso   1.00
C923   C     0.54528   0.52371   0.95050   0.00000  Uiso   1.00
C924   C     0.58920   0.55310   0.51767   0.00000  Uiso   1.00
C925   C     0.41080   0.44690   0.98233   0.00000  Uiso   1.00
C926   C     0.58970   0.56089   0.61439   0.00000  Uiso   1.00
C927   C     0.41030   0.43911   0.88561   0.00000  Uiso   1.00
C928   C     0.63909   0.57806   0.94460   0.00000  Uiso   1.00
C929   C     0.36091   0.42194   0.55540   0.00000  Uiso   1.00
C930   C     0.58192   0.33722   0.75668   0.00000  Uiso   1.00
C931   C     0.41808   0.66278   0.74332   0.00000  Uiso   1.00
C932   C     0.33692   0.43898   0.71723   0.00000  Uiso   1.00
C933   C     0.59010   0.55086   0.97115   0.00000  Uiso   1.00
C934   C     0.66308   0.56102   0.78277   0.00000  Uiso   1.00
C935   C     0.40990   0.44914   0.52885   0.00000  Uiso   1.00
C936   C     0.52259   0.65170   0.75049   0.00000  Uiso   1.00
C937   C     0.47741   0.34830   0.74951   0.00000  Uiso   1.00
C938   C     0.49984   0.49844   0.83625   0.00000  Uiso   1.00
C939   C     0.50016   0.50156   0.66375   0.00000  Uiso   1.00
C940   C     0.45575   0.47859   0.59575   0.00000  Uiso   1.00
H941   H     0.42258   0.45911   0.61664   0.00000  Uiso   1.00
H942   H     0.66294   0.40313   0.53339   0.00000  Uiso   1.00
H943   H     0.33782   0.44966   0.57879   0.00000  Uiso   1.00
H944   H     0.37723   0.39193   0.57473   0.00000  Uiso   1.00
H945   H     0.56294   0.36254   0.82095   0.00000  Uiso   1.00
H946   H     0.43706   0.63746   0.67905   0.00000  Uiso   1.00
H947   H     0.63795   0.42206   0.69533   0.00000  Uiso   1.00
H948   H     0.37640   0.44478   0.69536   0.00000  Uiso   1.00
H949   H     0.34176   0.41246   0.74362   0.00000  Uiso   1.00
H950   H     0.36205   0.57794   0.80467   0.00000  Uiso   1.00
H951   H     0.65824   0.58754   0.75638   0.00000  Uiso   1.00
H952   H     0.57742   0.54089   0.88336   0.00000  Uiso   1.00
H953   H     0.62360   0.55522   0.80464   0.00000  Uiso   1.00
H954   H     0.62332   0.57481   0.53293   0.00000  Uiso   1.00
H955   H     0.37668   0.42519   0.96707   0.00000  Uiso   1.00
H956   H     0.33934   0.57077   0.62563   0.00000  Uiso   1.00
H957   H     0.66066   0.42923   0.87437   0.00000  Uiso   1.00
H958   H     0.33706   0.59687   0.96661   0.00000  Uiso   1.00
H959   H     0.62277   0.60807   0.92527   0.00000  Uiso   1.00
H960   H     0.66218   0.55034   0.92121   0.00000  Uiso   1.00
N961   N     0.65011   0.48598   0.73783   0.00000  Uiso   1.00
N962   N     0.34989   0.51402   0.76217   0.00000  Uiso   1.00
O963   O     0.46308   0.57952   0.75299   0.00000  Uiso   1.00
O964   O     0.64651   0.54764   0.60745   0.00000  Uiso   1.00
O965   O     0.42365   0.40310   0.85977   0.00000  Uiso   1.00
O966   O     0.35349   0.45236   0.89255   0.00000  Uiso   1.00
O967   O     0.61841   0.66452   0.72558   0.00000  Uiso   1.00
O968   O     0.59664   0.36055   0.79751   0.00000  Uiso   1.00
O969   O     0.38159   0.33548   0.77442   0.00000  Uiso   1.00
O970   O     0.40336   0.63945   0.70249   0.00000  Uiso   1.00
O971   O     0.53692   0.42048   0.74701   0.00000  Uiso   1.00
O972   O     0.55946   0.57054   0.74519   0.00000  Uiso   1.00
O973   O     0.44054   0.42946   0.75482   0.00000  Uiso   1.00
O974   O     0.45181   0.50450   0.81998   0.00000  Uiso   1.00
O975   O     0.54819   0.49550   0.68003   0.00000  Uiso   1.00
O976   O     0.54819   0.49552   0.81218   0.00000  Uiso   1.00
O977   O     0.45181   0.50448   0.68783   0.00000  Uiso   1.00
O978   O     0.57635   0.59690   0.64023   0.00000  Uiso   1.00
Zn979  Zn    0.43565   0.50600   0.75521   0.00000  Uiso   1.00
Zn980  Zn    0.56435   0.49400   0.74479   0.00000  Uiso   1.00
C981   C     0.84808   0.59777   0.74851   0.00000  Uiso   1.00
C982   C     0.87759   0.52141   0.90425   0.00000  Uiso   1.00
C983   C     0.83368   0.50437   0.61605   0.00000  Uiso   1.00
C984   C     0.83299   0.49563   0.88395   0.00000  Uiso   1.00
C985   C     0.87834   0.53037   0.59109   0.00000  Uiso   1.00
C986   C     0.78832   0.46963   0.90891   0.00000  Uiso   1.00
C987   C     0.87859   0.52818   0.54416   0.00000  Uiso   1.00
C988   C     0.78808   0.47182   0.95584   0.00000  Uiso   1.00
C989   C     0.83336   0.50105   0.52341   0.00000  Uiso   1.00
C990   C     0.83330   0.49895   0.97659   0.00000  Uiso   1.00
C991   C     0.78806   0.47629   0.54950   0.00000  Uiso   1.00
C992   C     0.81859   0.40223   0.75149   0.00000  Uiso   1.00
C993   C     0.87861   0.52371   0.95050   0.00000  Uiso   1.00
C994   C     0.92253   0.55310   0.51767   0.00000  Uiso   1.00
C995   C     0.74414   0.44690   0.98233   0.00000  Uiso   1.00
C996   C     0.92303   0.56089   0.61439   0.00000  Uiso   1.00
C997   C     0.74364   0.43911   0.88561   0.00000  Uiso   1.00
C998   C     0.97243   0.57806   0.94460   0.00000  Uiso   1.00
C999   C     0.69424   0.42194   0.55540   0.00000  Uiso   1.00
C1000  C     0.91525   0.33722   0.75668   0.00000  Uiso   1.00
C1001  C     0.75142   0.66278   0.74332   0.00000  Uiso   1.00
C1002  C     0.67026   0.43898   0.71723   0.00000  Uiso   1.00
C1003  C     0.92344   0.55086   0.97115   0.00000  Uiso   1.00
C1004  C     0.99641   0.56102   0.78277   0.00000  Uiso   1.00
C1005  C     0.74323   0.44914   0.52885   0.00000  Uiso   1.00
C1006  C     0.85593   0.65170   0.75049   0.00000  Uiso   1.00
C1007  C     0.81074   0.34830   0.74951   0.00000  Uiso   1.00
C1008  C     0.83317   0.49844   0.83625   0.00000  Uiso   1.00
C1009  C     0.83350   0.50156   0.66375   0.00000  Uiso   1.00
C1010  C     0.78908   0.47859   0.59575   0.00000  Uiso   1.00
H1011  H     0.75591   0.45911   0.61664   0.00000  Uiso   1.00
H1012  H     0.99627   0.40313   0.53339   0.00000  Uiso   1.00
H1013  H     0.67115   0.44966   0.57879   0.00000  Uiso   1.00
H1014  H     0.71056   0.39193   0.57473   0.00000  Uiso   1.00
H1015  H     0.89628   0.36254   0.82095   0.00000  Uiso   1.00
H1016  H     0.77039   0.63746   0.67905   0.00000  Uiso   1.00
H1017  H     0.97128   0.42206   0.69533   0.00000  Uiso   1.00
H1018  H     0.70973   0.44478   0.69536   0.00000  Uiso   1.00
H1019  H     0.67510   0.41246   0.74362   0.00000  Uiso   1.00
H1020  H     0.69539   0.57794   0.80467   0.00000  Uiso   1.00
H1021  H     0.99157   0.58754   0.75638   0.00000  Uiso   1.00
H1022  H     0.91075   0.54089   0.88336   0.00000  Uiso   1.00
H1023  H     0.95694   0.55522   0.80464   0.00000  Uiso   1.00
H1024  H     0.95665   0.57481   0.53293   0.00000  Uiso   1.00
H1025  H     0.71002   0.42519   0.96707   0.00000  Uiso   1.00
H1026  H     0.67268   0.57077   0.62563   0.00000  Uiso   1.00
H1027  H     0.99399   0.42923   0.87437   0.00000  Uiso   1.00
H1028  H     0.67039   0.59687   0.96661   0.00000  Uiso   1.00
H1029  H     0.95610   0.60807   0.92527   0.00000  Uiso   1.00
H1030  H     0.99551   0.55034   0.92121   0.00000  Uiso   1.00
N1031  N     0.98344   0.48598   0.73783   0.00000  Uiso   1.00
N1032  N     0.68322   0.51402   0.76217   0.00000  Uiso   1.00
O1033  O     0.79642   0.57952   0.75299   0.00000  Uiso   1.00
O1034  O     0.97984   0.54764   0.60745   0.00000  Uiso   1.00
O1035  O     0.75698   0.40310   0.85977   0.00000  Uiso   1.00
O1036  O     0.68682   0.45236   0.89255   0.00000  Uiso   1.00
O1037  O     0.95175   0.66452   0.72558   0.00000  Uiso   1.00
O1038  O     0.92998   0.36055   0.79751   0.00000  Uiso   1.00
O1039  O     0.71492   0.33548   0.77442   0.00000  Uiso   1.00
O1040  O     0.73669   0.63945   0.70249   0.00000  Uiso   1.00
O1041  O     0.87025   0.42048   0.74701   0.00000  Uiso   1.00
O1042  O     0.89280   0.57054   0.74519   0.00000  Uiso   1.00
O1043  O     0.77387   0.42946   0.75482   0.00000  Uiso   1.00
O1044  O     0.78514   0.50450   0.81998   0.00000  Uiso   1.00
O1045  O     0.88153   0.49550   0.68003   0.00000  Uiso   1.00
O1046  O     0.88152   0.49552   0.81218   0.00000  Uiso   1.00
O1047  O     0.78515   0.50448   0.68783   0.00000  Uiso   1.00
O1048  O     0.90968   0.59690   0.64023   0.00000  Uiso   1.00
Zn1049 Zn    0.76898   0.50600   0.75521   0.00000  Uiso   1.00
Zn1050 Zn    0.89769   0.49400   0.74479   0.00000  Uiso   1.00
C1051  C     0.18141   0.93110   0.74851   0.00000  Uiso   1.00
C1052  C     0.21092   0.85474   0.90425   0.00000  Uiso   1.00
C1053  C     0.16701   0.83770   0.61605   0.00000  Uiso   1.00
C1054  C     0.16632   0.82897   0.88395   0.00000  Uiso   1.00
C1055  C     0.21168   0.86370   0.59109   0.00000  Uiso   1.00
C1056  C     0.12166   0.80296   0.90891   0.00000  Uiso   1.00
C1057  C     0.21192   0.86152   0.54416   0.00000  Uiso   1.00
C1058  C     0.12142   0.80515   0.95584   0.00000  Uiso   1.00
C1059  C     0.16670   0.83439   0.52341   0.00000  Uiso   1.00
C1060  C     0.16664   0.83228   0.97659   0.00000  Uiso   1.00
C1061  C     0.12139   0.80962   0.54950   0.00000  Uiso   1.00
C1062  C     0.15192   0.73556   0.75149   0.00000  Uiso   1.00
C1063  C     0.21194   0.85704   0.95050   0.00000  Uiso   1.00
C1064  C     0.25586   0.88643   0.51767   0.00000  Uiso   1.00
C1065  C     0.07747   0.78024   0.98233   0.00000  Uiso   1.00
C1066  C     0.25636   0.89423   0.61439   0.00000  Uiso   1.00
C1067  C     0.07697   0.77244   0.88561   0.00000  Uiso   1.00
C1068  C     0.30576   0.91139   0.94460   0.00000  Uiso   1.00
C1069  C     0.02757   0.75528   0.55540   0.00000  Uiso   1.00
C1070  C     0.24858   0.67055   0.75668   0.00000  Uiso   1.00
C1071  C     0.08475   0.99611   0.74332   0.00000  Uiso   1.00
C1072  C     0.00359   0.77232   0.71723   0.00000  Uiso   1.00
C1073  C     0.25677   0.88420   0.97115   0.00000  Uiso   1.00
C1074  C     0.32974   0.89435   0.78277   0.00000  Uiso   1.00
C1075  C     0.07656   0.78247   0.52885   0.00000  Uiso   1.00
C1076  C     0.18926   0.98503   0.75049   0.00000  Uiso   1.00
C1077  C     0.14407   0.68163   0.74951   0.00000  Uiso   1.00
C1078  C     0.16650   0.83178   0.83625   0.00000  Uiso   1.00
C1079  C     0.16683   0.83489   0.66375   0.00000  Uiso   1.00
C1080  C     0.12242   0.81193   0.59575   0.00000  Uiso   1.00
H1081  H     0.08925   0.79244   0.61664   0.00000  Uiso   1.00
H1082  H     0.32961   0.73647   0.53339   0.00000  Uiso   1.00
H1083  H     0.00449   0.78299   0.57879   0.00000  Uiso   1.00
H1084  H     0.04390   0.72527   0.57473   0.00000  Uiso   1.00
H1085  H     0.22961   0.69587   0.82095   0.00000  Uiso   1.00
H1086  H     0.10372   0.97079   0.67905   0.00000  Uiso   1.00
H1087  H     0.30461   0.75539   0.69533   0.00000  Uiso   1.00
H1088  H     0.04306   0.77811   0.69536   0.00000  Uiso   1.00
H1089  H     0.00843   0.74580   0.74362   0.00000  Uiso   1.00
H1090  H     0.02872   0.91127   0.80467   0.00000  Uiso   1.00
H1091  H     0.32490   0.92087   0.75638   0.00000  Uiso   1.00
H1092  H     0.24409   0.87422   0.88336   0.00000  Uiso   1.00
H1093  H     0.29027   0.88856   0.80464   0.00000  Uiso   1.00
H1094  H     0.28998   0.90814   0.53293   0.00000  Uiso   1.00
H1095  H     0.04335   0.75852   0.96707   0.00000  Uiso   1.00
H1096  H     0.00601   0.90411   0.62563   0.00000  Uiso   1.00
H1097  H     0.32732   0.76256   0.87437   0.00000  Uiso   1.00
H1098  H     0.00373   0.93020   0.96661   0.00000  Uiso   1.00
H1099  H     0.28944   0.94140   0.92527   0.00000  Uiso   1.00
H1100  H     0.32885   0.88368   0.92121   0.00000  Uiso   1.00
N1101  N     0.31678   0.81932   0.73783   0.00000  Uiso   1.00
N1102  N     0.01656   0.84735   0.76217   0.00000  Uiso   1.00
O1103  O     0.12975   0.91286   0.75299   0.00000  Uiso   1.00
O1104  O     0.31318   0.88097   0.60745   0.00000  Uiso   1.00
O1105  O     0.09032   0.73644   0.85977   0.00000  Uiso   1.00
O1106  O     0.02016   0.78570   0.89255   0.00000  Uiso   1.00
O1107  O     0.28508   0.99785   0.72558   0.00000  Uiso   1.00
O1108  O     0.26331   0.69388   0.79751   0.00000  Uiso   1.00
O1109  O     0.04825   0.66881   0.77442   0.00000  Uiso   1.00
O1110  O     0.07002   0.97279   0.70249   0.00000  Uiso   1.00
O1111  O     0.20358   0.75381   0.74701   0.00000  Uiso   1.00
O1112  O     0.22613   0.90387   0.74519   0.00000  Uiso   1.00
O1113  O     0.10720   0.76279   0.75482   0.00000  Uiso   1.00
O1114  O     0.11847   0.83784   0.81998   0.00000  Uiso   1.00
O1115  O     0.21486   0.82883   0.68003   0.00000  Uiso   1.00
O1116  O     0.21485   0.82885   0.81218   0.00000  Uiso   1.00
O1117  O     0.11848   0.83781   0.68783   0.00000  Uiso   1.00
O1118  O     0.24302   0.93023   0.64023   0.00000  Uiso   1.00
Zn1119 Zn    0.10231   0.83933   0.75521   0.00000  Uiso   1.00
Zn1120 Zn    0.23102   0.82734   0.74479   0.00000  Uiso   1.00
C1121  C     0.51474   0.93110   0.74851   0.00000  Uiso   1.00
C1122  C     0.54425   0.85474   0.90425   0.00000  Uiso   1.00
C1123  C     0.50034   0.83770   0.61605   0.00000  Uiso   1.00
C1124  C     0.49966   0.82897   0.88395   0.00000  Uiso   1.00
C1125  C     0.54501   0.86370   0.59109   0.00000  Uiso   1.00
C1126  C     0.45499   0.80296   0.90891   0.00000  Uiso   1.00
C1127  C     0.54525   0.86152   0.54416   0.00000  Uiso   1.00
C1128  C     0.45475   0.80515   0.95584   0.00000  Uiso   1.00
C1129  C     0.50003   0.83439   0.52341   0.00000  Uiso   1.00
C1130  C     0.49997   0.83228   0.97659   0.00000  Uiso   1.00
C1131  C     0.45472   0.80962   0.54950   0.00000  Uiso   1.00
C1132  C     0.48526   0.73556   0.75149   0.00000  Uiso   1.00
C1133  C     0.54528   0.85704   0.95050   0.00000  Uiso   1.00
C1134  C     0.58920   0.88643   0.51767   0.00000  Uiso   1.00
C1135  C     0.41080   0.78024   0.98233   0.00000  Uiso   1.00
C1136  C     0.58970   0.89423   0.61439   0.00000  Uiso   1.00
C1137  C     0.41030   0.77244   0.88561   0.00000  Uiso   1.00
C1138  C     0.63909   0.91139   0.94460   0.00000  Uiso   1.00
C1139  C     0.36091   0.75528   0.55540   0.00000  Uiso   1.00
C1140  C     0.58192   0.67055   0.75668   0.00000  Uiso   1.00
C1141  C     0.41808   0.99611   0.74332   0.00000  Uiso   1.00
C1142  C     0.33692   0.77232   0.71723   0.00000  Uiso   1.00
C1143  C     0.59010   0.88420   0.97115   0.00000  Uiso   1.00
C1144  C     0.66308   0.89435   0.78277   0.00000  Uiso   1.00
C1145  C     0.40990   0.78247   0.52885   0.00000  Uiso   1.00
C1146  C     0.52259   0.98503   0.75049   0.00000  Uiso   1.00
C1147  C     0.47741   0.68163   0.74951   0.00000  Uiso   1.00
C1148  C     0.49984   0.83178   0.83625   0.00000  Uiso   1.00
C1149  C     0.50016   0.83489   0.66375   0.00000  Uiso   1.00
C1150  C     0.45575   0.81193   0.59575   0.00000  Uiso   1.00
H1151  H     0.42258   0.79244   0.61664   0.00000  Uiso   1.00
H1152  H     0.66294   0.73647   0.53339   0.00000  Uiso   1.00
H1153  H     0.33782   0.78299   0.57879   0.00000  Uiso   1.00
H1154  H     0.37723   0.72527   0.57473   0.00000  Uiso   1.00
H1155  H     0.56294   0.69587   0.82095   0.00000  Uiso   1.00
H1156  H     0.43706   0.97079   0.67905   0.00000  Uiso   1.00
H1157  H     0.63795   0.75539   0.69533   0.00000  Uiso   1.00
H1158  H     0.37640   0.77811   0.69536   0.00000  Uiso   1.00
H1159  H     0.34176   0.74580   0.74362   0.00000  Uiso   1.00
H1160  H     0.36205   0.91127   0.80467   0.00000  Uiso   1.00
H1161  H     0.65824   0.92087   0.75638   0.00000  Uiso   1.00
H1162  H     0.57742   0.87422   0.88336   0.00000  Uiso   1.00
H1163  H     0.62360   0.88856   0.80464   0.00000  Uiso   1.00
H1164  H     0.62332   0.90814   0.53293   0.00000  Uiso   1.00
H1165  H     0.37668   0.75852   0.96707   0.00000  Uiso   1.00
H1166  H     0.33934   0.90411   0.62563   0.00000  Uiso   1.00
H1167  H     0.66066   0.76256   0.87437   0.00000  Uiso   1.00
H1168  H     0.33706   0.93020   0.96661   0.00000  Uiso   1.00
H1169  H     0.62277   0.94140   0.92527   0.00000  Uiso   1.00
H1170  H     0.66218   0.88368   0.92121   0.00000  Uiso   1.00
N1171  N     0.65011   0.81932   0.73783   0.00000  Uiso   1.00
N1172  N     0.34989   0.84735   0.76217   0.00000  Uiso   1.00
O1173  O     0.46308   0.91286   0.75299   0.00000  Uiso   1.00
O1174  O     0.64651   0.88097   0.60745   0.00000  Uiso   1.00
O1175  O     0.42365   0.73644   0.85977   0.00000  Uiso   1.00
O1176  O     0.35349   0.78570   0.89255   0.00000  Uiso   1.00
O1177  O     0.61841   0.99785   0.72558   0.00000  Uiso   1.00
O1178  O     0.59664   0.69388   0.79751   0.00000  Uiso   1.00
O1179  O     0.38159   0.66881   0.77442   0.00000  Uiso   1.00
O1180  O     0.40336   0.97279   0.70249   0.00000  Uiso   1.00
O1181  O     0.53692   0.75381   0.74701   0.00000  Uiso   1.00
O1182  O     0.55946   0.90387   0.74519   0.00000  Uiso   1.00
O1183  O     0.44054   0.76279   0.75482   0.00000  Uiso   1.00
O1184  O     0.45181   0.83784   0.81998   0.00000  Uiso   1.00
O1185  O     0.54819   0.82883   0.68003   0.00000  Uiso   1.00
O1186  O     0.54819   0.82885   0.81218   0.00000  Uiso   1.00
O1187  O     0.45181   0.83781   0.68783   0.00000  Uiso   1.00
O1188  O     0.57635   0.93023   0.64023   0.00000  Uiso   1.00
Zn1189 Zn    0.43565   0.83933   0.75521   0.00000  Uiso   1.00
Zn1190 Zn    0.56435   0.82734   0.74479   0.00000  Uiso   1.00
C1191  C     0.84808   0.93110   0.74851   0.00000  Uiso   1.00
C1192  C     0.87759   0.85474   0.90425   0.00000  Uiso   1.00
C1193  C     0.83368   0.83770   0.61605   0.00000  Uiso   1.00
C1194  C     0.83299   0.82897   0.88395   0.00000  Uiso   1.00
C1195  C     0.87834   0.86370   0.59109   0.00000  Uiso   1.00
C1196  C     0.78832   0.80296   0.90891   0.00000  Uiso   1.00
C1197  C     0.87859   0.86152   0.54416   0.00000  Uiso   1.00
C1198  C     0.78808   0.80515   0.95584   0.00000  Uiso   1.00
C1199  C     0.83336   0.83439   0.52341   0.00000  Uiso   1.00
C1200  C     0.83330   0.83228   0.97659   0.00000  Uiso   1.00
C1201  C     0.78806   0.80962   0.54950   0.00000  Uiso   1.00
C1202  C     0.81859   0.73556   0.75149   0.00000  Uiso   1.00
C1203  C     0.87861   0.85704   0.95050   0.00000  Uiso   1.00
C1204  C     0.92253   0.88643   0.51767   0.00000  Uiso   1.00
C1205  C     0.74414   0.78024   0.98233   0.00000  Uiso   1.00
C1206  C     0.92303   0.89423   0.61439   0.00000  Uiso   1.00
C1207  C     0.74364   0.77244   0.88561   0.00000  Uiso   1.00
C1208  C     0.97243   0.91139   0.94460   0.00000  Uiso   1.00
C1209  C     0.69424   0.75528   0.55540   0.00000  Uiso   1.00
C1210  C     0.91525   0.67055   0.75668   0.00000  Uiso   1.00
C1211  C     0.75142   0.99611   0.74332   0.00000  Uiso   1.00
C1212  C     0.67026   0.77232   0.71723   0.00000  Uiso   1.00
C1213  C     0.92344   0.88420   0.97115   0.00000  Uiso   1.00
C1214  C     0.99641   0.89435   0.78277   0.00000  Uiso   1.00
C1215  C     0.74323   0.78247   0.52885   0.00000  Uiso   1.00
C1216  C     0.85593   0.98503   0.75049   0.00000  Uiso   1.00
C1217  C     0.81074   0.68163   0.74951   0.00000  Uiso   1.00
C1218  C     0.83317   0.83178   0.83625   0.00000  Uiso   1.00
C1219  C     0.83350   0.83489   0.66375   0.00000  Uiso   1.00
C1220  C     0.78908   0.81193   0.59575   0.00000  Uiso   1.00
H1221  H     0.75591   0.79244   0.61664   0.00000  Uiso   1.00
H1222  H     0.99627   0.73647   0.53339   0.00000  Uiso   1.00
H1223  H     0.67115   0.78299   0.57879   0.00000  Uiso   1.00
H1224  H     0.71056   0.72527   0.57473   0.00000  Uiso   1.00
H1225  H     0.89628   0.69587   0.82095   0.00000  Uiso   1.00
H1226  H     0.77039   0.97079   0.67905   0.00000  Uiso   1.00
H1227  H     0.97128   0.75539   0.69533   0.00000  Uiso   1.00
H1228  H     0.70973   0.77811   0.69536   0.00000  Uiso   1.00
H1229  H     0.67510   0.74580   0.74362   0.00000  Uiso   1.00
H1230  H     0.69539   0.91127   0.80467   0.00000  Uiso   1.00
H1231  H     0.99157   0.92087   0.75638   0.00000  Uiso   1.00
H1232  H     0.91075   0.87422   0.88336   0.00000  Uiso   1.00
H1233  H     0.95694   0.88856   0.80464   0.00000  Uiso   1.00
H1234  H     0.95665   0.90814   0.53293   0.00000  Uiso   1.00
H1235  H     0.71002   0.75852   0.96707   0.00000  Uiso   1.00
H1236  H     0.67268   0.90411   0.62563   0.00000  Uiso   1.00
H1237  H     0.99399   0.76256   0.87437   0.00000  Uiso   1.00
H1238  H     0.67039   0.93020   0.96661   0.00000  Uiso   1.00
H1239  H     0.95610   0.94140   0.92527   0.00000  Uiso   1.00
H1240  H     0.99551   0.88368   0.92121   0.00000  Uiso   1.00
N1241  N     0.98344   0.81932   0.73783   0.00000  Uiso   1.00
N1242  N     0.68322   0.84735   0.76217   0.00000  Uiso   1.00
O1243  O     0.79642   0.91286   0.75299   0.00000  Uiso   1.00
O1244  O     0.97984   0.88097   0.60745   0.00000  Uiso   1.00
O1245  O     0.75698   0.73644   0.85977   0.00000  Uiso   1.00
O1246  O     0.68682   0.78570   0.89255   0.00000  Uiso   1.00
O1247  O     0.95175   0.99785   0.72558   0.00000  Uiso   1.00
O1248  O     0.92998   0.69388   0.79751   0.00000  Uiso   1.00
O1249  O     0.71492   0.66881   0.77442   0.00000  Uiso   1.00
O1250  O     0.73669   0.97279   0.70249   0.00000  Uiso   1.00
O1251  O     0.87025   0.75381   0.74701   0.00000  Uiso   1.00
O1252  O     0.89280   0.90387   0.74519   0.00000  Uiso   1.00
O1253  O     0.77387   0.76279   0.75482   0.00000  Uiso   1.00
O1254  O     0.78514   0.83784   0.81998   0.00000  Uiso   1.00
O1255  O     0.88153   0.82883   0.68003   0.00000  Uiso   1.00
O1256  O     0.88152   0.82885   0.81218   0.00000  Uiso   1.00
O1257  O     0.78515   0.83781   0.68783   0.00000  Uiso   1.00
O1258  O     0.90968   0.93023   0.64023   0.00000  Uiso   1.00
Zn1259 Zn    0.76898   0.83933   0.75521   0.00000  Uiso   1.00
Zn1260 Zn    0.89769   0.82734   0.74479   0.00000  Uiso   1.00
loop_
_geom_bond_atom_site_label_1
_geom_bond_atom_site_label_2
_geom_bond_distance
_geom_bond_site_symmetry_2
_ccdc_geom_bond_type
C1     O62     1.301   .     A
C1     C26     1.418   .     S
C1     O53     1.284   .     A
C2     C4      1.388   .     A
C2     C13     1.385   .     A
C2     H42     1.082   .     S
C3     C30     1.388   .     A
C3     C5      1.405   .     A
C3     C29     1.434   .     S
C4     C28     1.434   .     S
C4     C6      1.405   .     A
C5     C7      1.402   .     A
C5     C16     1.489   .     S
C6     C17     1.489   .     S
C6     C8      1.402   .     A
C7     C9      1.421   .     A
C7     C14     1.404   .     A
C8     C10     1.421   .     A
C8     C15     1.404   .     A
C9     C11     1.418   .     A
C9     C640    1.400   1_554 S
C10    C13     1.418   .     A
C10    C639    1.400   .     S
C11    C30     1.385   .     A
C11    C25     1.412   .     A
C12    O61     1.284   .     A
C12    O63     1.301   .     A
C12    C27     1.418   .     S
C13    C23     1.412   .     A
C14    H44     1.081   .     S
C14    C653    1.389   1_554 S
C15    H45     1.081   .     S
C15    C655    1.389   .     S
C16    O68     1.223   .     D
C16    O54     1.398   .     S
C17    O55     1.223   .     D
C17    O56     1.398   .     S
C18    C23     1.513   .     S
C18    H50     1.110   .     S
C18    H49     1.110   .     S
C18    H118    1.111   .     S
C19    C25     1.513   .     S
C19    H33     1.110   .     S
C19    H34     1.110   .     S
C19    H172    1.111   1_455 S
C20    O58     1.398   .     S
C20    C446    1.483   1_545 S
C20    O477    1.219   1_545 S
C21    O60     1.398   .     S
C21    C237    1.483   .     S
C21    O269    1.219   .     S
C22    H38     1.098   .     S
C22    H39     1.101   .     S
C22    H177    1.108   1_455 S
C22    N191    1.433   1_455 S
C23    C644    1.389   .     S
C24    H41     1.101   .     S
C24    H43     1.098   .     S
C24    H110    1.108   .     S
C24    N122    1.433   .     S
C25    C645    1.389   1_554 S
C26    C230    1.483   .     S
C26    C237    1.363   .     S
C27    C446    1.363   1_545 S
C27    C441    1.483   1_545 S
C28    O66     1.297   .     A
C28    O64     1.295   .     A
C29    O65     1.295   .     A
C29    O67     1.297   .     A
C30    H31     1.082   .     S
H32    C89     1.111   .     S
H35    O58     1.013   .     S
H36    O60     1.013   .     S
H37    C92     1.108   .     S
H40    C164    1.108   1_455 S
H46    O194    1.014   1_455 S
H47    O126    1.014   .     S
H48    C158    1.111   1_455 S
N51    Zn70    2.037   .     S
N51    C92     1.433   .     S
N51    N122    1.289   .     S
N52    Zn69    2.037   .     S
N52    N191    1.289   1_455 S
N52    C164    1.433   1_455 S
O53    Zn69    2.007   .     S
O54    H116    1.014   .     S
O56    H187    1.014   1_455 S
O57    C230    1.219   .     S
O59    C441    1.219   1_545 S
O61    Zn70    2.007   .     S
O62    Zn70    2.020   .     S
O63    Zn69    2.020   .     S
O64    Zn69    2.013   .     S
O65    Zn70    2.013   .     S
O66    Zn70    2.017   .     S
O67    Zn69    2.017   .     S
C71    O132    1.301   .     A
C71    C96     1.418   .     S
C71    O123    1.284   .     A
C72    C74     1.388   .     A
C72    C83     1.385   .     A
C72    H112    1.082   .     S
C73    C100    1.388   .     A
C73    C75     1.405   .     A
C73    C99     1.434   .     S
C74    C98     1.434   .     S
C74    C76     1.405   .     A
C75    C77     1.402   .     A
C75    C86     1.489   .     S
C76    C87     1.489   .     S
C76    C78     1.402   .     A
C77    C79     1.421   .     A
C77    C84     1.404   .     A
C78    C80     1.421   .     A
C78    C85     1.404   .     A
C79    C81     1.418   .     A
C79    C710    1.400   1_554 S
C80    C83     1.418   .     A
C80    C709    1.400   .     S
C81    C100    1.385   .     A
C81    C95     1.412   .     A
C82    O131    1.284   .     A
C82    O133    1.301   .     A
C82    C97     1.418   .     S
C83    C93     1.412   .     A
C84    H114    1.081   .     S
C84    C723    1.389   1_554 S
C85    H115    1.081   .     S
C85    C725    1.389   .     S
C86    O138    1.223   .     D
C86    O124    1.398   .     S
C87    O125    1.223   .     D
C87    O126    1.398   .     S
C88    C93     1.513   .     S
C88    H120    1.110   .     S
C88    H119    1.110   .     S
C88    H188    1.111   .     S
C89    C95     1.513   .     S
C89    H103    1.110   .     S
C89    H104    1.110   .     S
C90    O128    1.398   .     S
C90    C516    1.483   1_545 S
C90    O547    1.219   1_545 S
C91    O130    1.398   .     S
C91    C307    1.483   .     S
C91    O339    1.219   .     S
C92    H108    1.098   .     S
C92    H109    1.101   .     S
C93    C714    1.389   .     S
C94    H111    1.101   .     S
C94    H113    1.098   .     S
C94    H180    1.108   .     S
C94    N192    1.433   .     S
C95    C715    1.389   1_554 S
C96    C300    1.483   .     S
C96    C307    1.363   .     S
C97    C516    1.363   1_545 S
C97    C511    1.483   1_545 S
C98    O136    1.297   .     A
C98    O134    1.295   .     A
C99    O135    1.295   .     A
C99    O137    1.297   .     A
C100   H101    1.082   .     S
H102   C159    1.111   .     S
H105   O128    1.013   .     S
H106   O130    1.013   .     S
H107   C162    1.108   .     S
H117   O196    1.014   .     S
N121   Zn140   2.037   .     S
N121   C162    1.433   .     S
N121   N192    1.289   .     S
N122   Zn139   2.037   .     S
O123   Zn139   2.007   .     S
O124   H186    1.014   .     S
O127   C300    1.219   .     S
O129   C511    1.219   1_545 S
O131   Zn140   2.007   .     S
O132   Zn140   2.020   .     S
O133   Zn139   2.020   .     S
O134   Zn139   2.013   .     S
O135   Zn140   2.013   .     S
O136   Zn140   2.017   .     S
O137   Zn139   2.017   .     S
C141   O202    1.301   .     A
C141   C166    1.418   .     S
C141   O193    1.284   .     A
C142   C144    1.388   .     A
C142   C153    1.385   .     A
C142   H182    1.082   .     S
C143   C170    1.388   .     A
C143   C145    1.405   .     A
C143   C169    1.434   .     S
C144   C168    1.434   .     S
C144   C146    1.405   .     A
C145   C147    1.402   .     A
C145   C156    1.489   .     S
C146   C157    1.489   .     S
C146   C148    1.402   .     A
C147   C149    1.421   .     A
C147   C154    1.404   .     A
C148   C150    1.421   .     A
C148   C155    1.404   .     A
C149   C151    1.418   .     A
C149   C780    1.400   1_554 S
C150   C153    1.418   .     A
C150   C779    1.400   .     S
C151   C170    1.385   .     A
C151   C165    1.412   .     A
C152   O201    1.284   .     A
C152   O203    1.301   .     A
C152   C167    1.418   .     S
C153   C163    1.412   .     A
C154   H184    1.081   .     S
C154   C793    1.389   1_554 S
C155   H185    1.081   .     S
C155   C795    1.389   .     S
C156   O208    1.223   .     D
C156   O194    1.398   .     S
C157   O195    1.223   .     D
C157   O196    1.398   .     S
C158   C163    1.513   .     S
C158   H190    1.110   .     S
C158   H189    1.110   .     S
C158   H48     1.111   1_655 S
C159   C165    1.513   .     S
C159   H173    1.110   .     S
C159   H174    1.110   .     S
C160   O198    1.398   .     S
C160   C586    1.483   1_545 S
C160   O617    1.219   1_545 S
C161   O200    1.398   .     S
C161   C377    1.483   .     S
C161   O409    1.219   .     S
C162   H178    1.098   .     S
C162   H179    1.101   .     S
C163   C784    1.389   .     S
C164   H181    1.101   .     S
C164   H183    1.098   .     S
C164   H40     1.108   1_655 S
C164   N52     1.433   1_655 S
C165   C785    1.389   1_554 S
C166   C370    1.483   .     S
C166   C377    1.363   .     S
C167   C586    1.363   1_545 S
C167   C581    1.483   1_545 S
C168   O206    1.297   .     A
C168   O204    1.295   .     A
C169   O205    1.295   .     A
C169   O207    1.297   .     A
C170   H171    1.082   .     S
H172   C19     1.111   1_655 S
H175   O198    1.013   .     S
H176   O200    1.013   .     S
H177   C22     1.108   1_655 S
H187   O56     1.014   1_655 S
N191   Zn210   2.037   .     S
N191   C22     1.433   1_655 S
N191   N52     1.289   1_655 S
N192   Zn209   2.037   .     S
O193   Zn209   2.007   .     S
O194   H46     1.014   1_655 S
O197   C370    1.219   .     S
O199   C581    1.219   1_545 S
O201   Zn210   2.007   .     S
O202   Zn210   2.020   .     S
O203   Zn209   2.020   .     S
O204   Zn209   2.013   .     S
O205   Zn210   2.013   .     S
O206   Zn210   2.017   .     S
O207   Zn209   2.017   .     S
C211   O272    1.301   .     A
C211   C236    1.418   .     S
C211   O263    1.284   .     A
C212   C214    1.388   .     A
C212   C223    1.385   .     A
C212   H252    1.082   .     S
C213   C240    1.388   .     A
C213   C215    1.405   .     A
C213   C239    1.434   .     S
C214   C238    1.434   .     S
C214   C216    1.405   .     A
C215   C217    1.402   .     A
C215   C226    1.489   .     S
C216   C227    1.489   .     S
C216   C218    1.402   .     A
C217   C219    1.421   .     A
C217   C224    1.404   .     A
C218   C220    1.421   .     A
C218   C225    1.404   .     A
C219   C221    1.418   .     A
C219   C850    1.400   1_554 S
C220   C223    1.418   .     A
C220   C849    1.400   .     S
C221   C240    1.385   .     A
C221   C235    1.412   .     A
C222   O271    1.284   .     A
C222   O273    1.301   .     A
C222   C237    1.418   .     S
C223   C233    1.412   .     A
C224   H254    1.081   .     S
C224   C863    1.389   1_554 S
C225   H255    1.081   .     S
C225   C865    1.389   .     S
C226   O278    1.223   .     D
C226   O264    1.398   .     S
C227   O265    1.223   .     D
C227   O266    1.398   .     S
C228   C233    1.513   .     S
C228   H260    1.110   .     S
C228   H259    1.110   .     S
C228   H328    1.111   .     S
C229   C235    1.513   .     S
C229   H243    1.110   .     S
C229   H244    1.110   .     S
C229   H382    1.111   1_455 S
C230   O268    1.398   .     S
C231   O270    1.398   .     S
C231   C447    1.483   .     S
C231   O479    1.219   .     S
C232   H248    1.098   .     S
C232   H249    1.101   .     S
C232   H387    1.108   1_455 S
C232   N401    1.433   1_455 S
C233   C854    1.389   .     S
C234   H251    1.101   .     S
C234   H253    1.098   .     S
C234   H320    1.108   .     S
C234   N332    1.433   .     S
C235   C855    1.389   1_554 S
C236   C440    1.483   .     S
C236   C447    1.363   .     S
C238   O276    1.297   .     A
C238   O274    1.295   .     A
C239   O275    1.295   .     A
C239   O277    1.297   .     A
C240   H241    1.082   .     S
H242   C299    1.111   .     S
H245   O268    1.013   .     S
H246   O270    1.013   .     S
H247   C302    1.108   .     S
H250   C374    1.108   1_455 S
H256   O404    1.014   1_455 S
H257   O336    1.014   .     S
H258   C368    1.111   1_455 S
N261   Zn280   2.037   .     S
N261   C302    1.433   .     S
N261   N332    1.289   .     S
N262   Zn279   2.037   .     S
N262   N401    1.289   1_455 S
N262   C374    1.433   1_455 S
O263   Zn279   2.007   .     S
O264   H326    1.014   .     S
O266   H397    1.014   1_455 S
O267   C440    1.219   .     S
O271   Zn280   2.007   .     S
O272   Zn280   2.020   .     S
O273   Zn279   2.020   .     S
O274   Zn279   2.013   .     S
O275   Zn280   2.013   .     S
O276   Zn280   2.017   .     S
O277   Zn279   2.017   .     S
C281   O342    1.301   .     A
C281   C306    1.418   .     S
C281   O333    1.284   .     A
C282   C284    1.388   .     A
C282   C293    1.385   .     A
C282   H322    1.082   .     S
C283   C310    1.388   .     A
C283   C285    1.405   .     A
C283   C309    1.434   .     S
C284   C308    1.434   .     S
C284   C286    1.405   .     A
C285   C287    1.402   .     A
C285   C296    1.489   .     S
C286   C297    1.489   .     S
C286   C288    1.402   .     A
C287   C289    1.421   .     A
C287   C294    1.404   .     A
C288   C290    1.421   .     A
C288   C295    1.404   .     A
C289   C291    1.418   .     A
C289   C920    1.400   1_554 S
C290   C293    1.418   .     A
C290   C919    1.400   .     S
C291   C310    1.385   .     A
C291   C305    1.412   .     A
C292   O341    1.284   .     A
C292   O343    1.301   .     A
C292   C307    1.418   .     S
C293   C303    1.412   .     A
C294   H324    1.081   .     S
C294   C933    1.389   1_554 S
C295   H325    1.081   .     S
C295   C935    1.389   .     S
C296   O348    1.223   .     D
C296   O334    1.398   .     S
C297   O335    1.223   .     D
C297   O336    1.398   .     S
C298   C303    1.513   .     S
C298   H330    1.110   .     S
C298   H329    1.110   .     S
C298   H398    1.111   .     S
C299   C305    1.513   .     S
C299   H313    1.110   .     S
C299   H314    1.110   .     S
C300   O338    1.398   .     S
C301   O340    1.398   .     S
C301   C517    1.483   .     S
C301   O549    1.219   .     S
C302   H318    1.098   .     S
C302   H319    1.101   .     S
C303   C924    1.389   .     S
C304   H321    1.101   .     S
C304   H323    1.098   .     S
C304   H390    1.108   .     S
C304   N402    1.433   .     S
C305   C925    1.389   1_554 S
C306   C510    1.483   .     S
C306   C517    1.363   .     S
C308   O346    1.297   .     A
C308   O344    1.295   .     A
C309   O345    1.295   .     A
C309   O347    1.297   .     A
C310   H311    1.082   .     S
H312   C369    1.111   .     S
H315   O338    1.013   .     S
H316   O340    1.013   .     S
H317   C372    1.108   .     S
H327   O406    1.014   .     S
N331   Zn350   2.037   .     S
N331   C372    1.433   .     S
N331   N402    1.289   .     S
N332   Zn349   2.037   .     S
O333   Zn349   2.007   .     S
O334   H396    1.014   .     S
O337   C510    1.219   .     S
O341   Zn350   2.007   .     S
O342   Zn350   2.020   .     S
O343   Zn349   2.020   .     S
O344   Zn349   2.013   .     S
O345   Zn350   2.013   .     S
O346   Zn350   2.017   .     S
O347   Zn349   2.017   .     S
C351   O412    1.301   .     A
C351   C376    1.418   .     S
C351   O403    1.284   .     A
C352   C354    1.388   .     A
C352   C363    1.385   .     A
C352   H392    1.082   .     S
C353   C380    1.388   .     A
C353   C355    1.405   .     A
C353   C379    1.434   .     S
C354   C378    1.434   .     S
C354   C356    1.405   .     A
C355   C357    1.402   .     A
C355   C366    1.489   .     S
C356   C367    1.489   .     S
C356   C358    1.402   .     A
C357   C359    1.421   .     A
C357   C364    1.404   .     A
C358   C360    1.421   .     A
C358   C365    1.404   .     A
C359   C361    1.418   .     A
C359   C990    1.400   1_554 S
C360   C363    1.418   .     A
C360   C989    1.400   .     S
C361   C380    1.385   .     A
C361   C375    1.412   .     A
C362   O411    1.284   .     A
C362   O413    1.301   .     A
C362   C377    1.418   .     S
C363   C373    1.412   .     A
C364   H394    1.081   .     S
C364   C1003   1.389   1_554 S
C365   H395    1.081   .     S
C365   C1005   1.389   .     S
C366   O418    1.223   .     D
C366   O404    1.398   .     S
C367   O405    1.223   .     D
C367   O406    1.398   .     S
C368   C373    1.513   .     S
C368   H400    1.110   .     S
C368   H399    1.110   .     S
C368   H258    1.111   1_655 S
C369   C375    1.513   .     S
C369   H383    1.110   .     S
C369   H384    1.110   .     S
C370   O408    1.398   .     S
C371   O410    1.398   .     S
C371   C587    1.483   .     S
C371   O619    1.219   .     S
C372   H388    1.098   .     S
C372   H389    1.101   .     S
C373   C994    1.389   .     S
C374   H391    1.101   .     S
C374   H393    1.098   .     S
C374   H250    1.108   1_655 S
C374   N262    1.433   1_655 S
C375   C995    1.389   1_554 S
C376   C580    1.483   .     S
C376   C587    1.363   .     S
C378   O416    1.297   .     A
C378   O414    1.295   .     A
C379   O415    1.295   .     A
C379   O417    1.297   .     A
C380   H381    1.082   .     S
H382   C229    1.111   1_655 S
H385   O408    1.013   .     S
H386   O410    1.013   .     S
H387   C232    1.108   1_655 S
H397   O266    1.014   1_655 S
N401   Zn420   2.037   .     S
N401   C232    1.433   1_655 S
N401   N262    1.289   1_655 S
N402   Zn419   2.037   .     S
O403   Zn419   2.007   .     S
O404   H256    1.014   1_655 S
O407   C580    1.219   .     S
O411   Zn420   2.007   .     S
O412   Zn420   2.020   .     S
O413   Zn419   2.020   .     S
O414   Zn419   2.013   .     S
O415   Zn420   2.013   .     S
O416   Zn420   2.017   .     S
O417   Zn419   2.017   .     S
C421   O482    1.301   .     A
C421   C446    1.418   .     S
C421   O473    1.284   .     A
C422   C424    1.388   .     A
C422   C433    1.385   .     A
C422   H462    1.082   .     S
C423   C450    1.388   .     A
C423   C425    1.405   .     A
C423   C449    1.434   .     S
C424   C448    1.434   .     S
C424   C426    1.405   .     A
C425   C427    1.402   .     A
C425   C436    1.489   .     S
C426   C437    1.489   .     S
C426   C428    1.402   .     A
C427   C429    1.421   .     A
C427   C434    1.404   .     A
C428   C430    1.421   .     A
C428   C435    1.404   .     A
C429   C431    1.418   .     A
C429   C1060   1.400   1_554 S
C430   C433    1.418   .     A
C430   C1059   1.400   .     S
C431   C450    1.385   .     A
C431   C445    1.412   .     A
C432   O481    1.284   .     A
C432   O483    1.301   .     A
C432   C447    1.418   .     S
C433   C443    1.412   .     A
C434   H464    1.081   .     S
C434   C1073   1.389   1_554 S
C435   H465    1.081   .     S
C435   C1075   1.389   .     S
C436   O488    1.223   .     D
C436   O474    1.398   .     S
C437   O475    1.223   .     D
C437   O476    1.398   .     S
C438   C443    1.513   .     S
C438   H470    1.110   .     S
C438   H469    1.110   .     S
C438   H538    1.111   .     S
C439   C445    1.513   .     S
C439   H453    1.110   .     S
C439   H454    1.110   .     S
C439   H592    1.111   1_455 S
C440   O478    1.398   .     S
C441   O480    1.398   .     S
C441   C27     1.483   1_565 S
C441   O59     1.219   1_565 S
C442   H458    1.098   .     S
C442   H459    1.101   .     S
C442   H597    1.108   1_455 S
C442   N611    1.433   1_455 S
C443   C1064   1.389   .     S
C444   H461    1.101   .     S
C444   H463    1.098   .     S
C444   H530    1.108   .     S
C444   N542    1.433   .     S
C445   C1065   1.389   1_554 S
C446   C20     1.483   1_565 S
C446   C27     1.363   1_565 S
C448   O486    1.297   .     A
C448   O484    1.295   .     A
C449   O485    1.295   .     A
C449   O487    1.297   .     A
C450   H451    1.082   .     S
H452   C509    1.111   .     S
H455   O478    1.013   .     S
H456   O480    1.013   .     S
H457   C512    1.108   .     S
H460   C584    1.108   1_455 S
H466   O614    1.014   1_455 S
H467   O546    1.014   .     S
H468   C578    1.111   1_455 S
N471   Zn490   2.037   .     S
N471   C512    1.433   .     S
N471   N542    1.289   .     S
N472   Zn489   2.037   .     S
N472   N611    1.289   1_455 S
N472   C584    1.433   1_455 S
O473   Zn489   2.007   .     S
O474   H536    1.014   .     S
O476   H607    1.014   1_455 S
O477   C20     1.219   1_565 S
O481   Zn490   2.007   .     S
O482   Zn490   2.020   .     S
O483   Zn489   2.020   .     S
O484   Zn489   2.013   .     S
O485   Zn490   2.013   .     S
O486   Zn490   2.017   .     S
O487   Zn489   2.017   .     S
C491   O552    1.301   .     A
C491   C516    1.418   .     S
C491   O543    1.284   .     A
C492   C494    1.388   .     A
C492   C503    1.385   .     A
C492   H532    1.082   .     S
C493   C520    1.388   .     A
C493   C495    1.405   .     A
C493   C519    1.434   .     S
C494   C518    1.434   .     S
C494   C496    1.405   .     A
C495   C497    1.402   .     A
C495   C506    1.489   .     S
C496   C507    1.489   .     S
C496   C498    1.402   .     A
C497   C499    1.421   .     A
C497   C504    1.404   .     A
C498   C500    1.421   .     A
C498   C505    1.404   .     A
C499   C501    1.418   .     A
C499   C1130   1.400   1_554 S
C500   C503    1.418   .     A
C500   C1129   1.400   .     S
C501   C520    1.385   .     A
C501   C515    1.412   .     A
C502   O551    1.284   .     A
C502   O553    1.301   .     A
C502   C517    1.418   .     S
C503   C513    1.412   .     A
C504   H534    1.081   .     S
C504   C1143   1.389   1_554 S
C505   H535    1.081   .     S
C505   C1145   1.389   .     S
C506   O558    1.223   .     D
C506   O544    1.398   .     S
C507   O545    1.223   .     D
C507   O546    1.398   .     S
C508   C513    1.513   .     S
C508   H540    1.110   .     S
C508   H539    1.110   .     S
C508   H608    1.111   .     S
C509   C515    1.513   .     S
C509   H523    1.110   .     S
C509   H524    1.110   .     S
C510   O548    1.398   .     S
C511   O550    1.398   .     S
C511   C97     1.483   1_565 S
C511   O129    1.219   1_565 S
C512   H528    1.098   .     S
C512   H529    1.101   .     S
C513   C1134   1.389   .     S
C514   H531    1.101   .     S
C514   H533    1.098   .     S
C514   H600    1.108   .     S
C514   N612    1.433   .     S
C515   C1135   1.389   1_554 S
C516   C90     1.483   1_565 S
C516   C97     1.363   1_565 S
C518   O556    1.297   .     A
C518   O554    1.295   .     A
C519   O555    1.295   .     A
C519   O557    1.297   .     A
C520   H521    1.082   .     S
H522   C579    1.111   .     S
H525   O548    1.013   .     S
H526   O550    1.013   .     S
H527   C582    1.108   .     S
H537   O616    1.014   .     S
N541   Zn560   2.037   .     S
N541   C582    1.433   .     S
N541   N612    1.289   .     S
N542   Zn559   2.037   .     S
O543   Zn559   2.007   .     S
O544   H606    1.014   .     S
O547   C90     1.219   1_565 S
O551   Zn560   2.007   .     S
O552   Zn560   2.020   .     S
O553   Zn559   2.020   .     S
O554   Zn559   2.013   .     S
O555   Zn560   2.013   .     S
O556   Zn560   2.017   .     S
O557   Zn559   2.017   .     S
C561   O622    1.301   .     A
C561   C586    1.418   .     S
C561   O613    1.284   .     A
C562   C564    1.388   .     A
C562   C573    1.385   .     A
C562   H602    1.082   .     S
C563   C590    1.388   .     A
C563   C565    1.405   .     A
C563   C589    1.434   .     S
C564   C588    1.434   .     S
C564   C566    1.405   .     A
C565   C567    1.402   .     A
C565   C576    1.489   .     S
C566   C577    1.489   .     S
C566   C568    1.402   .     A
C567   C569    1.421   .     A
C567   C574    1.404   .     A
C568   C570    1.421   .     A
C568   C575    1.404   .     A
C569   C571    1.418   .     A
C569   C1200   1.400   1_554 S
C570   C573    1.418   .     A
C570   C1199   1.400   .     S
C571   C590    1.385   .     A
C571   C585    1.412   .     A
C572   O621    1.284   .     A
C572   O623    1.301   .     A
C572   C587    1.418   .     S
C573   C583    1.412   .     A
C574   H604    1.081   .     S
C574   C1213   1.389   1_554 S
C575   H605    1.081   .     S
C575   C1215   1.389   .     S
C576   O628    1.223   .     D
C576   O614    1.398   .     S
C577   O615    1.223   .     D
C577   O616    1.398   .     S
C578   C583    1.513   .     S
C578   H610    1.110   .     S
C578   H609    1.110   .     S
C578   H468    1.111   1_655 S
C579   C585    1.513   .     S
C579   H593    1.110   .     S
C579   H594    1.110   .     S
C580   O618    1.398   .     S
C581   O620    1.398   .     S
C581   C167    1.483   1_565 S
C581   O199    1.219   1_565 S
C582   H598    1.098   .     S
C582   H599    1.101   .     S
C583   C1204   1.389   .     S
C584   H601    1.101   .     S
C584   H603    1.098   .     S
C584   H460    1.108   1_655 S
C584   N472    1.433   1_655 S
C585   C1205   1.389   1_554 S
C586   C160    1.483   1_565 S
C586   C167    1.363   1_565 S
C588   O626    1.297   .     A
C588   O624    1.295   .     A
C589   O625    1.295   .     A
C589   O627    1.297   .     A
C590   H591    1.082   .     S
H592   C439    1.111   1_655 S
H595   O618    1.013   .     S
H596   O620    1.013   .     S
H597   C442    1.108   1_655 S
H607   O476    1.014   1_655 S
N611   Zn630   2.037   .     S
N611   C442    1.433   1_655 S
N611   N472    1.289   1_655 S
N612   Zn629   2.037   .     S
O613   Zn629   2.007   .     S
O614   H466    1.014   1_655 S
O617   C160    1.219   1_565 S
O621   Zn630   2.007   .     S
O622   Zn630   2.020   .     S
O623   Zn629   2.020   .     S
O624   Zn629   2.013   .     S
O625   Zn630   2.013   .     S
O626   Zn630   2.017   .     S
O627   Zn629   2.017   .     S
C631   O692    1.301   .     A
C631   C656    1.418   .     S
C631   O683    1.284   .     A
C632   C634    1.388   .     A
C632   C643    1.385   .     A
C632   H672    1.082   .     S
C633   C660    1.388   .     A
C633   C635    1.405   .     A
C633   C659    1.434   .     S
C634   C658    1.434   .     S
C634   C636    1.405   .     A
C635   C637    1.402   .     A
C635   C646    1.489   .     S
C636   C647    1.489   .     S
C636   C638    1.402   .     A
C637   C639    1.421   .     A
C637   C644    1.404   .     A
C638   C640    1.421   .     A
C638   C645    1.404   .     A
C639   C641    1.418   .     A
C640   C643    1.418   .     A
C640   C9      1.400   1_556 S
C641   C660    1.385   .     A
C641   C655    1.412   .     A
C642   O691    1.284   .     A
C642   O693    1.301   .     A
C642   C657    1.418   .     S
C643   C653    1.412   .     A
C644   H674    1.081   .     S
C645   H675    1.081   .     S
C645   C25     1.389   1_556 S
C646   O698    1.223   .     D
C646   O684    1.398   .     S
C647   O685    1.223   .     D
C647   O686    1.398   .     S
C648   C653    1.513   .     S
C648   H680    1.110   .     S
C648   H679    1.110   .     S
C648   H748    1.111   .     S
C649   C655    1.513   .     S
C649   H663    1.110   .     S
C649   H664    1.110   .     S
C649   H802    1.111   1_455 S
C650   O688    1.398   .     S
C650   C1076   1.483   1_545 S
C650   O1107   1.219   1_545 S
C651   O690    1.398   .     S
C651   C867    1.483   .     S
C651   O899    1.219   .     S
C652   H668    1.098   .     S
C652   H669    1.101   .     S
C652   H807    1.108   1_455 S
C652   N821    1.433   1_455 S
C653   C14     1.389   1_556 S
C654   H671    1.101   .     S
C654   H673    1.098   .     S
C654   H740    1.108   .     S
C654   N752    1.433   .     S
C656   C860    1.483   .     S
C656   C867    1.363   .     S
C657   C1076   1.363   1_545 S
C657   C1071   1.483   1_545 S
C658   O696    1.297   .     A
C658   O694    1.295   .     A
C659   O695    1.295   .     A
C659   O697    1.297   .     A
C660   H661    1.082   .     S
H662   C719    1.111   .     S
H665   O688    1.013   .     S
H666   O690    1.013   .     S
H667   C722    1.108   .     S
H670   C794    1.108   1_455 S
H676   O824    1.014   1_455 S
H677   O756    1.014   .     S
H678   C788    1.111   1_455 S
N681   Zn700   2.037   .     S
N681   C722    1.433   .     S
N681   N752    1.289   .     S
N682   Zn699   2.037   .     S
N682   N821    1.289   1_455 S
N682   C794    1.433   1_455 S
O683   Zn699   2.007   .     S
O684   H746    1.014   .     S
O686   H817    1.014   1_455 S
O687   C860    1.219   .     S
O689   C1071   1.219   1_545 S
O691   Zn700   2.007   .     S
O692   Zn700   2.020   .     S
O693   Zn699   2.020   .     S
O694   Zn699   2.013   .     S
O695   Zn700   2.013   .     S
O696   Zn700   2.017   .     S
O697   Zn699   2.017   .     S
C701   O762    1.301   .     A
C701   C726    1.418   .     S
C701   O753    1.284   .     A
C702   C704    1.388   .     A
C702   C713    1.385   .     A
C702   H742    1.082   .     S
C703   C730    1.388   .     A
C703   C705    1.405   .     A
C703   C729    1.434   .     S
C704   C728    1.434   .     S
C704   C706    1.405   .     A
C705   C707    1.402   .     A
C705   C716    1.489   .     S
C706   C717    1.489   .     S
C706   C708    1.402   .     A
C707   C709    1.421   .     A
C707   C714    1.404   .     A
C708   C710    1.421   .     A
C708   C715    1.404   .     A
C709   C711    1.418   .     A
C710   C713    1.418   .     A
C710   C79     1.400   1_556 S
C711   C730    1.385   .     A
C711   C725    1.412   .     A
C712   O761    1.284   .     A
C712   O763    1.301   .     A
C712   C727    1.418   .     S
C713   C723    1.412   .     A
C714   H744    1.081   .     S
C715   H745    1.081   .     S
C715   C95     1.389   1_556 S
C716   O768    1.223   .     D
C716   O754    1.398   .     S
C717   O755    1.223   .     D
C717   O756    1.398   .     S
C718   C723    1.513   .     S
C718   H750    1.110   .     S
C718   H749    1.110   .     S
C718   H818    1.111   .     S
C719   C725    1.513   .     S
C719   H733    1.110   .     S
C719   H734    1.110   .     S
C720   O758    1.398   .     S
C720   C1146   1.483   1_545 S
C720   O1177   1.219   1_545 S
C721   O760    1.398   .     S
C721   C937    1.483   .     S
C721   O969    1.219   .     S
C722   H738    1.098   .     S
C722   H739    1.101   .     S
C723   C84     1.389   1_556 S
C724   H741    1.101   .     S
C724   H743    1.098   .     S
C724   H810    1.108   .     S
C724   N822    1.433   .     S
C726   C930    1.483   .     S
C726   C937    1.363   .     S
C727   C1146   1.363   1_545 S
C727   C1141   1.483   1_545 S
C728   O766    1.297   .     A
C728   O764    1.295   .     A
C729   O765    1.295   .     A
C729   O767    1.297   .     A
C730   H731    1.082   .     S
H732   C789    1.111   .     S
H735   O758    1.013   .     S
H736   O760    1.013   .     S
H737   C792    1.108   .     S
H747   O826    1.014   .     S
N751   Zn770   2.037   .     S
N751   C792    1.433   .     S
N751   N822    1.289   .     S
N752   Zn769   2.037   .     S
O753   Zn769   2.007   .     S
O754   H816    1.014   .     S
O757   C930    1.219   .     S
O759   C1141   1.219   1_545 S
O761   Zn770   2.007   .     S
O762   Zn770   2.020   .     S
O763   Zn769   2.020   .     S
O764   Zn769   2.013   .     S
O765   Zn770   2.013   .     S
O766   Zn770   2.017   .     S
O767   Zn769   2.017   .     S
C771   O832    1.301   .     A
C771   C796    1.418   .     S
C771   O823    1.284   .     A
C772   C774    1.388   .     A
C772   C783    1.385   .     A
C772   H812    1.082   .     S
C773   C800    1.388   .     A
C773   C775    1.405   .     A
C773   C799    1.434   .     S
C774   C798    1.434   .     S
C774   C776    1.405   .     A
C775   C777    1.402   .     A
C775   C786    1.489   .     S
C776   C787    1.489   .     S
C776   C778    1.402   .     A
C777   C779    1.421   .     A
C777   C784    1.404   .     A
C778   C780    1.421   .     A
C778   C785    1.404   .     A
C779   C781    1.418   .     A
C780   C783    1.418   .     A
C780   C149    1.400   1_556 S
C781   C800    1.385   .     A
C781   C795    1.412   .     A
C782   O831    1.284   .     A
C782   O833    1.301   .     A
C782   C797    1.418   .     S
C783   C793    1.412   .     A
C784   H814    1.081   .     S
C785   H815    1.081   .     S
C785   C165    1.389   1_556 S
C786   O838    1.223   .     D
C786   O824    1.398   .     S
C787   O825    1.223   .     D
C787   O826    1.398   .     S
C788   C793    1.513   .     S
C788   H820    1.110   .     S
C788   H819    1.110   .     S
C788   H678    1.111   1_655 S
C789   C795    1.513   .     S
C789   H803    1.110   .     S
C789   H804    1.110   .     S
C790   O828    1.398   .     S
C790   C1216   1.483   1_545 S
C790   O1247   1.219   1_545 S
C791   O830    1.398   .     S
C791   C1007   1.483   .     S
C791   O1039   1.219   .     S
C792   H808    1.098   .     S
C792   H809    1.101   .     S
C793   C154    1.389   1_556 S
C794   H811    1.101   .     S
C794   H813    1.098   .     S
C794   H670    1.108   1_655 S
C794   N682    1.433   1_655 S
C796   C1000   1.483   .     S
C796   C1007   1.363   .     S
C797   C1216   1.363   1_545 S
C797   C1211   1.483   1_545 S
C798   O836    1.297   .     A
C798   O834    1.295   .     A
C799   O835    1.295   .     A
C799   O837    1.297   .     A
C800   H801    1.082   .     S
H802   C649    1.111   1_655 S
H805   O828    1.013   .     S
H806   O830    1.013   .     S
H807   C652    1.108   1_655 S
H817   O686    1.014   1_655 S
N821   Zn840   2.037   .     S
N821   C652    1.433   1_655 S
N821   N682    1.289   1_655 S
N822   Zn839   2.037   .     S
O823   Zn839   2.007   .     S
O824   H676    1.014   1_655 S
O827   C1000   1.219   .     S
O829   C1211   1.219   1_545 S
O831   Zn840   2.007   .     S
O832   Zn840   2.020   .     S
O833   Zn839   2.020   .     S
O834   Zn839   2.013   .     S
O835   Zn840   2.013   .     S
O836   Zn840   2.017   .     S
O837   Zn839   2.017   .     S
C841   O902    1.301   .     A
C841   C866    1.418   .     S
C841   O893    1.284   .     A
C842   C844    1.388   .     A
C842   C853    1.385   .     A
C842   H882    1.082   .     S
C843   C870    1.388   .     A
C843   C845    1.405   .     A
C843   C869    1.434   .     S
C844   C868    1.434   .     S
C844   C846    1.405   .     A
C845   C847    1.402   .     A
C845   C856    1.489   .     S
C846   C857    1.489   .     S
C846   C848    1.402   .     A
C847   C849    1.421   .     A
C847   C854    1.404   .     A
C848   C850    1.421   .     A
C848   C855    1.404   .     A
C849   C851    1.418   .     A
C850   C853    1.418   .     A
C850   C219    1.400   1_556 S
C851   C870    1.385   .     A
C851   C865    1.412   .     A
C852   O901    1.284   .     A
C852   O903    1.301   .     A
C852   C867    1.418   .     S
C853   C863    1.412   .     A
C854   H884    1.081   .     S
C855   H885    1.081   .     S
C855   C235    1.389   1_556 S
C856   O908    1.223   .     D
C856   O894    1.398   .     S
C857   O895    1.223   .     D
C857   O896    1.398   .     S
C858   C863    1.513   .     S
C858   H890    1.110   .     S
C858   H889    1.110   .     S
C858   H958    1.111   .     S
C859   C865    1.513   .     S
C859   H873    1.110   .     S
C859   H874    1.110   .     S
C859   H1012   1.111   1_455 S
C860   O898    1.398   .     S
C861   O900    1.398   .     S
C861   C1077   1.483   .     S
C861   O1109   1.219   .     S
C862   H878    1.098   .     S
C862   H879    1.101   .     S
C862   H1017   1.108   1_455 S
C862   N1031   1.433   1_455 S
C863   C224    1.389   1_556 S
C864   H881    1.101   .     S
C864   H883    1.098   .     S
C864   H950    1.108   .     S
C864   N962    1.433   .     S
C866   C1070   1.483   .     S
C866   C1077   1.363   .     S
C868   O906    1.297   .     A
C868   O904    1.295   .     A
C869   O905    1.295   .     A
C869   O907    1.297   .     A
C870   H871    1.082   .     S
H872   C929    1.111   .     S
H875   O898    1.013   .     S
H876   O900    1.013   .     S
H877   C932    1.108   .     S
H880   C1004   1.108   1_455 S
H886   O1034   1.014   1_455 S
H887   O966    1.014   .     S
H888   C998    1.111   1_455 S
N891   Zn910   2.037   .     S
N891   C932    1.433   .     S
N891   N962    1.289   .     S
N892   Zn909   2.037   .     S
N892   N1031   1.289   1_455 S
N892   C1004   1.433   1_455 S
O893   Zn909   2.007   .     S
O894   H956    1.014   .     S
O896   H1027   1.014   1_455 S
O897   C1070   1.219   .     S
O901   Zn910   2.007   .     S
O902   Zn910   2.020   .     S
O903   Zn909   2.020   .     S
O904   Zn909   2.013   .     S
O905   Zn910   2.013   .     S
O906   Zn910   2.017   .     S
O907   Zn909   2.017   .     S
C911   O972    1.301   .     A
C911   C936    1.418   .     S
C911   O963    1.284   .     A
C912   C914    1.388   .     A
C912   C923    1.385   .     A
C912   H952    1.082   .     S
C913   C940    1.388   .     A
C913   C915    1.405   .     A
C913   C939    1.434   .     S
C914   C938    1.434   .     S
C914   C916    1.405   .     A
C915   C917    1.402   .     A
C915   C926    1.489   .     S
C916   C927    1.489   .     S
C916   C918    1.402   .     A
C917   C919    1.421   .     A
C917   C924    1.404   .     A
C918   C920    1.421   .     A
C918   C925    1.404   .     A
C919   C921    1.418   .     A
C920   C923    1.418   .     A
C920   C289    1.400   1_556 S
C921   C940    1.385   .     A
C921   C935    1.412   .     A
C922   O971    1.284   .     A
C922   O973    1.301   .     A
C922   C937    1.418   .     S
C923   C933    1.412   .     A
C924   H954    1.081   .     S
C925   H955    1.081   .     S
C925   C305    1.389   1_556 S
C926   O978    1.223   .     D
C926   O964    1.398   .     S
C927   O965    1.223   .     D
C927   O966    1.398   .     S
C928   C933    1.513   .     S
C928   H960    1.110   .     S
C928   H959    1.110   .     S
C928   H1028   1.111   .     S
C929   C935    1.513   .     S
C929   H943    1.110   .     S
C929   H944    1.110   .     S
C930   O968    1.398   .     S
C931   O970    1.398   .     S
C931   C1147   1.483   .     S
C931   O1179   1.219   .     S
C932   H948    1.098   .     S
C932   H949    1.101   .     S
C933   C294    1.389   1_556 S
C934   H951    1.101   .     S
C934   H953    1.098   .     S
C934   H1020   1.108   .     S
C934   N1032   1.433   .     S
C936   C1140   1.483   .     S
C936   C1147   1.363   .     S
C938   O976    1.297   .     A
C938   O974    1.295   .     A
C939   O975    1.295   .     A
C939   O977    1.297   .     A
C940   H941    1.082   .     S
H942   C999    1.111   .     S
H945   O968    1.013   .     S
H946   O970    1.013   .     S
H947   C1002   1.108   .     S
H957   O1036   1.014   .     S
N961   Zn980   2.037   .     S
N961   C1002   1.433   .     S
N961   N1032   1.289   .     S
N962   Zn979   2.037   .     S
O963   Zn979   2.007   .     S
O964   H1026   1.014   .     S
O967   C1140   1.219   .     S
O971   Zn980   2.007   .     S
O972   Zn980   2.020   .     S
O973   Zn979   2.020   .     S
O974   Zn979   2.013   .     S
O975   Zn980   2.013   .     S
O976   Zn980   2.017   .     S
O977   Zn979   2.017   .     S
C981   O1042   1.301   .     A
C981   C1006   1.418   .     S
C981   O1033   1.284   .     A
C982   C984    1.388   .     A
C982   C993    1.385   .     A
C982   H1022   1.082   .     S
C983   C1010   1.388   .     A
C983   C985    1.405   .     A
C983   C1009   1.434   .     S
C984   C1008   1.434   .     S
C984   C986    1.405   .     A
C985   C987    1.402   .     A
C985   C996    1.489   .     S
C986   C997    1.489   .     S
C986   C988    1.402   .     A
C987   C989    1.421   .     A
C987   C994    1.404   .     A
C988   C990    1.421   .     A
C988   C995    1.404   .     A
C989   C991    1.418   .     A
C990   C993    1.418   .     A
C990   C359    1.400   1_556 S
C991   C1010   1.385   .     A
C991   C1005   1.412   .     A
C992   O1041   1.284   .     A
C992   O1043   1.301   .     A
C992   C1007   1.418   .     S
C993   C1003   1.412   .     A
C994   H1024   1.081   .     S
C995   H1025   1.081   .     S
C995   C375    1.389   1_556 S
C996   O1048   1.223   .     D
C996   O1034   1.398   .     S
C997   O1035   1.223   .     D
C997   O1036   1.398   .     S
C998   C1003   1.513   .     S
C998   H1030   1.110   .     S
C998   H1029   1.110   .     S
C998   H888    1.111   1_655 S
C999   C1005   1.513   .     S
C999   H1013   1.110   .     S
C999   H1014   1.110   .     S
C1000  O1038   1.398   .     S
C1001  O1040   1.398   .     S
C1001  C1217   1.483   .     S
C1001  O1249   1.219   .     S
C1002  H1018   1.098   .     S
C1002  H1019   1.101   .     S
C1003  C364    1.389   1_556 S
C1004  H1021   1.101   .     S
C1004  H1023   1.098   .     S
C1004  H880    1.108   1_655 S
C1004  N892    1.433   1_655 S
C1006  C1210   1.483   .     S
C1006  C1217   1.363   .     S
C1008  O1046   1.297   .     A
C1008  O1044   1.295   .     A
C1009  O1045   1.295   .     A
C1009  O1047   1.297   .     A
C1010  H1011   1.082   .     S
H1012  C859    1.111   1_655 S
H1015  O1038   1.013   .     S
H1016  O1040   1.013   .     S
H1017  C862    1.108   1_655 S
H1027  O896    1.014   1_655 S
N1031  Zn1050  2.037   .     S
N1031  C862    1.433   1_655 S
N1031  N892    1.289   1_655 S
N1032  Zn1049  2.037   .     S
O1033  Zn1049  2.007   .     S
O1034  H886    1.014   1_655 S
O1037  C1210   1.219   .     S
O1041  Zn1050  2.007   .     S
O1042  Zn1050  2.020   .     S
O1043  Zn1049  2.020   .     S
O1044  Zn1049  2.013   .     S
O1045  Zn1050  2.013   .     S
O1046  Zn1050  2.017   .     S
O1047  Zn1049  2.017   .     S
C1051  O1112   1.301   .     A
C1051  C1076   1.418   .     S
C1051  O1103   1.284   .     A
C1052  C1054   1.388   .     A
C1052  C1063   1.385   .     A
C1052  H1092   1.082   .     S
C1053  C1080   1.388   .     A
C1053  C1055   1.405   .     A
C1053  C1079   1.434   .     S
C1054  C1078   1.434   .     S
C1054  C1056   1.405   .     A
C1055  C1057   1.402   .     A
C1055  C1066   1.489   .     S
C1056  C1067   1.489   .     S
C1056  C1058   1.402   .     A
C1057  C1059   1.421   .     A
C1057  C1064   1.404   .     A
C1058  C1060   1.421   .     A
C1058  C1065   1.404   .     A
C1059  C1061   1.418   .     A
C1060  C1063   1.418   .     A
C1060  C429    1.400   1_556 S
C1061  C1080   1.385   .     A
C1061  C1075   1.412   .     A
C1062  O1111   1.284   .     A
C1062  O1113   1.301   .     A
C1062  C1077   1.418   .     S
C1063  C1073   1.412   .     A
C1064  H1094   1.081   .     S
C1065  H1095   1.081   .     S
C1065  C445    1.389   1_556 S
C1066  O1118   1.223   .     D
C1066  O1104   1.398   .     S
C1067  O1105   1.223   .     D
C1067  O1106   1.398   .     S
C1068  C1073   1.513   .     S
C1068  H1100   1.110   .     S
C1068  H1099   1.110   .     S
C1068  H1168   1.111   .     S
C1069  C1075   1.513   .     S
C1069  H1083   1.110   .     S
C1069  H1084   1.110   .     S
C1069  H1222   1.111   1_455 S
C1070  O1108   1.398   .     S
C1071  O1110   1.398   .     S
C1071  C657    1.483   1_565 S
C1071  O689    1.219   1_565 S
C1072  H1088   1.098   .     S
C1072  H1089   1.101   .     S
C1072  H1227   1.108   1_455 S
C1072  N1241   1.433   1_455 S
C1073  C434    1.389   1_556 S
C1074  H1091   1.101   .     S
C1074  H1093   1.098   .     S
C1074  H1160   1.108   .     S
C1074  N1172   1.433   .     S
C1076  C650    1.483   1_565 S
C1076  C657    1.363   1_565 S
C1078  O1116   1.297   .     A
C1078  O1114   1.295   .     A
C1079  O1115   1.295   .     A
C1079  O1117   1.297   .     A
C1080  H1081   1.082   .     S
H1082  C1139   1.111   .     S
H1085  O1108   1.013   .     S
H1086  O1110   1.013   .     S
H1087  C1142   1.108   .     S
H1090  C1214   1.108   1_455 S
H1096  O1244   1.014   1_455 S
H1097  O1176   1.014   .     S
H1098  C1208   1.111   1_455 S
N1101  Zn1120  2.037   .     S
N1101  C1142   1.433   .     S
N1101  N1172   1.289   .     S
N1102  Zn1119  2.037   .     S
N1102  N1241   1.289   1_455 S
N1102  C1214   1.433   1_455 S
O1103  Zn1119  2.007   .     S
O1104  H1166   1.014   .     S
O1106  H1237   1.014   1_455 S
O1107  C650    1.219   1_565 S
O1111  Zn1120  2.007   .     S
O1112  Zn1120  2.020   .     S
O1113  Zn1119  2.020   .     S
O1114  Zn1119  2.013   .     S
O1115  Zn1120  2.013   .     S
O1116  Zn1120  2.017   .     S
O1117  Zn1119  2.017   .     S
C1121  O1182   1.301   .     A
C1121  C1146   1.418   .     S
C1121  O1173   1.284   .     A
C1122  C1124   1.388   .     A
C1122  C1133   1.385   .     A
C1122  H1162   1.082   .     S
C1123  C1150   1.388   .     A
C1123  C1125   1.405   .     A
C1123  C1149   1.434   .     S
C1124  C1148   1.434   .     S
C1124  C1126   1.405   .     A
C1125  C1127   1.402   .     A
C1125  C1136   1.489   .     S
C1126  C1137   1.489   .     S
C1126  C1128   1.402   .     A
C1127  C1129   1.421   .     A
C1127  C1134   1.404   .     A
C1128  C1130   1.421   .     A
C1128  C1135   1.404   .     A
C1129  C1131   1.418   .     A
C1130  C1133   1.418   .     A
C1130  C499    1.400   1_556 S
C1131  C1150   1.385   .     A
C1131  C1145   1.412   .     A
C1132  O1181   1.284   .     A
C1132  O1183   1.301   .     A
C1132  C1147   1.418   .     S
C1133  C1143   1.412   .     A
C1134  H1164   1.081   .     S
C1135  H1165   1.081   .     S
C1135  C515    1.389   1_556 S
C1136  O1188   1.223   .     D
C1136  O1174   1.398   .     S
C1137  O1175   1.223   .     D
C1137  O1176   1.398   .     S
C1138  C1143   1.513   .     S
C1138  H1170   1.110   .     S
C1138  H1169   1.110   .     S
C1138  H1238   1.111   .     S
C1139  C1145   1.513   .     S
C1139  H1153   1.110   .     S
C1139  H1154   1.110   .     S
C1140  O1178   1.398   .     S
C1141  O1180   1.398   .     S
C1141  C727    1.483   1_565 S
C1141  O759    1.219   1_565 S
C1142  H1158   1.098   .     S
C1142  H1159   1.101   .     S
C1143  C504    1.389   1_556 S
C1144  H1161   1.101   .     S
C1144  H1163   1.098   .     S
C1144  H1230   1.108   .     S
C1144  N1242   1.433   .     S
C1146  C720    1.483   1_565 S
C1146  C727    1.363   1_565 S
C1148  O1186   1.297   .     A
C1148  O1184   1.295   .     A
C1149  O1185   1.295   .     A
C1149  O1187   1.297   .     A
C1150  H1151   1.082   .     S
H1152  C1209   1.111   .     S
H1155  O1178   1.013   .     S
H1156  O1180   1.013   .     S
H1157  C1212   1.108   .     S
H1167  O1246   1.014   .     S
N1171  Zn1190  2.037   .     S
N1171  C1212   1.433   .     S
N1171  N1242   1.289   .     S
N1172  Zn1189  2.037   .     S
O1173  Zn1189  2.007   .     S
O1174  H1236   1.014   .     S
O1177  C720    1.219   1_565 S
O1181  Zn1190  2.007   .     S
O1182  Zn1190  2.020   .     S
O1183  Zn1189  2.020   .     S
O1184  Zn1189  2.013   .     S
O1185  Zn1190  2.013   .     S
O1186  Zn1190  2.017   .     S
O1187  Zn1189  2.017   .     S
C1191  O1252   1.301   .     A
C1191  C1216   1.418   .     S
C1191  O1243   1.284   .     A
C1192  C1194   1.388   .     A
C1192  C1203   1.385   .     A
C1192  H1232   1.082   .     S
C1193  C1220   1.388   .     A
C1193  C1195   1.405   .     A
C1193  C1219   1.434   .     S
C1194  C1218   1.434   .     S
C1194  C1196   1.405   .     A
C1195  C1197   1.402   .     A
C1195  C1206   1.489   .     S
C1196  C1207   1.489   .     S
C1196  C1198   1.402   .     A
C1197  C1199   1.421   .     A
C1197  C1204   1.404   .     A
C1198  C1200   1.421   .     A
C1198  C1205   1.404   .     A
C1199  C1201   1.418   .     A
C1200  C1203   1.418   .     A
C1200  C569    1.400   1_556 S
C1201  C1220   1.385   .     A
C1201  C1215   1.412   .     A
C1202  O1251   1.284   .     A
C1202  O1253   1.301   .     A
C1202  C1217   1.418   .     S
C1203  C1213   1.412   .     A
C1204  H1234   1.081   .     S
C1205  H1235   1.081   .     S
C1205  C585    1.389   1_556 S
C1206  O1258   1.223   .     D
C1206  O1244   1.398   .     S
C1207  O1245   1.223   .     D
C1207  O1246   1.398   .     S
C1208  C1213   1.513   .     S
C1208  H1240   1.110   .     S
C1208  H1239   1.110   .     S
C1208  H1098   1.111   1_655 S
C1209  C1215   1.513   .     S
C1209  H1223   1.110   .     S
C1209  H1224   1.110   .     S
C1210  O1248   1.398   .     S
C1211  O1250   1.398   .     S
C1211  C797    1.483   1_565 S
C1211  O829    1.219   1_565 S
C1212  H1228   1.098   .     S
C1212  H1229   1.101   .     S
C1213  C574    1.389   1_556 S
C1214  H1231   1.101   .     S
C1214  H1233   1.098   .     S
C1214  H1090   1.108   1_655 S
C1214  N1102   1.433   1_655 S
C1216  C790    1.483   1_565 S
C1216  C797    1.363   1_565 S
C1218  O1256   1.297   .     A
C1218  O1254   1.295   .     A
C1219  O1255   1.295   .     A
C1219  O1257   1.297   .     A
C1220  H1221   1.082   .     S
H1222  C1069   1.111   1_655 S
H1225  O1248   1.013   .     S
H1226  O1250   1.013   .     S
H1227  C1072   1.108   1_655 S
H1237  O1106   1.014   1_655 S
N1241  Zn1260  2.037   .     S
N1241  C1072   1.433   1_655 S
N1241  N1102   1.289   1_655 S
N1242  Zn1259  2.037   .     S
O1243  Zn1259  2.007   .     S
O1244  H1096   1.014   1_655 S
O1247  C790    1.219   1_565 S
O1251  Zn1260  2.007   .     S
O1252  Zn1260  2.020   .     S
O1253  Zn1259  2.020   .     S
O1254  Zn1259  2.013   .     S
O1255  Zn1260  2.013   .     S
O1256  Zn1260  2.017   .     S
O1257  Zn1259  2.017   .     S
