data_str_m3_o2_o10_pcu_sym.216
_audit_creation_date              2020-01-03
_audit_creation_method            'Materials Studio'
_symmetry_space_group_name_H-M    'P1'
_symmetry_Int_Tables_number       1
_symmetry_cell_setting            triclinic
loop_
_symmetry_equiv_pos_as_xyz
  x,y,z
_cell_length_a                    25.7708
_cell_length_b                    30.0247
_cell_length_c                    28.2979
_cell_angle_alpha                 90.0035
_cell_angle_beta                  98.6346
_cell_angle_gamma                 90.0048
loop_
_atom_site_label
_atom_site_type_symbol
_atom_site_fract_x
_atom_site_fract_y
_atom_site_fract_z
_atom_site_U_iso_or_equiv
_atom_site_adp_type
_atom_site_occupancy
O1     O     0.16667   0.18454   0.28974   0.00000  Uiso   1.00
O2     O     0.16666   0.31546   0.21026   0.00000  Uiso   1.00
O3     O     0.16667   0.18453   0.21026   0.00000  Uiso   1.00
O4     O     0.16666   0.31547   0.28974   0.00000  Uiso   1.00
C5     C     0.16667   0.16386   0.25000   0.00000  Uiso   1.00
C6     C     0.16666   0.33613   0.25000   0.00000  Uiso   1.00
O7     O     0.09058   0.25000   0.28044   0.00000  Uiso   1.00
O8     O     0.24275   0.25000   0.21955   0.00000  Uiso   1.00
O9     O     0.09058   0.24999   0.20096   0.00000  Uiso   1.00
O10    O     0.24275   0.25001   0.29903   0.00000  Uiso   1.00
C11    C     0.06698   0.24996   0.23752   0.00000  Uiso   1.00
C12    C     0.26635   0.24997   0.26248   0.00000  Uiso   1.00
Zn13   Zn    0.16667   0.25001   0.30307   0.00000  Uiso   1.00
Zn14   Zn    0.16667   0.25000   0.19693   0.00000  Uiso   1.00
C15    C     0.01198   0.24990   0.23077   0.00000  Uiso   1.00
C16    C     0.32136   0.24990   0.26923   0.00000  Uiso   1.00
H17    H     0.32468   0.24990   0.19427   0.00000  Uiso   1.00
H18    H     0.00865   0.24988   0.30573   0.00000  Uiso   1.00
C19    C     0.18468   0.04703   0.29229   0.00000  Uiso   1.00
C20    C     0.18540   0.45295   0.21301   0.00000  Uiso   1.00
H21    H     0.19938   0.02944   0.32500   0.00000  Uiso   1.00
H22    H     0.20067   0.47054   0.18462   0.00000  Uiso   1.00
C23    C     0.18439   0.09301   0.29236   0.00000  Uiso   1.00
C24    C     0.18511   0.40697   0.21285   0.00000  Uiso   1.00
H25    H     0.19863   0.11053   0.32524   0.00000  Uiso   1.00
H26    H     0.19991   0.38944   0.18417   0.00000  Uiso   1.00
C27    C     0.16667   0.11598   0.25000   0.00000  Uiso   1.00
C28    C     0.16666   0.38400   0.25000   0.00000  Uiso   1.00
C29    C     0.14893   0.09300   0.20764   0.00000  Uiso   1.00
C30    C     0.14821   0.40697   0.28715   0.00000  Uiso   1.00
H31    H     0.13470   0.11052   0.17477   0.00000  Uiso   1.00
H32    H     0.13341   0.38944   0.31583   0.00000  Uiso   1.00
C33    C     0.14863   0.04703   0.20771   0.00000  Uiso   1.00
C34    C     0.14791   0.45295   0.28699   0.00000  Uiso   1.00
H35    H     0.13393   0.02943   0.17501   0.00000  Uiso   1.00
H36    H     0.13264   0.47054   0.31538   0.00000  Uiso   1.00
C37    C     0.16665   0.02404   0.25000   0.00000  Uiso   1.00
C38    C     0.16665   0.47594   0.25000   0.00000  Uiso   1.00
C39    C     0.12658   0.26872   0.04634   0.00000  Uiso   1.00
C40    C     0.20614   0.26962   0.45358   0.00000  Uiso   1.00
C41    C     0.12700   0.26952   0.09608   0.00000  Uiso   1.00
C42    C     0.20571   0.27041   0.40384   0.00000  Uiso   1.00
H43    H     0.09540   0.28577   0.11058   0.00000  Uiso   1.00
H44    H     0.23681   0.28735   0.38927   0.00000  Uiso   1.00
N45    N     0.16667   0.24999   0.12623   0.00000  Uiso   1.00
N46    N     0.16667   0.25001   0.37376   0.00000  Uiso   1.00
C47    C     0.20683   0.22954   0.10844   0.00000  Uiso   1.00
C48    C     0.12713   0.22868   0.39163   0.00000  Uiso   1.00
H49    H     0.23748   0.21375   0.13310   0.00000  Uiso   1.00
H50    H     0.09697   0.21225   0.36701   0.00000  Uiso   1.00
C51    C     0.20832   0.22753   0.05869   0.00000  Uiso   1.00
C52    C     0.12570   0.22661   0.44138   0.00000  Uiso   1.00
C53    C     0.16719   0.24758   0.02670   0.00000  Uiso   1.00
C54    C     0.16620   0.24757   0.47330   0.00000  Uiso   1.00
H55    H     0.09463   0.28460   0.02319   0.00000  Uiso   1.00
H56    H     0.23759   0.28622   0.47667   0.00000  Uiso   1.00
N57    N     0.25074   0.20418   0.04176   0.00000  Uiso   1.00
O58    O     0.24279   0.18176   0.00198   0.00000  Uiso   1.00
O59    O     0.29622   0.20114   0.06867   0.00000  Uiso   1.00
N60    N     0.08403   0.20230   0.45840   0.00000  Uiso   1.00
O61    O     0.09268   0.18008   0.49829   0.00000  Uiso   1.00
O62    O     0.03869   0.19818   0.43147   0.00000  Uiso   1.00
O63    O     0.50000   0.18454   0.28974   0.00000  Uiso   1.00
O64    O     0.50000   0.31546   0.21026   0.00000  Uiso   1.00
O65    O     0.50000   0.18453   0.21026   0.00000  Uiso   1.00
O66    O     0.50000   0.31547   0.28974   0.00000  Uiso   1.00
C67    C     0.50000   0.16386   0.25000   0.00000  Uiso   1.00
C68    C     0.50000   0.33613   0.25000   0.00000  Uiso   1.00
O69    O     0.42392   0.25000   0.28044   0.00000  Uiso   1.00
O70    O     0.57608   0.25000   0.21955   0.00000  Uiso   1.00
O71    O     0.42392   0.24999   0.20096   0.00000  Uiso   1.00
O72    O     0.57608   0.25001   0.29903   0.00000  Uiso   1.00
C73    C     0.40031   0.24996   0.23752   0.00000  Uiso   1.00
C74    C     0.59969   0.24997   0.26248   0.00000  Uiso   1.00
Zn75   Zn    0.50000   0.25001   0.30307   0.00000  Uiso   1.00
Zn76   Zn    0.50000   0.25000   0.19693   0.00000  Uiso   1.00
C77    C     0.34531   0.24990   0.23077   0.00000  Uiso   1.00
C78    C     0.65469   0.24990   0.26923   0.00000  Uiso   1.00
H79    H     0.65802   0.24990   0.19427   0.00000  Uiso   1.00
H80    H     0.34198   0.24988   0.30573   0.00000  Uiso   1.00
C81    C     0.51801   0.04703   0.29229   0.00000  Uiso   1.00
C82    C     0.51874   0.45295   0.21301   0.00000  Uiso   1.00
H83    H     0.53271   0.02944   0.32500   0.00000  Uiso   1.00
H84    H     0.53400   0.47054   0.18462   0.00000  Uiso   1.00
C85    C     0.51772   0.09301   0.29236   0.00000  Uiso   1.00
C86    C     0.51844   0.40697   0.21285   0.00000  Uiso   1.00
H87    H     0.53196   0.11053   0.32524   0.00000  Uiso   1.00
H88    H     0.53324   0.38944   0.18417   0.00000  Uiso   1.00
C89    C     0.50000   0.11598   0.25000   0.00000  Uiso   1.00
C90    C     0.49999   0.38400   0.25000   0.00000  Uiso   1.00
C91    C     0.48227   0.09300   0.20764   0.00000  Uiso   1.00
C92    C     0.48154   0.40697   0.28715   0.00000  Uiso   1.00
H93    H     0.46803   0.11052   0.17477   0.00000  Uiso   1.00
H94    H     0.46674   0.38944   0.31583   0.00000  Uiso   1.00
C95    C     0.48197   0.04703   0.20771   0.00000  Uiso   1.00
C96    C     0.48124   0.45295   0.28699   0.00000  Uiso   1.00
H97    H     0.46726   0.02943   0.17501   0.00000  Uiso   1.00
H98    H     0.46598   0.47054   0.31538   0.00000  Uiso   1.00
C99    C     0.49999   0.02404   0.25000   0.00000  Uiso   1.00
C100   C     0.49999   0.47594   0.25000   0.00000  Uiso   1.00
C101   C     0.45992   0.26872   0.04634   0.00000  Uiso   1.00
C102   C     0.53948   0.26962   0.45358   0.00000  Uiso   1.00
C103   C     0.46034   0.26952   0.09608   0.00000  Uiso   1.00
C104   C     0.53905   0.27041   0.40384   0.00000  Uiso   1.00
H105   H     0.42874   0.28577   0.11058   0.00000  Uiso   1.00
H106   H     0.57014   0.28735   0.38927   0.00000  Uiso   1.00
N107   N     0.50000   0.24999   0.12623   0.00000  Uiso   1.00
N108   N     0.50000   0.25001   0.37376   0.00000  Uiso   1.00
C109   C     0.54017   0.22954   0.10844   0.00000  Uiso   1.00
C110   C     0.46046   0.22868   0.39163   0.00000  Uiso   1.00
H111   H     0.57081   0.21375   0.13310   0.00000  Uiso   1.00
H112   H     0.43031   0.21225   0.36701   0.00000  Uiso   1.00
C113   C     0.54166   0.22753   0.05869   0.00000  Uiso   1.00
C114   C     0.45903   0.22661   0.44138   0.00000  Uiso   1.00
C115   C     0.50052   0.24758   0.02670   0.00000  Uiso   1.00
C116   C     0.49953   0.24757   0.47330   0.00000  Uiso   1.00
H117   H     0.42796   0.28460   0.02319   0.00000  Uiso   1.00
H118   H     0.57093   0.28622   0.47667   0.00000  Uiso   1.00
N119   N     0.58407   0.20418   0.04176   0.00000  Uiso   1.00
O120   O     0.57612   0.18176   0.00198   0.00000  Uiso   1.00
O121   O     0.62955   0.20114   0.06867   0.00000  Uiso   1.00
N122   N     0.41737   0.20230   0.45840   0.00000  Uiso   1.00
O123   O     0.42601   0.18008   0.49829   0.00000  Uiso   1.00
O124   O     0.37202   0.19818   0.43147   0.00000  Uiso   1.00
O125   O     0.83334   0.18454   0.28974   0.00000  Uiso   1.00
O126   O     0.83333   0.31546   0.21026   0.00000  Uiso   1.00
O127   O     0.83334   0.18453   0.21026   0.00000  Uiso   1.00
O128   O     0.83333   0.31547   0.28974   0.00000  Uiso   1.00
C129   C     0.83334   0.16386   0.25000   0.00000  Uiso   1.00
C130   C     0.83333   0.33613   0.25000   0.00000  Uiso   1.00
O131   O     0.75725   0.25000   0.28044   0.00000  Uiso   1.00
O132   O     0.90942   0.25000   0.21955   0.00000  Uiso   1.00
O133   O     0.75725   0.24999   0.20096   0.00000  Uiso   1.00
O134   O     0.90942   0.25001   0.29903   0.00000  Uiso   1.00
C135   C     0.73365   0.24996   0.23752   0.00000  Uiso   1.00
C136   C     0.93302   0.24997   0.26248   0.00000  Uiso   1.00
Zn137  Zn    0.83333   0.25001   0.30307   0.00000  Uiso   1.00
Zn138  Zn    0.83333   0.25000   0.19693   0.00000  Uiso   1.00
C139   C     0.67864   0.24990   0.23077   0.00000  Uiso   1.00
C140   C     0.98802   0.24990   0.26923   0.00000  Uiso   1.00
H141   H     0.99135   0.24990   0.19427   0.00000  Uiso   1.00
H142   H     0.67532   0.24988   0.30573   0.00000  Uiso   1.00
C143   C     0.85135   0.04703   0.29229   0.00000  Uiso   1.00
C144   C     0.85207   0.45295   0.21301   0.00000  Uiso   1.00
H145   H     0.86605   0.02944   0.32500   0.00000  Uiso   1.00
H146   H     0.86733   0.47054   0.18462   0.00000  Uiso   1.00
C147   C     0.85106   0.09301   0.29236   0.00000  Uiso   1.00
C148   C     0.85177   0.40697   0.21285   0.00000  Uiso   1.00
H149   H     0.86530   0.11053   0.32524   0.00000  Uiso   1.00
H150   H     0.86658   0.38944   0.18417   0.00000  Uiso   1.00
C151   C     0.83333   0.11598   0.25000   0.00000  Uiso   1.00
C152   C     0.83333   0.38400   0.25000   0.00000  Uiso   1.00
C153   C     0.81560   0.09300   0.20764   0.00000  Uiso   1.00
C154   C     0.81488   0.40697   0.28715   0.00000  Uiso   1.00
H155   H     0.80136   0.11052   0.17477   0.00000  Uiso   1.00
H156   H     0.80008   0.38944   0.31583   0.00000  Uiso   1.00
C157   C     0.81530   0.04703   0.20771   0.00000  Uiso   1.00
C158   C     0.81458   0.45295   0.28699   0.00000  Uiso   1.00
H159   H     0.80060   0.02943   0.17501   0.00000  Uiso   1.00
H160   H     0.79931   0.47054   0.31538   0.00000  Uiso   1.00
C161   C     0.83332   0.02404   0.25000   0.00000  Uiso   1.00
C162   C     0.83332   0.47594   0.25000   0.00000  Uiso   1.00
C163   C     0.79325   0.26872   0.04634   0.00000  Uiso   1.00
C164   C     0.87281   0.26962   0.45358   0.00000  Uiso   1.00
C165   C     0.79367   0.26952   0.09608   0.00000  Uiso   1.00
C166   C     0.87238   0.27041   0.40384   0.00000  Uiso   1.00
H167   H     0.76207   0.28577   0.11058   0.00000  Uiso   1.00
H168   H     0.90348   0.28735   0.38927   0.00000  Uiso   1.00
N169   N     0.83333   0.24999   0.12623   0.00000  Uiso   1.00
N170   N     0.83333   0.25001   0.37376   0.00000  Uiso   1.00
C171   C     0.87350   0.22954   0.10844   0.00000  Uiso   1.00
C172   C     0.79379   0.22868   0.39163   0.00000  Uiso   1.00
H173   H     0.90414   0.21375   0.13310   0.00000  Uiso   1.00
H174   H     0.76364   0.21225   0.36701   0.00000  Uiso   1.00
C175   C     0.87499   0.22753   0.05869   0.00000  Uiso   1.00
C176   C     0.79237   0.22661   0.44138   0.00000  Uiso   1.00
C177   C     0.83385   0.24758   0.02670   0.00000  Uiso   1.00
C178   C     0.83287   0.24757   0.47330   0.00000  Uiso   1.00
H179   H     0.76129   0.28460   0.02319   0.00000  Uiso   1.00
H180   H     0.90426   0.28622   0.47667   0.00000  Uiso   1.00
N181   N     0.91741   0.20418   0.04176   0.00000  Uiso   1.00
O182   O     0.90945   0.18176   0.00198   0.00000  Uiso   1.00
O183   O     0.96289   0.20114   0.06867   0.00000  Uiso   1.00
N184   N     0.75070   0.20230   0.45840   0.00000  Uiso   1.00
O185   O     0.75934   0.18008   0.49829   0.00000  Uiso   1.00
O186   O     0.70535   0.19818   0.43147   0.00000  Uiso   1.00
O187   O     0.16667   0.68454   0.28974   0.00000  Uiso   1.00
O188   O     0.16666   0.81546   0.21026   0.00000  Uiso   1.00
O189   O     0.16667   0.68453   0.21026   0.00000  Uiso   1.00
O190   O     0.16666   0.81547   0.28974   0.00000  Uiso   1.00
C191   C     0.16667   0.66386   0.25000   0.00000  Uiso   1.00
C192   C     0.16666   0.83613   0.25000   0.00000  Uiso   1.00
O193   O     0.09058   0.75000   0.28044   0.00000  Uiso   1.00
O194   O     0.24275   0.75000   0.21955   0.00000  Uiso   1.00
O195   O     0.09058   0.74999   0.20096   0.00000  Uiso   1.00
O196   O     0.24275   0.75001   0.29903   0.00000  Uiso   1.00
C197   C     0.06698   0.74996   0.23752   0.00000  Uiso   1.00
C198   C     0.26635   0.74997   0.26248   0.00000  Uiso   1.00
Zn199  Zn    0.16667   0.75001   0.30307   0.00000  Uiso   1.00
Zn200  Zn    0.16667   0.75000   0.19693   0.00000  Uiso   1.00
C201   C     0.01198   0.74990   0.23077   0.00000  Uiso   1.00
C202   C     0.32136   0.74990   0.26923   0.00000  Uiso   1.00
H203   H     0.32468   0.74990   0.19427   0.00000  Uiso   1.00
H204   H     0.00865   0.74988   0.30573   0.00000  Uiso   1.00
C205   C     0.18468   0.54703   0.29229   0.00000  Uiso   1.00
C206   C     0.18540   0.95295   0.21301   0.00000  Uiso   1.00
H207   H     0.19938   0.52944   0.32500   0.00000  Uiso   1.00
H208   H     0.20067   0.97054   0.18462   0.00000  Uiso   1.00
C209   C     0.18439   0.59301   0.29236   0.00000  Uiso   1.00
C210   C     0.18511   0.90697   0.21285   0.00000  Uiso   1.00
H211   H     0.19863   0.61053   0.32524   0.00000  Uiso   1.00
H212   H     0.19991   0.88944   0.18417   0.00000  Uiso   1.00
C213   C     0.16667   0.61598   0.25000   0.00000  Uiso   1.00
C214   C     0.16666   0.88400   0.25000   0.00000  Uiso   1.00
C215   C     0.14893   0.59300   0.20764   0.00000  Uiso   1.00
C216   C     0.14821   0.90697   0.28715   0.00000  Uiso   1.00
H217   H     0.13470   0.61052   0.17477   0.00000  Uiso   1.00
H218   H     0.13341   0.88944   0.31583   0.00000  Uiso   1.00
C219   C     0.14863   0.54703   0.20771   0.00000  Uiso   1.00
C220   C     0.14791   0.95295   0.28699   0.00000  Uiso   1.00
H221   H     0.13393   0.52943   0.17501   0.00000  Uiso   1.00
H222   H     0.13264   0.97054   0.31538   0.00000  Uiso   1.00
C223   C     0.16665   0.52404   0.25000   0.00000  Uiso   1.00
C224   C     0.16665   0.97594   0.25000   0.00000  Uiso   1.00
C225   C     0.12658   0.76872   0.04634   0.00000  Uiso   1.00
C226   C     0.20614   0.76962   0.45358   0.00000  Uiso   1.00
C227   C     0.12700   0.76952   0.09608   0.00000  Uiso   1.00
C228   C     0.20571   0.77041   0.40384   0.00000  Uiso   1.00
H229   H     0.09540   0.78577   0.11058   0.00000  Uiso   1.00
H230   H     0.23681   0.78735   0.38927   0.00000  Uiso   1.00
N231   N     0.16667   0.74999   0.12623   0.00000  Uiso   1.00
N232   N     0.16667   0.75001   0.37376   0.00000  Uiso   1.00
C233   C     0.20683   0.72954   0.10844   0.00000  Uiso   1.00
C234   C     0.12713   0.72868   0.39163   0.00000  Uiso   1.00
H235   H     0.23748   0.71375   0.13310   0.00000  Uiso   1.00
H236   H     0.09697   0.71225   0.36701   0.00000  Uiso   1.00
C237   C     0.20832   0.72753   0.05869   0.00000  Uiso   1.00
C238   C     0.12570   0.72661   0.44138   0.00000  Uiso   1.00
C239   C     0.16719   0.74758   0.02670   0.00000  Uiso   1.00
C240   C     0.16620   0.74757   0.47330   0.00000  Uiso   1.00
H241   H     0.09463   0.78460   0.02319   0.00000  Uiso   1.00
H242   H     0.23759   0.78622   0.47667   0.00000  Uiso   1.00
N243   N     0.25074   0.70418   0.04176   0.00000  Uiso   1.00
O244   O     0.24279   0.68176   0.00198   0.00000  Uiso   1.00
O245   O     0.29622   0.70114   0.06867   0.00000  Uiso   1.00
N246   N     0.08403   0.70230   0.45840   0.00000  Uiso   1.00
O247   O     0.09268   0.68008   0.49829   0.00000  Uiso   1.00
O248   O     0.03869   0.69818   0.43147   0.00000  Uiso   1.00
O249   O     0.50000   0.68454   0.28974   0.00000  Uiso   1.00
O250   O     0.50000   0.81546   0.21026   0.00000  Uiso   1.00
O251   O     0.50000   0.68453   0.21026   0.00000  Uiso   1.00
O252   O     0.50000   0.81547   0.28974   0.00000  Uiso   1.00
C253   C     0.50000   0.66386   0.25000   0.00000  Uiso   1.00
C254   C     0.50000   0.83613   0.25000   0.00000  Uiso   1.00
O255   O     0.42392   0.75000   0.28044   0.00000  Uiso   1.00
O256   O     0.57608   0.75000   0.21955   0.00000  Uiso   1.00
O257   O     0.42392   0.74999   0.20096   0.00000  Uiso   1.00
O258   O     0.57608   0.75001   0.29903   0.00000  Uiso   1.00
C259   C     0.40031   0.74996   0.23752   0.00000  Uiso   1.00
C260   C     0.59969   0.74997   0.26248   0.00000  Uiso   1.00
Zn261  Zn    0.50000   0.75001   0.30307   0.00000  Uiso   1.00
Zn262  Zn    0.50000   0.75000   0.19693   0.00000  Uiso   1.00
C263   C     0.34531   0.74990   0.23077   0.00000  Uiso   1.00
C264   C     0.65469   0.74990   0.26923   0.00000  Uiso   1.00
H265   H     0.65802   0.74990   0.19427   0.00000  Uiso   1.00
H266   H     0.34198   0.74988   0.30573   0.00000  Uiso   1.00
C267   C     0.51801   0.54703   0.29229   0.00000  Uiso   1.00
C268   C     0.51874   0.95295   0.21301   0.00000  Uiso   1.00
H269   H     0.53271   0.52944   0.32500   0.00000  Uiso   1.00
H270   H     0.53400   0.97054   0.18462   0.00000  Uiso   1.00
C271   C     0.51772   0.59301   0.29236   0.00000  Uiso   1.00
C272   C     0.51844   0.90697   0.21285   0.00000  Uiso   1.00
H273   H     0.53196   0.61053   0.32524   0.00000  Uiso   1.00
H274   H     0.53324   0.88944   0.18417   0.00000  Uiso   1.00
C275   C     0.50000   0.61598   0.25000   0.00000  Uiso   1.00
C276   C     0.49999   0.88400   0.25000   0.00000  Uiso   1.00
C277   C     0.48227   0.59300   0.20764   0.00000  Uiso   1.00
C278   C     0.48154   0.90697   0.28715   0.00000  Uiso   1.00
H279   H     0.46803   0.61052   0.17477   0.00000  Uiso   1.00
H280   H     0.46674   0.88944   0.31583   0.00000  Uiso   1.00
C281   C     0.48197   0.54703   0.20771   0.00000  Uiso   1.00
C282   C     0.48124   0.95295   0.28699   0.00000  Uiso   1.00
H283   H     0.46726   0.52943   0.17501   0.00000  Uiso   1.00
H284   H     0.46598   0.97054   0.31538   0.00000  Uiso   1.00
C285   C     0.49999   0.52404   0.25000   0.00000  Uiso   1.00
C286   C     0.49999   0.97594   0.25000   0.00000  Uiso   1.00
C287   C     0.45992   0.76872   0.04634   0.00000  Uiso   1.00
C288   C     0.53948   0.76962   0.45358   0.00000  Uiso   1.00
C289   C     0.46034   0.76952   0.09608   0.00000  Uiso   1.00
C290   C     0.53905   0.77041   0.40384   0.00000  Uiso   1.00
H291   H     0.42874   0.78577   0.11058   0.00000  Uiso   1.00
H292   H     0.57014   0.78735   0.38927   0.00000  Uiso   1.00
N293   N     0.50000   0.74999   0.12623   0.00000  Uiso   1.00
N294   N     0.50000   0.75001   0.37376   0.00000  Uiso   1.00
C295   C     0.54017   0.72954   0.10844   0.00000  Uiso   1.00
C296   C     0.46046   0.72868   0.39163   0.00000  Uiso   1.00
H297   H     0.57081   0.71375   0.13310   0.00000  Uiso   1.00
H298   H     0.43031   0.71225   0.36701   0.00000  Uiso   1.00
C299   C     0.54166   0.72753   0.05869   0.00000  Uiso   1.00
C300   C     0.45903   0.72661   0.44138   0.00000  Uiso   1.00
C301   C     0.50052   0.74758   0.02670   0.00000  Uiso   1.00
C302   C     0.49953   0.74757   0.47330   0.00000  Uiso   1.00
H303   H     0.42796   0.78460   0.02319   0.00000  Uiso   1.00
H304   H     0.57093   0.78622   0.47667   0.00000  Uiso   1.00
N305   N     0.58407   0.70418   0.04176   0.00000  Uiso   1.00
O306   O     0.57612   0.68176   0.00198   0.00000  Uiso   1.00
O307   O     0.62955   0.70114   0.06867   0.00000  Uiso   1.00
N308   N     0.41737   0.70230   0.45840   0.00000  Uiso   1.00
O309   O     0.42601   0.68008   0.49829   0.00000  Uiso   1.00
O310   O     0.37202   0.69818   0.43147   0.00000  Uiso   1.00
O311   O     0.83334   0.68454   0.28974   0.00000  Uiso   1.00
O312   O     0.83333   0.81546   0.21026   0.00000  Uiso   1.00
O313   O     0.83334   0.68453   0.21026   0.00000  Uiso   1.00
O314   O     0.83333   0.81547   0.28974   0.00000  Uiso   1.00
C315   C     0.83334   0.66386   0.25000   0.00000  Uiso   1.00
C316   C     0.83333   0.83613   0.25000   0.00000  Uiso   1.00
O317   O     0.75725   0.75000   0.28044   0.00000  Uiso   1.00
O318   O     0.90942   0.75000   0.21955   0.00000  Uiso   1.00
O319   O     0.75725   0.74999   0.20096   0.00000  Uiso   1.00
O320   O     0.90942   0.75001   0.29903   0.00000  Uiso   1.00
C321   C     0.73365   0.74996   0.23752   0.00000  Uiso   1.00
C322   C     0.93302   0.74997   0.26248   0.00000  Uiso   1.00
Zn323  Zn    0.83333   0.75001   0.30307   0.00000  Uiso   1.00
Zn324  Zn    0.83333   0.75000   0.19693   0.00000  Uiso   1.00
C325   C     0.67864   0.74990   0.23077   0.00000  Uiso   1.00
C326   C     0.98802   0.74990   0.26923   0.00000  Uiso   1.00
H327   H     0.99135   0.74990   0.19427   0.00000  Uiso   1.00
H328   H     0.67532   0.74988   0.30573   0.00000  Uiso   1.00
C329   C     0.85135   0.54703   0.29229   0.00000  Uiso   1.00
C330   C     0.85207   0.95295   0.21301   0.00000  Uiso   1.00
H331   H     0.86605   0.52944   0.32500   0.00000  Uiso   1.00
H332   H     0.86733   0.97054   0.18462   0.00000  Uiso   1.00
C333   C     0.85106   0.59301   0.29236   0.00000  Uiso   1.00
C334   C     0.85177   0.90697   0.21285   0.00000  Uiso   1.00
H335   H     0.86530   0.61053   0.32524   0.00000  Uiso   1.00
H336   H     0.86658   0.88944   0.18417   0.00000  Uiso   1.00
C337   C     0.83333   0.61598   0.25000   0.00000  Uiso   1.00
C338   C     0.83333   0.88400   0.25000   0.00000  Uiso   1.00
C339   C     0.81560   0.59300   0.20764   0.00000  Uiso   1.00
C340   C     0.81488   0.90697   0.28715   0.00000  Uiso   1.00
H341   H     0.80136   0.61052   0.17477   0.00000  Uiso   1.00
H342   H     0.80008   0.88944   0.31583   0.00000  Uiso   1.00
C343   C     0.81530   0.54703   0.20771   0.00000  Uiso   1.00
C344   C     0.81458   0.95295   0.28699   0.00000  Uiso   1.00
H345   H     0.80060   0.52943   0.17501   0.00000  Uiso   1.00
H346   H     0.79931   0.97054   0.31538   0.00000  Uiso   1.00
C347   C     0.83332   0.52404   0.25000   0.00000  Uiso   1.00
C348   C     0.83332   0.97594   0.25000   0.00000  Uiso   1.00
C349   C     0.79325   0.76872   0.04634   0.00000  Uiso   1.00
C350   C     0.87281   0.76962   0.45358   0.00000  Uiso   1.00
C351   C     0.79367   0.76952   0.09608   0.00000  Uiso   1.00
C352   C     0.87238   0.77041   0.40384   0.00000  Uiso   1.00
H353   H     0.76207   0.78577   0.11058   0.00000  Uiso   1.00
H354   H     0.90348   0.78735   0.38927   0.00000  Uiso   1.00
N355   N     0.83333   0.74999   0.12623   0.00000  Uiso   1.00
N356   N     0.83333   0.75001   0.37376   0.00000  Uiso   1.00
C357   C     0.87350   0.72954   0.10844   0.00000  Uiso   1.00
C358   C     0.79379   0.72868   0.39163   0.00000  Uiso   1.00
H359   H     0.90414   0.71375   0.13310   0.00000  Uiso   1.00
H360   H     0.76364   0.71225   0.36701   0.00000  Uiso   1.00
C361   C     0.87499   0.72753   0.05869   0.00000  Uiso   1.00
C362   C     0.79237   0.72661   0.44138   0.00000  Uiso   1.00
C363   C     0.83385   0.74758   0.02670   0.00000  Uiso   1.00
C364   C     0.83287   0.74757   0.47330   0.00000  Uiso   1.00
H365   H     0.76129   0.78460   0.02319   0.00000  Uiso   1.00
H366   H     0.90426   0.78622   0.47667   0.00000  Uiso   1.00
N367   N     0.91741   0.70418   0.04176   0.00000  Uiso   1.00
O368   O     0.90945   0.68176   0.00198   0.00000  Uiso   1.00
O369   O     0.96289   0.70114   0.06867   0.00000  Uiso   1.00
N370   N     0.75070   0.70230   0.45840   0.00000  Uiso   1.00
O371   O     0.75934   0.68008   0.49829   0.00000  Uiso   1.00
O372   O     0.70535   0.69818   0.43147   0.00000  Uiso   1.00
O373   O     0.16667   0.18454   0.78974   0.00000  Uiso   1.00
O374   O     0.16666   0.31546   0.71026   0.00000  Uiso   1.00
O375   O     0.16667   0.18453   0.71026   0.00000  Uiso   1.00
O376   O     0.16666   0.31547   0.78974   0.00000  Uiso   1.00
C377   C     0.16667   0.16386   0.75000   0.00000  Uiso   1.00
C378   C     0.16666   0.33613   0.75000   0.00000  Uiso   1.00
O379   O     0.09058   0.25000   0.78044   0.00000  Uiso   1.00
O380   O     0.24275   0.25000   0.71955   0.00000  Uiso   1.00
O381   O     0.09058   0.24999   0.70096   0.00000  Uiso   1.00
O382   O     0.24275   0.25001   0.79903   0.00000  Uiso   1.00
C383   C     0.06698   0.24996   0.73752   0.00000  Uiso   1.00
C384   C     0.26635   0.24997   0.76248   0.00000  Uiso   1.00
Zn385  Zn    0.16667   0.25001   0.80307   0.00000  Uiso   1.00
Zn386  Zn    0.16667   0.25000   0.69693   0.00000  Uiso   1.00
C387   C     0.01198   0.24990   0.73077   0.00000  Uiso   1.00
C388   C     0.32136   0.24990   0.76923   0.00000  Uiso   1.00
H389   H     0.32468   0.24990   0.69427   0.00000  Uiso   1.00
H390   H     0.00865   0.24988   0.80573   0.00000  Uiso   1.00
C391   C     0.18468   0.04703   0.79229   0.00000  Uiso   1.00
C392   C     0.18540   0.45295   0.71301   0.00000  Uiso   1.00
H393   H     0.19938   0.02944   0.82500   0.00000  Uiso   1.00
H394   H     0.20067   0.47054   0.68462   0.00000  Uiso   1.00
C395   C     0.18439   0.09301   0.79236   0.00000  Uiso   1.00
C396   C     0.18511   0.40697   0.71285   0.00000  Uiso   1.00
H397   H     0.19863   0.11053   0.82524   0.00000  Uiso   1.00
H398   H     0.19991   0.38944   0.68417   0.00000  Uiso   1.00
C399   C     0.16667   0.11598   0.75000   0.00000  Uiso   1.00
C400   C     0.16666   0.38400   0.75000   0.00000  Uiso   1.00
C401   C     0.14893   0.09300   0.70764   0.00000  Uiso   1.00
C402   C     0.14821   0.40697   0.78715   0.00000  Uiso   1.00
H403   H     0.13470   0.11052   0.67477   0.00000  Uiso   1.00
H404   H     0.13341   0.38944   0.81583   0.00000  Uiso   1.00
C405   C     0.14863   0.04703   0.70771   0.00000  Uiso   1.00
C406   C     0.14791   0.45295   0.78699   0.00000  Uiso   1.00
H407   H     0.13393   0.02943   0.67501   0.00000  Uiso   1.00
H408   H     0.13264   0.47054   0.81538   0.00000  Uiso   1.00
C409   C     0.16665   0.02404   0.75000   0.00000  Uiso   1.00
C410   C     0.16665   0.47594   0.75000   0.00000  Uiso   1.00
C411   C     0.12658   0.26872   0.54634   0.00000  Uiso   1.00
C412   C     0.20614   0.26962   0.95358   0.00000  Uiso   1.00
C413   C     0.12700   0.26952   0.59608   0.00000  Uiso   1.00
C414   C     0.20571   0.27041   0.90384   0.00000  Uiso   1.00
H415   H     0.09540   0.28577   0.61058   0.00000  Uiso   1.00
H416   H     0.23681   0.28735   0.88927   0.00000  Uiso   1.00
N417   N     0.16667   0.24999   0.62623   0.00000  Uiso   1.00
N418   N     0.16667   0.25001   0.87376   0.00000  Uiso   1.00
C419   C     0.20683   0.22954   0.60844   0.00000  Uiso   1.00
C420   C     0.12713   0.22868   0.89163   0.00000  Uiso   1.00
H421   H     0.23748   0.21375   0.63310   0.00000  Uiso   1.00
H422   H     0.09697   0.21225   0.86701   0.00000  Uiso   1.00
C423   C     0.20832   0.22753   0.55869   0.00000  Uiso   1.00
C424   C     0.12570   0.22661   0.94138   0.00000  Uiso   1.00
C425   C     0.16719   0.24758   0.52670   0.00000  Uiso   1.00
C426   C     0.16620   0.24757   0.97330   0.00000  Uiso   1.00
H427   H     0.09463   0.28460   0.52319   0.00000  Uiso   1.00
H428   H     0.23759   0.28622   0.97667   0.00000  Uiso   1.00
N429   N     0.25074   0.20418   0.54176   0.00000  Uiso   1.00
O430   O     0.24279   0.18176   0.50198   0.00000  Uiso   1.00
O431   O     0.29622   0.20114   0.56867   0.00000  Uiso   1.00
N432   N     0.08403   0.20230   0.95840   0.00000  Uiso   1.00
O433   O     0.09268   0.18008   0.99829   0.00000  Uiso   1.00
O434   O     0.03869   0.19818   0.93147   0.00000  Uiso   1.00
O435   O     0.50000   0.18454   0.78974   0.00000  Uiso   1.00
O436   O     0.50000   0.31546   0.71026   0.00000  Uiso   1.00
O437   O     0.50000   0.18453   0.71026   0.00000  Uiso   1.00
O438   O     0.50000   0.31547   0.78974   0.00000  Uiso   1.00
C439   C     0.50000   0.16386   0.75000   0.00000  Uiso   1.00
C440   C     0.50000   0.33613   0.75000   0.00000  Uiso   1.00
O441   O     0.42392   0.25000   0.78044   0.00000  Uiso   1.00
O442   O     0.57608   0.25000   0.71955   0.00000  Uiso   1.00
O443   O     0.42392   0.24999   0.70096   0.00000  Uiso   1.00
O444   O     0.57608   0.25001   0.79903   0.00000  Uiso   1.00
C445   C     0.40031   0.24996   0.73752   0.00000  Uiso   1.00
C446   C     0.59969   0.24997   0.76248   0.00000  Uiso   1.00
Zn447  Zn    0.50000   0.25001   0.80307   0.00000  Uiso   1.00
Zn448  Zn    0.50000   0.25000   0.69693   0.00000  Uiso   1.00
C449   C     0.34531   0.24990   0.73077   0.00000  Uiso   1.00
C450   C     0.65469   0.24990   0.76923   0.00000  Uiso   1.00
H451   H     0.65802   0.24990   0.69427   0.00000  Uiso   1.00
H452   H     0.34198   0.24988   0.80573   0.00000  Uiso   1.00
C453   C     0.51801   0.04703   0.79229   0.00000  Uiso   1.00
C454   C     0.51874   0.45295   0.71301   0.00000  Uiso   1.00
H455   H     0.53271   0.02944   0.82500   0.00000  Uiso   1.00
H456   H     0.53400   0.47054   0.68462   0.00000  Uiso   1.00
C457   C     0.51772   0.09301   0.79236   0.00000  Uiso   1.00
C458   C     0.51844   0.40697   0.71285   0.00000  Uiso   1.00
H459   H     0.53196   0.11053   0.82524   0.00000  Uiso   1.00
H460   H     0.53324   0.38944   0.68417   0.00000  Uiso   1.00
C461   C     0.50000   0.11598   0.75000   0.00000  Uiso   1.00
C462   C     0.49999   0.38400   0.75000   0.00000  Uiso   1.00
C463   C     0.48227   0.09300   0.70764   0.00000  Uiso   1.00
C464   C     0.48154   0.40697   0.78715   0.00000  Uiso   1.00
H465   H     0.46803   0.11052   0.67477   0.00000  Uiso   1.00
H466   H     0.46674   0.38944   0.81583   0.00000  Uiso   1.00
C467   C     0.48197   0.04703   0.70771   0.00000  Uiso   1.00
C468   C     0.48124   0.45295   0.78699   0.00000  Uiso   1.00
H469   H     0.46726   0.02943   0.67501   0.00000  Uiso   1.00
H470   H     0.46598   0.47054   0.81538   0.00000  Uiso   1.00
C471   C     0.49999   0.02404   0.75000   0.00000  Uiso   1.00
C472   C     0.49999   0.47594   0.75000   0.00000  Uiso   1.00
C473   C     0.45992   0.26872   0.54634   0.00000  Uiso   1.00
C474   C     0.53948   0.26962   0.95358   0.00000  Uiso   1.00
C475   C     0.46034   0.26952   0.59608   0.00000  Uiso   1.00
C476   C     0.53905   0.27041   0.90384   0.00000  Uiso   1.00
H477   H     0.42874   0.28577   0.61058   0.00000  Uiso   1.00
H478   H     0.57014   0.28735   0.88927   0.00000  Uiso   1.00
N479   N     0.50000   0.24999   0.62623   0.00000  Uiso   1.00
N480   N     0.50000   0.25001   0.87376   0.00000  Uiso   1.00
C481   C     0.54017   0.22954   0.60844   0.00000  Uiso   1.00
C482   C     0.46046   0.22868   0.89163   0.00000  Uiso   1.00
H483   H     0.57081   0.21375   0.63310   0.00000  Uiso   1.00
H484   H     0.43031   0.21225   0.86701   0.00000  Uiso   1.00
C485   C     0.54166   0.22753   0.55869   0.00000  Uiso   1.00
C486   C     0.45903   0.22661   0.94138   0.00000  Uiso   1.00
C487   C     0.50052   0.24758   0.52670   0.00000  Uiso   1.00
C488   C     0.49953   0.24757   0.97330   0.00000  Uiso   1.00
H489   H     0.42796   0.28460   0.52319   0.00000  Uiso   1.00
H490   H     0.57093   0.28622   0.97667   0.00000  Uiso   1.00
N491   N     0.58407   0.20418   0.54176   0.00000  Uiso   1.00
O492   O     0.57612   0.18176   0.50198   0.00000  Uiso   1.00
O493   O     0.62955   0.20114   0.56867   0.00000  Uiso   1.00
N494   N     0.41737   0.20230   0.95840   0.00000  Uiso   1.00
O495   O     0.42601   0.18008   0.99829   0.00000  Uiso   1.00
O496   O     0.37202   0.19818   0.93147   0.00000  Uiso   1.00
O497   O     0.83334   0.18454   0.78974   0.00000  Uiso   1.00
O498   O     0.83333   0.31546   0.71026   0.00000  Uiso   1.00
O499   O     0.83334   0.18453   0.71026   0.00000  Uiso   1.00
O500   O     0.83333   0.31547   0.78974   0.00000  Uiso   1.00
C501   C     0.83334   0.16386   0.75000   0.00000  Uiso   1.00
C502   C     0.83333   0.33613   0.75000   0.00000  Uiso   1.00
O503   O     0.75725   0.25000   0.78044   0.00000  Uiso   1.00
O504   O     0.90942   0.25000   0.71955   0.00000  Uiso   1.00
O505   O     0.75725   0.24999   0.70096   0.00000  Uiso   1.00
O506   O     0.90942   0.25001   0.79903   0.00000  Uiso   1.00
C507   C     0.73365   0.24996   0.73752   0.00000  Uiso   1.00
C508   C     0.93302   0.24997   0.76248   0.00000  Uiso   1.00
Zn509  Zn    0.83333   0.25001   0.80307   0.00000  Uiso   1.00
Zn510  Zn    0.83333   0.25000   0.69693   0.00000  Uiso   1.00
C511   C     0.67864   0.24990   0.73077   0.00000  Uiso   1.00
C512   C     0.98802   0.24990   0.76923   0.00000  Uiso   1.00
H513   H     0.99135   0.24990   0.69427   0.00000  Uiso   1.00
H514   H     0.67532   0.24988   0.80573   0.00000  Uiso   1.00
C515   C     0.85135   0.04703   0.79229   0.00000  Uiso   1.00
C516   C     0.85207   0.45295   0.71301   0.00000  Uiso   1.00
H517   H     0.86605   0.02944   0.82500   0.00000  Uiso   1.00
H518   H     0.86733   0.47054   0.68462   0.00000  Uiso   1.00
C519   C     0.85106   0.09301   0.79236   0.00000  Uiso   1.00
C520   C     0.85177   0.40697   0.71285   0.00000  Uiso   1.00
H521   H     0.86530   0.11053   0.82524   0.00000  Uiso   1.00
H522   H     0.86658   0.38944   0.68417   0.00000  Uiso   1.00
C523   C     0.83333   0.11598   0.75000   0.00000  Uiso   1.00
C524   C     0.83333   0.38400   0.75000   0.00000  Uiso   1.00
C525   C     0.81560   0.09300   0.70764   0.00000  Uiso   1.00
C526   C     0.81488   0.40697   0.78715   0.00000  Uiso   1.00
H527   H     0.80136   0.11052   0.67477   0.00000  Uiso   1.00
H528   H     0.80008   0.38944   0.81583   0.00000  Uiso   1.00
C529   C     0.81530   0.04703   0.70771   0.00000  Uiso   1.00
C530   C     0.81458   0.45295   0.78699   0.00000  Uiso   1.00
H531   H     0.80060   0.02943   0.67501   0.00000  Uiso   1.00
H532   H     0.79931   0.47054   0.81538   0.00000  Uiso   1.00
C533   C     0.83332   0.02404   0.75000   0.00000  Uiso   1.00
C534   C     0.83332   0.47594   0.75000   0.00000  Uiso   1.00
C535   C     0.79325   0.26872   0.54634   0.00000  Uiso   1.00
C536   C     0.87281   0.26962   0.95358   0.00000  Uiso   1.00
C537   C     0.79367   0.26952   0.59608   0.00000  Uiso   1.00
C538   C     0.87238   0.27041   0.90384   0.00000  Uiso   1.00
H539   H     0.76207   0.28577   0.61058   0.00000  Uiso   1.00
H540   H     0.90348   0.28735   0.88927   0.00000  Uiso   1.00
N541   N     0.83333   0.24999   0.62623   0.00000  Uiso   1.00
N542   N     0.83333   0.25001   0.87376   0.00000  Uiso   1.00
C543   C     0.87350   0.22954   0.60844   0.00000  Uiso   1.00
C544   C     0.79379   0.22868   0.89163   0.00000  Uiso   1.00
H545   H     0.90414   0.21375   0.63310   0.00000  Uiso   1.00
H546   H     0.76364   0.21225   0.86701   0.00000  Uiso   1.00
C547   C     0.87499   0.22753   0.55869   0.00000  Uiso   1.00
C548   C     0.79237   0.22661   0.94138   0.00000  Uiso   1.00
C549   C     0.83385   0.24758   0.52670   0.00000  Uiso   1.00
C550   C     0.83287   0.24757   0.97330   0.00000  Uiso   1.00
H551   H     0.76129   0.28460   0.52319   0.00000  Uiso   1.00
H552   H     0.90426   0.28622   0.97667   0.00000  Uiso   1.00
N553   N     0.91741   0.20418   0.54176   0.00000  Uiso   1.00
O554   O     0.90945   0.18176   0.50198   0.00000  Uiso   1.00
O555   O     0.96289   0.20114   0.56867   0.00000  Uiso   1.00
N556   N     0.75070   0.20230   0.95840   0.00000  Uiso   1.00
O557   O     0.75934   0.18008   0.99829   0.00000  Uiso   1.00
O558   O     0.70535   0.19818   0.93147   0.00000  Uiso   1.00
O559   O     0.16667   0.68454   0.78974   0.00000  Uiso   1.00
O560   O     0.16666   0.81546   0.71026   0.00000  Uiso   1.00
O561   O     0.16667   0.68453   0.71026   0.00000  Uiso   1.00
O562   O     0.16666   0.81547   0.78974   0.00000  Uiso   1.00
C563   C     0.16667   0.66386   0.75000   0.00000  Uiso   1.00
C564   C     0.16666   0.83613   0.75000   0.00000  Uiso   1.00
O565   O     0.09058   0.75000   0.78044   0.00000  Uiso   1.00
O566   O     0.24275   0.75000   0.71955   0.00000  Uiso   1.00
O567   O     0.09058   0.74999   0.70096   0.00000  Uiso   1.00
O568   O     0.24275   0.75001   0.79903   0.00000  Uiso   1.00
C569   C     0.06698   0.74996   0.73752   0.00000  Uiso   1.00
C570   C     0.26635   0.74997   0.76248   0.00000  Uiso   1.00
Zn571  Zn    0.16667   0.75001   0.80307   0.00000  Uiso   1.00
Zn572  Zn    0.16667   0.75000   0.69693   0.00000  Uiso   1.00
C573   C     0.01198   0.74990   0.73077   0.00000  Uiso   1.00
C574   C     0.32136   0.74990   0.76923   0.00000  Uiso   1.00
H575   H     0.32468   0.74990   0.69427   0.00000  Uiso   1.00
H576   H     0.00865   0.74988   0.80573   0.00000  Uiso   1.00
C577   C     0.18468   0.54703   0.79229   0.00000  Uiso   1.00
C578   C     0.18540   0.95295   0.71301   0.00000  Uiso   1.00
H579   H     0.19938   0.52944   0.82500   0.00000  Uiso   1.00
H580   H     0.20067   0.97054   0.68462   0.00000  Uiso   1.00
C581   C     0.18439   0.59301   0.79236   0.00000  Uiso   1.00
C582   C     0.18511   0.90697   0.71285   0.00000  Uiso   1.00
H583   H     0.19863   0.61053   0.82524   0.00000  Uiso   1.00
H584   H     0.19991   0.88944   0.68417   0.00000  Uiso   1.00
C585   C     0.16667   0.61598   0.75000   0.00000  Uiso   1.00
C586   C     0.16666   0.88400   0.75000   0.00000  Uiso   1.00
C587   C     0.14893   0.59300   0.70764   0.00000  Uiso   1.00
C588   C     0.14821   0.90697   0.78715   0.00000  Uiso   1.00
H589   H     0.13470   0.61052   0.67477   0.00000  Uiso   1.00
H590   H     0.13341   0.88944   0.81583   0.00000  Uiso   1.00
C591   C     0.14863   0.54703   0.70771   0.00000  Uiso   1.00
C592   C     0.14791   0.95295   0.78699   0.00000  Uiso   1.00
H593   H     0.13393   0.52943   0.67501   0.00000  Uiso   1.00
H594   H     0.13264   0.97054   0.81538   0.00000  Uiso   1.00
C595   C     0.16665   0.52404   0.75000   0.00000  Uiso   1.00
C596   C     0.16665   0.97594   0.75000   0.00000  Uiso   1.00
C597   C     0.12658   0.76872   0.54634   0.00000  Uiso   1.00
C598   C     0.20614   0.76962   0.95358   0.00000  Uiso   1.00
C599   C     0.12700   0.76952   0.59608   0.00000  Uiso   1.00
C600   C     0.20571   0.77041   0.90384   0.00000  Uiso   1.00
H601   H     0.09540   0.78577   0.61058   0.00000  Uiso   1.00
H602   H     0.23681   0.78735   0.88927   0.00000  Uiso   1.00
N603   N     0.16667   0.74999   0.62623   0.00000  Uiso   1.00
N604   N     0.16667   0.75001   0.87376   0.00000  Uiso   1.00
C605   C     0.20683   0.72954   0.60844   0.00000  Uiso   1.00
C606   C     0.12713   0.72868   0.89163   0.00000  Uiso   1.00
H607   H     0.23748   0.71375   0.63310   0.00000  Uiso   1.00
H608   H     0.09697   0.71225   0.86701   0.00000  Uiso   1.00
C609   C     0.20832   0.72753   0.55869   0.00000  Uiso   1.00
C610   C     0.12570   0.72661   0.94138   0.00000  Uiso   1.00
C611   C     0.16719   0.74758   0.52670   0.00000  Uiso   1.00
C612   C     0.16620   0.74757   0.97330   0.00000  Uiso   1.00
H613   H     0.09463   0.78460   0.52319   0.00000  Uiso   1.00
H614   H     0.23759   0.78622   0.97667   0.00000  Uiso   1.00
N615   N     0.25074   0.70418   0.54176   0.00000  Uiso   1.00
O616   O     0.24279   0.68176   0.50198   0.00000  Uiso   1.00
O617   O     0.29622   0.70114   0.56867   0.00000  Uiso   1.00
N618   N     0.08403   0.70230   0.95840   0.00000  Uiso   1.00
O619   O     0.09268   0.68008   0.99829   0.00000  Uiso   1.00
O620   O     0.03869   0.69818   0.93147   0.00000  Uiso   1.00
O621   O     0.50000   0.68454   0.78974   0.00000  Uiso   1.00
O622   O     0.50000   0.81546   0.71026   0.00000  Uiso   1.00
O623   O     0.50000   0.68453   0.71026   0.00000  Uiso   1.00
O624   O     0.50000   0.81547   0.78974   0.00000  Uiso   1.00
C625   C     0.50000   0.66386   0.75000   0.00000  Uiso   1.00
C626   C     0.50000   0.83613   0.75000   0.00000  Uiso   1.00
O627   O     0.42392   0.75000   0.78044   0.00000  Uiso   1.00
O628   O     0.57608   0.75000   0.71955   0.00000  Uiso   1.00
O629   O     0.42392   0.74999   0.70096   0.00000  Uiso   1.00
O630   O     0.57608   0.75001   0.79903   0.00000  Uiso   1.00
C631   C     0.40031   0.74996   0.73752   0.00000  Uiso   1.00
C632   C     0.59969   0.74997   0.76248   0.00000  Uiso   1.00
Zn633  Zn    0.50000   0.75001   0.80307   0.00000  Uiso   1.00
Zn634  Zn    0.50000   0.75000   0.69693   0.00000  Uiso   1.00
C635   C     0.34531   0.74990   0.73077   0.00000  Uiso   1.00
C636   C     0.65469   0.74990   0.76923   0.00000  Uiso   1.00
H637   H     0.65802   0.74990   0.69427   0.00000  Uiso   1.00
H638   H     0.34198   0.74988   0.80573   0.00000  Uiso   1.00
C639   C     0.51801   0.54703   0.79229   0.00000  Uiso   1.00
C640   C     0.51874   0.95295   0.71301   0.00000  Uiso   1.00
H641   H     0.53271   0.52944   0.82500   0.00000  Uiso   1.00
H642   H     0.53400   0.97054   0.68462   0.00000  Uiso   1.00
C643   C     0.51772   0.59301   0.79236   0.00000  Uiso   1.00
C644   C     0.51844   0.90697   0.71285   0.00000  Uiso   1.00
H645   H     0.53196   0.61053   0.82524   0.00000  Uiso   1.00
H646   H     0.53324   0.88944   0.68417   0.00000  Uiso   1.00
C647   C     0.50000   0.61598   0.75000   0.00000  Uiso   1.00
C648   C     0.49999   0.88400   0.75000   0.00000  Uiso   1.00
C649   C     0.48227   0.59300   0.70764   0.00000  Uiso   1.00
C650   C     0.48154   0.90697   0.78715   0.00000  Uiso   1.00
H651   H     0.46803   0.61052   0.67477   0.00000  Uiso   1.00
H652   H     0.46674   0.88944   0.81583   0.00000  Uiso   1.00
C653   C     0.48197   0.54703   0.70771   0.00000  Uiso   1.00
C654   C     0.48124   0.95295   0.78699   0.00000  Uiso   1.00
H655   H     0.46726   0.52943   0.67501   0.00000  Uiso   1.00
H656   H     0.46598   0.97054   0.81538   0.00000  Uiso   1.00
C657   C     0.49999   0.52404   0.75000   0.00000  Uiso   1.00
C658   C     0.49999   0.97594   0.75000   0.00000  Uiso   1.00
C659   C     0.45992   0.76872   0.54634   0.00000  Uiso   1.00
C660   C     0.53948   0.76962   0.95358   0.00000  Uiso   1.00
C661   C     0.46034   0.76952   0.59608   0.00000  Uiso   1.00
C662   C     0.53905   0.77041   0.90384   0.00000  Uiso   1.00
H663   H     0.42874   0.78577   0.61058   0.00000  Uiso   1.00
H664   H     0.57014   0.78735   0.88927   0.00000  Uiso   1.00
N665   N     0.50000   0.74999   0.62623   0.00000  Uiso   1.00
N666   N     0.50000   0.75001   0.87376   0.00000  Uiso   1.00
C667   C     0.54017   0.72954   0.60844   0.00000  Uiso   1.00
C668   C     0.46046   0.72868   0.89163   0.00000  Uiso   1.00
H669   H     0.57081   0.71375   0.63310   0.00000  Uiso   1.00
H670   H     0.43031   0.71225   0.86701   0.00000  Uiso   1.00
C671   C     0.54166   0.72753   0.55869   0.00000  Uiso   1.00
C672   C     0.45903   0.72661   0.94138   0.00000  Uiso   1.00
C673   C     0.50052   0.74758   0.52670   0.00000  Uiso   1.00
C674   C     0.49953   0.74757   0.97330   0.00000  Uiso   1.00
H675   H     0.42796   0.78460   0.52319   0.00000  Uiso   1.00
H676   H     0.57093   0.78622   0.97667   0.00000  Uiso   1.00
N677   N     0.58407   0.70418   0.54176   0.00000  Uiso   1.00
O678   O     0.57612   0.68176   0.50198   0.00000  Uiso   1.00
O679   O     0.62955   0.70114   0.56867   0.00000  Uiso   1.00
N680   N     0.41737   0.70230   0.95840   0.00000  Uiso   1.00
O681   O     0.42601   0.68008   0.99829   0.00000  Uiso   1.00
O682   O     0.37202   0.69818   0.93147   0.00000  Uiso   1.00
O683   O     0.83334   0.68454   0.78974   0.00000  Uiso   1.00
O684   O     0.83333   0.81546   0.71026   0.00000  Uiso   1.00
O685   O     0.83334   0.68453   0.71026   0.00000  Uiso   1.00
O686   O     0.83333   0.81547   0.78974   0.00000  Uiso   1.00
C687   C     0.83334   0.66386   0.75000   0.00000  Uiso   1.00
C688   C     0.83333   0.83613   0.75000   0.00000  Uiso   1.00
O689   O     0.75725   0.75000   0.78044   0.00000  Uiso   1.00
O690   O     0.90942   0.75000   0.71955   0.00000  Uiso   1.00
O691   O     0.75725   0.74999   0.70096   0.00000  Uiso   1.00
O692   O     0.90942   0.75001   0.79903   0.00000  Uiso   1.00
C693   C     0.73365   0.74996   0.73752   0.00000  Uiso   1.00
C694   C     0.93302   0.74997   0.76248   0.00000  Uiso   1.00
Zn695  Zn    0.83333   0.75001   0.80307   0.00000  Uiso   1.00
Zn696  Zn    0.83333   0.75000   0.69693   0.00000  Uiso   1.00
C697   C     0.67864   0.74990   0.73077   0.00000  Uiso   1.00
C698   C     0.98802   0.74990   0.76923   0.00000  Uiso   1.00
H699   H     0.99135   0.74990   0.69427   0.00000  Uiso   1.00
H700   H     0.67532   0.74988   0.80573   0.00000  Uiso   1.00
C701   C     0.85135   0.54703   0.79229   0.00000  Uiso   1.00
C702   C     0.85207   0.95295   0.71301   0.00000  Uiso   1.00
H703   H     0.86605   0.52944   0.82500   0.00000  Uiso   1.00
H704   H     0.86733   0.97054   0.68462   0.00000  Uiso   1.00
C705   C     0.85106   0.59301   0.79236   0.00000  Uiso   1.00
C706   C     0.85177   0.90697   0.71285   0.00000  Uiso   1.00
H707   H     0.86530   0.61053   0.82524   0.00000  Uiso   1.00
H708   H     0.86658   0.88944   0.68417   0.00000  Uiso   1.00
C709   C     0.83333   0.61598   0.75000   0.00000  Uiso   1.00
C710   C     0.83333   0.88400   0.75000   0.00000  Uiso   1.00
C711   C     0.81560   0.59300   0.70764   0.00000  Uiso   1.00
C712   C     0.81488   0.90697   0.78715   0.00000  Uiso   1.00
H713   H     0.80136   0.61052   0.67477   0.00000  Uiso   1.00
H714   H     0.80008   0.88944   0.81583   0.00000  Uiso   1.00
C715   C     0.81530   0.54703   0.70771   0.00000  Uiso   1.00
C716   C     0.81458   0.95295   0.78699   0.00000  Uiso   1.00
H717   H     0.80060   0.52943   0.67501   0.00000  Uiso   1.00
H718   H     0.79931   0.97054   0.81538   0.00000  Uiso   1.00
C719   C     0.83332   0.52404   0.75000   0.00000  Uiso   1.00
C720   C     0.83332   0.97594   0.75000   0.00000  Uiso   1.00
C721   C     0.79325   0.76872   0.54634   0.00000  Uiso   1.00
C722   C     0.87281   0.76962   0.95358   0.00000  Uiso   1.00
C723   C     0.79367   0.76952   0.59608   0.00000  Uiso   1.00
C724   C     0.87238   0.77041   0.90384   0.00000  Uiso   1.00
H725   H     0.76207   0.78577   0.61058   0.00000  Uiso   1.00
H726   H     0.90348   0.78735   0.88927   0.00000  Uiso   1.00
N727   N     0.83333   0.74999   0.62623   0.00000  Uiso   1.00
N728   N     0.83333   0.75001   0.87376   0.00000  Uiso   1.00
C729   C     0.87350   0.72954   0.60844   0.00000  Uiso   1.00
C730   C     0.79379   0.72868   0.89163   0.00000  Uiso   1.00
H731   H     0.90414   0.71375   0.63310   0.00000  Uiso   1.00
H732   H     0.76364   0.71225   0.86701   0.00000  Uiso   1.00
C733   C     0.87499   0.72753   0.55869   0.00000  Uiso   1.00
C734   C     0.79237   0.72661   0.94138   0.00000  Uiso   1.00
C735   C     0.83385   0.74758   0.52670   0.00000  Uiso   1.00
C736   C     0.83287   0.74757   0.97330   0.00000  Uiso   1.00
H737   H     0.76129   0.78460   0.52319   0.00000  Uiso   1.00
H738   H     0.90426   0.78622   0.97667   0.00000  Uiso   1.00
N739   N     0.91741   0.70418   0.54176   0.00000  Uiso   1.00
O740   O     0.90945   0.68176   0.50198   0.00000  Uiso   1.00
O741   O     0.96289   0.70114   0.56867   0.00000  Uiso   1.00
N742   N     0.75070   0.70230   0.95840   0.00000  Uiso   1.00
O743   O     0.75934   0.68008   0.99829   0.00000  Uiso   1.00
O744   O     0.70535   0.69818   0.93147   0.00000  Uiso   1.00
loop_
_geom_bond_atom_site_label_1
_geom_bond_atom_site_label_2
_geom_bond_distance
_geom_bond_site_symmetry_2
_ccdc_geom_bond_type
O1     C5      1.284   .     A
O1     Zn13    2.002   .     S
O2     C6      1.284   .     A
O2     Zn14    2.002   .     S
O3     Zn14    2.001   .     S
O3     C5      1.284   .     A
O4     C6      1.284   .     A
O4     Zn13    2.001   .     S
C5     C27     1.438   .     S
C6     C28     1.437   .     S
O7     C11     1.274   .     A
O7     Zn13    1.969   .     S
O8     C12     1.274   .     A
O8     Zn14    1.969   .     S
O9     Zn14    1.981   .     S
O9     C11     1.276   .     A
O10    C12     1.276   .     A
O10    Zn13    1.981   .     S
C11    C15     1.402   .     S
C12    C16     1.402   .     S
Zn13   N46     2.001   .     S
Zn14   N45     2.001   .     S
C15    C140    1.330   1_455 S
C15    H141    1.088   1_455 S
C16    C77     1.330   .     S
C16    H80     1.088   .     S
H17    C77     1.088   .     S
H18    C140    1.088   1_455 S
C19    H21     1.083   .     S
C19    C23     1.380   .     A
C19    C37     1.399   .     A
C20    C38     1.399   .     A
C20    H22     1.083   .     S
C20    C24     1.381   .     A
C23    C27     1.399   .     A
C23    H25     1.084   .     S
C24    C28     1.399   .     A
C24    H26     1.084   .     S
C27    C29     1.399   .     A
C28    C30     1.399   .     A
C29    H31     1.084   .     S
C29    C33     1.380   .     A
C30    H32     1.084   .     S
C30    C34     1.381   .     A
C33    H35     1.083   .     S
C33    C37     1.399   .     A
C34    H36     1.083   .     S
C34    C38     1.399   .     A
C37    C224    1.444   1_545 S
C38    C223    1.444   .     S
C39    H55     1.083   .     S
C39    C41     1.406   .     A
C39    C53     1.408   .     A
C40    C54     1.408   .     A
C40    C42     1.406   .     A
C40    H56     1.083   .     S
C41    H43     1.082   .     S
C41    N45     1.362   .     A
C42    H44     1.082   .     S
C42    N46     1.362   .     A
N45    C47     1.363   .     A
N46    C48     1.363   .     A
C47    H49     1.082   .     S
C47    C51     1.415   .     A
C48    C52     1.415   .     A
C48    H50     1.082   .     S
C51    N57     1.440   .     S
C51    C53     1.420   .     A
C52    C54     1.420   .     A
C52    N60     1.440   .     S
C53    C426    1.508   1_554 S
C54    C425    1.508   .     S
N57    O58     1.301   .     A
N57    O59     1.302   .     A
N60    O62     1.302   .     A
N60    O61     1.301   .     A
O63    C67     1.284   .     A
O63    Zn75    2.002   .     S
O64    C68     1.284   .     A
O64    Zn76    2.002   .     S
O65    Zn76    2.001   .     S
O65    C67     1.284   .     A
O66    C68     1.284   .     A
O66    Zn75    2.001   .     S
C67    C89     1.438   .     S
C68    C90     1.437   .     S
O69    C73     1.274   .     A
O69    Zn75    1.969   .     S
O70    C74     1.274   .     A
O70    Zn76    1.969   .     S
O71    Zn76    1.981   .     S
O71    C73     1.276   .     A
O72    C74     1.276   .     A
O72    Zn75    1.981   .     S
C73    C77     1.402   .     S
C74    C78     1.402   .     S
Zn75   N108    2.001   .     S
Zn76   N107    2.001   .     S
C78    C139    1.330   .     S
C78    H142    1.088   .     S
H79    C139    1.088   .     S
C81    H83     1.083   .     S
C81    C85     1.380   .     A
C81    C99     1.399   .     A
C82    C100    1.399   .     A
C82    H84     1.083   .     S
C82    C86     1.381   .     A
C85    C89     1.399   .     A
C85    H87     1.084   .     S
C86    C90     1.399   .     A
C86    H88     1.084   .     S
C89    C91     1.399   .     A
C90    C92     1.399   .     A
C91    H93     1.084   .     S
C91    C95     1.380   .     A
C92    H94     1.084   .     S
C92    C96     1.381   .     A
C95    H97     1.083   .     S
C95    C99     1.399   .     A
C96    H98     1.083   .     S
C96    C100    1.399   .     A
C99    C286    1.444   1_545 S
C100   C285    1.444   .     S
C101   H117    1.083   .     S
C101   C103    1.406   .     A
C101   C115    1.408   .     A
C102   C116    1.408   .     A
C102   C104    1.406   .     A
C102   H118    1.083   .     S
C103   H105    1.082   .     S
C103   N107    1.362   .     A
C104   H106    1.082   .     S
C104   N108    1.362   .     A
N107   C109    1.363   .     A
N108   C110    1.363   .     A
C109   H111    1.082   .     S
C109   C113    1.415   .     A
C110   C114    1.415   .     A
C110   H112    1.082   .     S
C113   N119    1.440   .     S
C113   C115    1.420   .     A
C114   C116    1.420   .     A
C114   N122    1.440   .     S
C115   C488    1.508   1_554 S
C116   C487    1.508   .     S
N119   O120    1.301   .     A
N119   O121    1.302   .     A
N122   O124    1.302   .     A
N122   O123    1.301   .     A
O125   C129    1.284   .     A
O125   Zn137   2.002   .     S
O126   C130    1.284   .     A
O126   Zn138   2.002   .     S
O127   Zn138   2.001   .     S
O127   C129    1.284   .     A
O128   C130    1.284   .     A
O128   Zn137   2.001   .     S
C129   C151    1.438   .     S
C130   C152    1.437   .     S
O131   C135    1.274   .     A
O131   Zn137   1.969   .     S
O132   C136    1.274   .     A
O132   Zn138   1.969   .     S
O133   Zn138   1.981   .     S
O133   C135    1.276   .     A
O134   C136    1.276   .     A
O134   Zn137   1.981   .     S
C135   C139    1.402   .     S
C136   C140    1.402   .     S
Zn137  N170    2.001   .     S
Zn138  N169    2.001   .     S
C140   C15     1.330   1_655 S
C140   H18     1.088   1_655 S
H141   C15     1.088   1_655 S
C143   H145    1.083   .     S
C143   C147    1.380   .     A
C143   C161    1.399   .     A
C144   C162    1.399   .     A
C144   H146    1.083   .     S
C144   C148    1.381   .     A
C147   C151    1.399   .     A
C147   H149    1.084   .     S
C148   C152    1.399   .     A
C148   H150    1.084   .     S
C151   C153    1.399   .     A
C152   C154    1.399   .     A
C153   H155    1.084   .     S
C153   C157    1.380   .     A
C154   H156    1.084   .     S
C154   C158    1.381   .     A
C157   H159    1.083   .     S
C157   C161    1.399   .     A
C158   H160    1.083   .     S
C158   C162    1.399   .     A
C161   C348    1.444   1_545 S
C162   C347    1.444   .     S
C163   H179    1.083   .     S
C163   C165    1.406   .     A
C163   C177    1.408   .     A
C164   C178    1.408   .     A
C164   C166    1.406   .     A
C164   H180    1.083   .     S
C165   H167    1.082   .     S
C165   N169    1.362   .     A
C166   H168    1.082   .     S
C166   N170    1.362   .     A
N169   C171    1.363   .     A
N170   C172    1.363   .     A
C171   H173    1.082   .     S
C171   C175    1.415   .     A
C172   C176    1.415   .     A
C172   H174    1.082   .     S
C175   N181    1.440   .     S
C175   C177    1.420   .     A
C176   C178    1.420   .     A
C176   N184    1.440   .     S
C177   C550    1.508   1_554 S
C178   C549    1.508   .     S
N181   O182    1.301   .     A
N181   O183    1.302   .     A
N184   O186    1.302   .     A
N184   O185    1.301   .     A
O187   C191    1.284   .     A
O187   Zn199   2.002   .     S
O188   C192    1.284   .     A
O188   Zn200   2.002   .     S
O189   Zn200   2.001   .     S
O189   C191    1.284   .     A
O190   C192    1.284   .     A
O190   Zn199   2.001   .     S
C191   C213    1.438   .     S
C192   C214    1.437   .     S
O193   C197    1.274   .     A
O193   Zn199   1.969   .     S
O194   C198    1.274   .     A
O194   Zn200   1.969   .     S
O195   Zn200   1.981   .     S
O195   C197    1.276   .     A
O196   C198    1.276   .     A
O196   Zn199   1.981   .     S
C197   C201    1.402   .     S
C198   C202    1.402   .     S
Zn199  N232    2.001   .     S
Zn200  N231    2.001   .     S
C201   C326    1.330   1_455 S
C201   H327    1.088   1_455 S
C202   C263    1.330   .     S
C202   H266    1.088   .     S
H203   C263    1.088   .     S
H204   C326    1.088   1_455 S
C205   H207    1.083   .     S
C205   C209    1.380   .     A
C205   C223    1.399   .     A
C206   C224    1.399   .     A
C206   H208    1.083   .     S
C206   C210    1.381   .     A
C209   C213    1.399   .     A
C209   H211    1.084   .     S
C210   C214    1.399   .     A
C210   H212    1.084   .     S
C213   C215    1.399   .     A
C214   C216    1.399   .     A
C215   H217    1.084   .     S
C215   C219    1.380   .     A
C216   H218    1.084   .     S
C216   C220    1.381   .     A
C219   H221    1.083   .     S
C219   C223    1.399   .     A
C220   H222    1.083   .     S
C220   C224    1.399   .     A
C224   C37     1.444   1_565 S
C225   H241    1.083   .     S
C225   C227    1.406   .     A
C225   C239    1.408   .     A
C226   C240    1.408   .     A
C226   C228    1.406   .     A
C226   H242    1.083   .     S
C227   H229    1.082   .     S
C227   N231    1.362   .     A
C228   H230    1.082   .     S
C228   N232    1.362   .     A
N231   C233    1.363   .     A
N232   C234    1.363   .     A
C233   H235    1.082   .     S
C233   C237    1.415   .     A
C234   C238    1.415   .     A
C234   H236    1.082   .     S
C237   N243    1.440   .     S
C237   C239    1.420   .     A
C238   C240    1.420   .     A
C238   N246    1.440   .     S
C239   C612    1.508   1_554 S
C240   C611    1.508   .     S
N243   O244    1.301   .     A
N243   O245    1.302   .     A
N246   O248    1.302   .     A
N246   O247    1.301   .     A
O249   C253    1.284   .     A
O249   Zn261   2.002   .     S
O250   C254    1.284   .     A
O250   Zn262   2.002   .     S
O251   Zn262   2.001   .     S
O251   C253    1.284   .     A
O252   C254    1.284   .     A
O252   Zn261   2.001   .     S
C253   C275    1.438   .     S
C254   C276    1.437   .     S
O255   C259    1.274   .     A
O255   Zn261   1.969   .     S
O256   C260    1.274   .     A
O256   Zn262   1.969   .     S
O257   Zn262   1.981   .     S
O257   C259    1.276   .     A
O258   C260    1.276   .     A
O258   Zn261   1.981   .     S
C259   C263    1.402   .     S
C260   C264    1.402   .     S
Zn261  N294    2.001   .     S
Zn262  N293    2.001   .     S
C264   C325    1.330   .     S
C264   H328    1.088   .     S
H265   C325    1.088   .     S
C267   H269    1.083   .     S
C267   C271    1.380   .     A
C267   C285    1.399   .     A
C268   C286    1.399   .     A
C268   H270    1.083   .     S
C268   C272    1.381   .     A
C271   C275    1.399   .     A
C271   H273    1.084   .     S
C272   C276    1.399   .     A
C272   H274    1.084   .     S
C275   C277    1.399   .     A
C276   C278    1.399   .     A
C277   H279    1.084   .     S
C277   C281    1.380   .     A
C278   H280    1.084   .     S
C278   C282    1.381   .     A
C281   H283    1.083   .     S
C281   C285    1.399   .     A
C282   H284    1.083   .     S
C282   C286    1.399   .     A
C286   C99     1.444   1_565 S
C287   H303    1.083   .     S
C287   C289    1.406   .     A
C287   C301    1.408   .     A
C288   C302    1.408   .     A
C288   C290    1.406   .     A
C288   H304    1.083   .     S
C289   H291    1.082   .     S
C289   N293    1.362   .     A
C290   H292    1.082   .     S
C290   N294    1.362   .     A
N293   C295    1.363   .     A
N294   C296    1.363   .     A
C295   H297    1.082   .     S
C295   C299    1.415   .     A
C296   C300    1.415   .     A
C296   H298    1.082   .     S
C299   N305    1.440   .     S
C299   C301    1.420   .     A
C300   C302    1.420   .     A
C300   N308    1.440   .     S
C301   C674    1.508   1_554 S
C302   C673    1.508   .     S
N305   O306    1.301   .     A
N305   O307    1.302   .     A
N308   O310    1.302   .     A
N308   O309    1.301   .     A
O311   C315    1.284   .     A
O311   Zn323   2.002   .     S
O312   C316    1.284   .     A
O312   Zn324   2.002   .     S
O313   Zn324   2.001   .     S
O313   C315    1.284   .     A
O314   C316    1.284   .     A
O314   Zn323   2.001   .     S
C315   C337    1.438   .     S
C316   C338    1.437   .     S
O317   C321    1.274   .     A
O317   Zn323   1.969   .     S
O318   C322    1.274   .     A
O318   Zn324   1.969   .     S
O319   Zn324   1.981   .     S
O319   C321    1.276   .     A
O320   C322    1.276   .     A
O320   Zn323   1.981   .     S
C321   C325    1.402   .     S
C322   C326    1.402   .     S
Zn323  N356    2.001   .     S
Zn324  N355    2.001   .     S
C326   C201    1.330   1_655 S
C326   H204    1.088   1_655 S
H327   C201    1.088   1_655 S
C329   H331    1.083   .     S
C329   C333    1.380   .     A
C329   C347    1.399   .     A
C330   C348    1.399   .     A
C330   H332    1.083   .     S
C330   C334    1.381   .     A
C333   C337    1.399   .     A
C333   H335    1.084   .     S
C334   C338    1.399   .     A
C334   H336    1.084   .     S
C337   C339    1.399   .     A
C338   C340    1.399   .     A
C339   H341    1.084   .     S
C339   C343    1.380   .     A
C340   H342    1.084   .     S
C340   C344    1.381   .     A
C343   H345    1.083   .     S
C343   C347    1.399   .     A
C344   H346    1.083   .     S
C344   C348    1.399   .     A
C348   C161    1.444   1_565 S
C349   H365    1.083   .     S
C349   C351    1.406   .     A
C349   C363    1.408   .     A
C350   C364    1.408   .     A
C350   C352    1.406   .     A
C350   H366    1.083   .     S
C351   H353    1.082   .     S
C351   N355    1.362   .     A
C352   H354    1.082   .     S
C352   N356    1.362   .     A
N355   C357    1.363   .     A
N356   C358    1.363   .     A
C357   H359    1.082   .     S
C357   C361    1.415   .     A
C358   C362    1.415   .     A
C358   H360    1.082   .     S
C361   N367    1.440   .     S
C361   C363    1.420   .     A
C362   C364    1.420   .     A
C362   N370    1.440   .     S
C363   C736    1.508   1_554 S
C364   C735    1.508   .     S
N367   O368    1.301   .     A
N367   O369    1.302   .     A
N370   O372    1.302   .     A
N370   O371    1.301   .     A
O373   C377    1.284   .     A
O373   Zn385   2.002   .     S
O374   C378    1.284   .     A
O374   Zn386   2.002   .     S
O375   Zn386   2.001   .     S
O375   C377    1.284   .     A
O376   C378    1.284   .     A
O376   Zn385   2.001   .     S
C377   C399    1.438   .     S
C378   C400    1.437   .     S
O379   C383    1.274   .     A
O379   Zn385   1.969   .     S
O380   C384    1.274   .     A
O380   Zn386   1.969   .     S
O381   Zn386   1.981   .     S
O381   C383    1.276   .     A
O382   C384    1.276   .     A
O382   Zn385   1.981   .     S
C383   C387    1.402   .     S
C384   C388    1.402   .     S
Zn385  N418    2.001   .     S
Zn386  N417    2.001   .     S
C387   C512    1.330   1_455 S
C387   H513    1.088   1_455 S
C388   C449    1.330   .     S
C388   H452    1.088   .     S
H389   C449    1.088   .     S
H390   C512    1.088   1_455 S
C391   H393    1.083   .     S
C391   C395    1.380   .     A
C391   C409    1.399   .     A
C392   C410    1.399   .     A
C392   H394    1.083   .     S
C392   C396    1.381   .     A
C395   C399    1.399   .     A
C395   H397    1.084   .     S
C396   C400    1.399   .     A
C396   H398    1.084   .     S
C399   C401    1.399   .     A
C400   C402    1.399   .     A
C401   H403    1.084   .     S
C401   C405    1.380   .     A
C402   H404    1.084   .     S
C402   C406    1.381   .     A
C405   H407    1.083   .     S
C405   C409    1.399   .     A
C406   H408    1.083   .     S
C406   C410    1.399   .     A
C409   C596    1.444   1_545 S
C410   C595    1.444   .     S
C411   H427    1.083   .     S
C411   C413    1.406   .     A
C411   C425    1.408   .     A
C412   C426    1.408   .     A
C412   C414    1.406   .     A
C412   H428    1.083   .     S
C413   H415    1.082   .     S
C413   N417    1.362   .     A
C414   H416    1.082   .     S
C414   N418    1.362   .     A
N417   C419    1.363   .     A
N418   C420    1.363   .     A
C419   H421    1.082   .     S
C419   C423    1.415   .     A
C420   C424    1.415   .     A
C420   H422    1.082   .     S
C423   N429    1.440   .     S
C423   C425    1.420   .     A
C424   C426    1.420   .     A
C424   N432    1.440   .     S
C426   C53     1.508   1_556 S
N429   O430    1.301   .     A
N429   O431    1.302   .     A
N432   O434    1.302   .     A
N432   O433    1.301   .     A
O435   C439    1.284   .     A
O435   Zn447   2.002   .     S
O436   C440    1.284   .     A
O436   Zn448   2.002   .     S
O437   Zn448   2.001   .     S
O437   C439    1.284   .     A
O438   C440    1.284   .     A
O438   Zn447   2.001   .     S
C439   C461    1.438   .     S
C440   C462    1.437   .     S
O441   C445    1.274   .     A
O441   Zn447   1.969   .     S
O442   C446    1.274   .     A
O442   Zn448   1.969   .     S
O443   Zn448   1.981   .     S
O443   C445    1.276   .     A
O444   C446    1.276   .     A
O444   Zn447   1.981   .     S
C445   C449    1.402   .     S
C446   C450    1.402   .     S
Zn447  N480    2.001   .     S
Zn448  N479    2.001   .     S
C450   C511    1.330   .     S
C450   H514    1.088   .     S
H451   C511    1.088   .     S
C453   H455    1.083   .     S
C453   C457    1.380   .     A
C453   C471    1.399   .     A
C454   C472    1.399   .     A
C454   H456    1.083   .     S
C454   C458    1.381   .     A
C457   C461    1.399   .     A
C457   H459    1.084   .     S
C458   C462    1.399   .     A
C458   H460    1.084   .     S
C461   C463    1.399   .     A
C462   C464    1.399   .     A
C463   H465    1.084   .     S
C463   C467    1.380   .     A
C464   H466    1.084   .     S
C464   C468    1.381   .     A
C467   H469    1.083   .     S
C467   C471    1.399   .     A
C468   H470    1.083   .     S
C468   C472    1.399   .     A
C471   C658    1.444   1_545 S
C472   C657    1.444   .     S
C473   H489    1.083   .     S
C473   C475    1.406   .     A
C473   C487    1.408   .     A
C474   C488    1.408   .     A
C474   C476    1.406   .     A
C474   H490    1.083   .     S
C475   H477    1.082   .     S
C475   N479    1.362   .     A
C476   H478    1.082   .     S
C476   N480    1.362   .     A
N479   C481    1.363   .     A
N480   C482    1.363   .     A
C481   H483    1.082   .     S
C481   C485    1.415   .     A
C482   C486    1.415   .     A
C482   H484    1.082   .     S
C485   N491    1.440   .     S
C485   C487    1.420   .     A
C486   C488    1.420   .     A
C486   N494    1.440   .     S
C488   C115    1.508   1_556 S
N491   O492    1.301   .     A
N491   O493    1.302   .     A
N494   O496    1.302   .     A
N494   O495    1.301   .     A
O497   C501    1.284   .     A
O497   Zn509   2.002   .     S
O498   C502    1.284   .     A
O498   Zn510   2.002   .     S
O499   Zn510   2.001   .     S
O499   C501    1.284   .     A
O500   C502    1.284   .     A
O500   Zn509   2.001   .     S
C501   C523    1.438   .     S
C502   C524    1.437   .     S
O503   C507    1.274   .     A
O503   Zn509   1.969   .     S
O504   C508    1.274   .     A
O504   Zn510   1.969   .     S
O505   Zn510   1.981   .     S
O505   C507    1.276   .     A
O506   C508    1.276   .     A
O506   Zn509   1.981   .     S
C507   C511    1.402   .     S
C508   C512    1.402   .     S
Zn509  N542    2.001   .     S
Zn510  N541    2.001   .     S
C512   C387    1.330   1_655 S
C512   H390    1.088   1_655 S
H513   C387    1.088   1_655 S
C515   H517    1.083   .     S
C515   C519    1.380   .     A
C515   C533    1.399   .     A
C516   C534    1.399   .     A
C516   H518    1.083   .     S
C516   C520    1.381   .     A
C519   C523    1.399   .     A
C519   H521    1.084   .     S
C520   C524    1.399   .     A
C520   H522    1.084   .     S
C523   C525    1.399   .     A
C524   C526    1.399   .     A
C525   H527    1.084   .     S
C525   C529    1.380   .     A
C526   H528    1.084   .     S
C526   C530    1.381   .     A
C529   H531    1.083   .     S
C529   C533    1.399   .     A
C530   H532    1.083   .     S
C530   C534    1.399   .     A
C533   C720    1.444   1_545 S
C534   C719    1.444   .     S
C535   H551    1.083   .     S
C535   C537    1.406   .     A
C535   C549    1.408   .     A
C536   C550    1.408   .     A
C536   C538    1.406   .     A
C536   H552    1.083   .     S
C537   H539    1.082   .     S
C537   N541    1.362   .     A
C538   H540    1.082   .     S
C538   N542    1.362   .     A
N541   C543    1.363   .     A
N542   C544    1.363   .     A
C543   H545    1.082   .     S
C543   C547    1.415   .     A
C544   C548    1.415   .     A
C544   H546    1.082   .     S
C547   N553    1.440   .     S
C547   C549    1.420   .     A
C548   C550    1.420   .     A
C548   N556    1.440   .     S
C550   C177    1.508   1_556 S
N553   O554    1.301   .     A
N553   O555    1.302   .     A
N556   O558    1.302   .     A
N556   O557    1.301   .     A
O559   C563    1.284   .     A
O559   Zn571   2.002   .     S
O560   C564    1.284   .     A
O560   Zn572   2.002   .     S
O561   Zn572   2.001   .     S
O561   C563    1.284   .     A
O562   C564    1.284   .     A
O562   Zn571   2.001   .     S
C563   C585    1.438   .     S
C564   C586    1.437   .     S
O565   C569    1.274   .     A
O565   Zn571   1.969   .     S
O566   C570    1.274   .     A
O566   Zn572   1.969   .     S
O567   Zn572   1.981   .     S
O567   C569    1.276   .     A
O568   C570    1.276   .     A
O568   Zn571   1.981   .     S
C569   C573    1.402   .     S
C570   C574    1.402   .     S
Zn571  N604    2.001   .     S
Zn572  N603    2.001   .     S
C573   C698    1.330   1_455 S
C573   H699    1.088   1_455 S
C574   C635    1.330   .     S
C574   H638    1.088   .     S
H575   C635    1.088   .     S
H576   C698    1.088   1_455 S
C577   H579    1.083   .     S
C577   C581    1.380   .     A
C577   C595    1.399   .     A
C578   C596    1.399   .     A
C578   H580    1.083   .     S
C578   C582    1.381   .     A
C581   C585    1.399   .     A
C581   H583    1.084   .     S
C582   C586    1.399   .     A
C582   H584    1.084   .     S
C585   C587    1.399   .     A
C586   C588    1.399   .     A
C587   H589    1.084   .     S
C587   C591    1.380   .     A
C588   H590    1.084   .     S
C588   C592    1.381   .     A
C591   H593    1.083   .     S
C591   C595    1.399   .     A
C592   H594    1.083   .     S
C592   C596    1.399   .     A
C596   C409    1.444   1_565 S
C597   H613    1.083   .     S
C597   C599    1.406   .     A
C597   C611    1.408   .     A
C598   C612    1.408   .     A
C598   C600    1.406   .     A
C598   H614    1.083   .     S
C599   H601    1.082   .     S
C599   N603    1.362   .     A
C600   H602    1.082   .     S
C600   N604    1.362   .     A
N603   C605    1.363   .     A
N604   C606    1.363   .     A
C605   H607    1.082   .     S
C605   C609    1.415   .     A
C606   C610    1.415   .     A
C606   H608    1.082   .     S
C609   N615    1.440   .     S
C609   C611    1.420   .     A
C610   C612    1.420   .     A
C610   N618    1.440   .     S
C612   C239    1.508   1_556 S
N615   O616    1.301   .     A
N615   O617    1.302   .     A
N618   O620    1.302   .     A
N618   O619    1.301   .     A
O621   C625    1.284   .     A
O621   Zn633   2.002   .     S
O622   C626    1.284   .     A
O622   Zn634   2.002   .     S
O623   Zn634   2.001   .     S
O623   C625    1.284   .     A
O624   C626    1.284   .     A
O624   Zn633   2.001   .     S
C625   C647    1.438   .     S
C626   C648    1.437   .     S
O627   C631    1.274   .     A
O627   Zn633   1.969   .     S
O628   C632    1.274   .     A
O628   Zn634   1.969   .     S
O629   Zn634   1.981   .     S
O629   C631    1.276   .     A
O630   C632    1.276   .     A
O630   Zn633   1.981   .     S
C631   C635    1.402   .     S
C632   C636    1.402   .     S
Zn633  N666    2.001   .     S
Zn634  N665    2.001   .     S
C636   C697    1.330   .     S
C636   H700    1.088   .     S
H637   C697    1.088   .     S
C639   H641    1.083   .     S
C639   C643    1.380   .     A
C639   C657    1.399   .     A
C640   C658    1.399   .     A
C640   H642    1.083   .     S
C640   C644    1.381   .     A
C643   C647    1.399   .     A
C643   H645    1.084   .     S
C644   C648    1.399   .     A
C644   H646    1.084   .     S
C647   C649    1.399   .     A
C648   C650    1.399   .     A
C649   H651    1.084   .     S
C649   C653    1.380   .     A
C650   H652    1.084   .     S
C650   C654    1.381   .     A
C653   H655    1.083   .     S
C653   C657    1.399   .     A
C654   H656    1.083   .     S
C654   C658    1.399   .     A
C658   C471    1.444   1_565 S
C659   H675    1.083   .     S
C659   C661    1.406   .     A
C659   C673    1.408   .     A
C660   C674    1.408   .     A
C660   C662    1.406   .     A
C660   H676    1.083   .     S
C661   H663    1.082   .     S
C661   N665    1.362   .     A
C662   H664    1.082   .     S
C662   N666    1.362   .     A
N665   C667    1.363   .     A
N666   C668    1.363   .     A
C667   H669    1.082   .     S
C667   C671    1.415   .     A
C668   C672    1.415   .     A
C668   H670    1.082   .     S
C671   N677    1.440   .     S
C671   C673    1.420   .     A
C672   C674    1.420   .     A
C672   N680    1.440   .     S
C674   C301    1.508   1_556 S
N677   O678    1.301   .     A
N677   O679    1.302   .     A
N680   O682    1.302   .     A
N680   O681    1.301   .     A
O683   C687    1.284   .     A
O683   Zn695   2.002   .     S
O684   C688    1.284   .     A
O684   Zn696   2.002   .     S
O685   Zn696   2.001   .     S
O685   C687    1.284   .     A
O686   C688    1.284   .     A
O686   Zn695   2.001   .     S
C687   C709    1.438   .     S
C688   C710    1.437   .     S
O689   C693    1.274   .     A
O689   Zn695   1.969   .     S
O690   C694    1.274   .     A
O690   Zn696   1.969   .     S
O691   Zn696   1.981   .     S
O691   C693    1.276   .     A
O692   C694    1.276   .     A
O692   Zn695   1.981   .     S
C693   C697    1.402   .     S
C694   C698    1.402   .     S
Zn695  N728    2.001   .     S
Zn696  N727    2.001   .     S
C698   C573    1.330   1_655 S
C698   H576    1.088   1_655 S
H699   C573    1.088   1_655 S
C701   H703    1.083   .     S
C701   C705    1.380   .     A
C701   C719    1.399   .     A
C702   C720    1.399   .     A
C702   H704    1.083   .     S
C702   C706    1.381   .     A
C705   C709    1.399   .     A
C705   H707    1.084   .     S
C706   C710    1.399   .     A
C706   H708    1.084   .     S
C709   C711    1.399   .     A
C710   C712    1.399   .     A
C711   H713    1.084   .     S
C711   C715    1.380   .     A
C712   H714    1.084   .     S
C712   C716    1.381   .     A
C715   H717    1.083   .     S
C715   C719    1.399   .     A
C716   H718    1.083   .     S
C716   C720    1.399   .     A
C720   C533    1.444   1_565 S
C721   H737    1.083   .     S
C721   C723    1.406   .     A
C721   C735    1.408   .     A
C722   C736    1.408   .     A
C722   C724    1.406   .     A
C722   H738    1.083   .     S
C723   H725    1.082   .     S
C723   N727    1.362   .     A
C724   H726    1.082   .     S
C724   N728    1.362   .     A
N727   C729    1.363   .     A
N728   C730    1.363   .     A
C729   H731    1.082   .     S
C729   C733    1.415   .     A
C730   C734    1.415   .     A
C730   H732    1.082   .     S
C733   N739    1.440   .     S
C733   C735    1.420   .     A
C734   C736    1.420   .     A
C734   N742    1.440   .     S
C736   C363    1.508   1_556 S
N739   O740    1.301   .     A
N739   O741    1.302   .     A
N742   O744    1.302   .     A
N742   O743    1.301   .     A
