data_str_m3_o1_o18_pcu_sym.144
_audit_creation_date              2020-01-03
_audit_creation_method            'Materials Studio'
_symmetry_space_group_name_H-M    'P1'
_symmetry_Int_Tables_number       1
_symmetry_cell_setting            triclinic
loop_
_symmetry_equiv_pos_as_xyz
  x,y,z
_cell_length_a                    29.7050
_cell_length_b                    31.8675
_cell_length_c                    31.1618
_cell_angle_alpha                 90.8997
_cell_angle_beta                  68.2863
_cell_angle_gamma                 90.6079
loop_
_atom_site_label
_atom_site_type_symbol
_atom_site_fract_x
_atom_site_fract_y
_atom_site_fract_z
_atom_site_U_iso_or_equiv
_atom_site_adp_type
_atom_site_occupancy
C1     C     0.16712   0.24653   0.24935   0.00000  Uiso   1.00
C2     C     0.16619   0.08681   0.25075   0.00000  Uiso   1.00
C3     C     0.10742   0.15905   0.05106   0.00000  Uiso   1.00
C4     C     0.22494   0.16584   0.44893   0.00000  Uiso   1.00
C5     C     0.07678   0.14188   0.02973   0.00000  Uiso   1.00
C6     C     0.25541   0.18446   0.46943   0.00000  Uiso   1.00
C7     C     0.17681   0.31183   0.28427   0.00000  Uiso   1.00
C8     C     0.15671   0.02154   0.21583   0.00000  Uiso   1.00
C9     C     0.17585   0.02162   0.28575   0.00000  Uiso   1.00
C10    C     0.15784   0.31177   0.21426   0.00000  Uiso   1.00
C11    C     0.16573   0.04270   0.25130   0.00000  Uiso   1.00
C12    C     0.16767   0.29067   0.24884   0.00000  Uiso   1.00
C13    C     0.31848   0.13747   0.22504   0.00000  Uiso   1.00
C14    C     0.01486   0.19588   0.27495   0.00000  Uiso   1.00
C15    C     0.03289   0.13735   0.22496   0.00000  Uiso   1.00
C16    C     0.30034   0.19580   0.27532   0.00000  Uiso   1.00
C17    C     0.13647   0.16586   0.33767   0.00000  Uiso   1.00
C18    C     0.19684   0.16708   0.16230   0.00000  Uiso   1.00
C19    C     0.11833   0.16045   0.38745   0.00000  Uiso   1.00
C20    C     0.21483   0.17066   0.11231   0.00000  Uiso   1.00
C21    C     0.05976   0.13395   0.45859   0.00000  Uiso   1.00
C22    C     0.27257   0.19574   0.04006   0.00000  Uiso   1.00
C23    C     0.07359   0.14149   0.41146   0.00000  Uiso   1.00
C24    C     0.25910   0.18992   0.08744   0.00000  Uiso   1.00
C25    C     0.14963   0.16998   0.41005   0.00000  Uiso   1.00
C26    C     0.18378   0.15867   0.09015   0.00000  Uiso   1.00
C27    C     0.13918   0.15773   0.45541   0.00000  Uiso   1.00
C28    C     0.19348   0.16949   0.04448   0.00000  Uiso   1.00
C29    C     0.09184   0.14330   0.48146   0.00000  Uiso   1.00
C30    C     0.24051   0.18445   0.01775   0.00000  Uiso   1.00
C31    C     0.17429   0.16211   0.47579   0.00000  Uiso   1.00
C32    C     0.15812   0.16370   0.02440   0.00000  Uiso   1.00
H33    H     0.15144   0.14101   0.10917   0.00000  Uiso   1.00
H34    H     0.18286   0.18684   0.39166   0.00000  Uiso   1.00
H35    H     0.28335   0.19997   0.10443   0.00000  Uiso   1.00
H36    H     0.04928   0.13293   0.39401   0.00000  Uiso   1.00
H37    H     0.02377   0.12155   0.47671   0.00000  Uiso   1.00
H38    H     0.30828   0.20842   0.02130   0.00000  Uiso   1.00
H39    H     0.18361   0.29479   0.31108   0.00000  Uiso   1.00
H40    H     0.15005   0.03856   0.18894   0.00000  Uiso   1.00
H41    H     0.30776   0.11428   0.20487   0.00000  Uiso   1.00
H42    H     0.02553   0.21898   0.29524   0.00000  Uiso   1.00
N43    N     0.04759   0.16668   0.25001   0.00000  Uiso   1.00
N44    N     0.28574   0.16666   0.24999   0.00000  Uiso   1.00
O45    O     0.12846   0.22775   0.25001   0.00000  Uiso   1.00
O46    O     0.20488   0.10558   0.25000   0.00000  Uiso   1.00
O47    O     0.20490   0.22774   0.25000   0.00000  Uiso   1.00
O48    O     0.12843   0.10559   0.25000   0.00000  Uiso   1.00
O49    O     0.10661   0.16667   0.31613   0.00000  Uiso   1.00
O50    O     0.22672   0.16666   0.18388   0.00000  Uiso   1.00
O51    O     0.18305   0.16666   0.31612   0.00000  Uiso   1.00
O52    O     0.15028   0.16667   0.18388   0.00000  Uiso   1.00
Zn53   Zn    0.11562   0.16667   0.25000   0.00000  Uiso   1.00
Zn54   Zn    0.21771   0.16666   0.25000   0.00000  Uiso   1.00
Cl55   Cl    0.01832   0.12248   0.06317   0.00000  Uiso   1.00
Cl56   Cl    0.31260   0.20547   0.43507   0.00000  Uiso   1.00
C57    C     0.08496   0.18048   0.09695   0.00000  Uiso   1.00
O58    O     0.04883   0.16608   0.12674   0.00000  Uiso   1.00
O59    O     0.10475   0.21822   0.10552   0.00000  Uiso   1.00
H60    H     0.08611   0.22997   0.13756   0.00000  Uiso   1.00
C61    C     0.24701   0.14186   0.40441   0.00000  Uiso   1.00
O62    O     0.22692   0.11005   0.39784   0.00000  Uiso   1.00
O63    O     0.29120   0.15400   0.37095   0.00000  Uiso   1.00
H64    H     0.30273   0.13365   0.34377   0.00000  Uiso   1.00
Cl65   Cl    0.18538   0.04801   0.33187   0.00000  Uiso   1.00
Cl66   Cl    0.14929   0.28547   0.16766   0.00000  Uiso   1.00
Cl67   Cl    0.07284   0.09915   0.19098   0.00000  Uiso   1.00
Cl68   Cl    0.25992   0.23308   0.31050   0.00000  Uiso   1.00
C69    C     0.50046   0.24653   0.24935   0.00000  Uiso   1.00
C70    C     0.49952   0.08681   0.25075   0.00000  Uiso   1.00
C71    C     0.44075   0.15905   0.05106   0.00000  Uiso   1.00
C72    C     0.55827   0.16584   0.44893   0.00000  Uiso   1.00
C73    C     0.41011   0.14188   0.02973   0.00000  Uiso   1.00
C74    C     0.58874   0.18446   0.46943   0.00000  Uiso   1.00
C75    C     0.51014   0.31183   0.28427   0.00000  Uiso   1.00
C76    C     0.49005   0.02154   0.21583   0.00000  Uiso   1.00
C77    C     0.50919   0.02162   0.28575   0.00000  Uiso   1.00
C78    C     0.49117   0.31177   0.21426   0.00000  Uiso   1.00
C79    C     0.49906   0.04270   0.25130   0.00000  Uiso   1.00
C80    C     0.50100   0.29067   0.24884   0.00000  Uiso   1.00
C81    C     0.65181   0.13747   0.22504   0.00000  Uiso   1.00
C82    C     0.34819   0.19588   0.27495   0.00000  Uiso   1.00
C83    C     0.36622   0.13735   0.22496   0.00000  Uiso   1.00
C84    C     0.63367   0.19580   0.27532   0.00000  Uiso   1.00
C85    C     0.46980   0.16586   0.33767   0.00000  Uiso   1.00
C86    C     0.53017   0.16708   0.16230   0.00000  Uiso   1.00
C87    C     0.45166   0.16045   0.38745   0.00000  Uiso   1.00
C88    C     0.54816   0.17066   0.11231   0.00000  Uiso   1.00
C89    C     0.39310   0.13395   0.45859   0.00000  Uiso   1.00
C90    C     0.60590   0.19574   0.04006   0.00000  Uiso   1.00
C91    C     0.40693   0.14149   0.41146   0.00000  Uiso   1.00
C92    C     0.59243   0.18992   0.08744   0.00000  Uiso   1.00
C93    C     0.48296   0.16998   0.41005   0.00000  Uiso   1.00
C94    C     0.51712   0.15867   0.09015   0.00000  Uiso   1.00
C95    C     0.47251   0.15773   0.45541   0.00000  Uiso   1.00
C96    C     0.52681   0.16949   0.04448   0.00000  Uiso   1.00
C97    C     0.42518   0.14330   0.48146   0.00000  Uiso   1.00
C98    C     0.57384   0.18445   0.01775   0.00000  Uiso   1.00
C99    C     0.50763   0.16211   0.47579   0.00000  Uiso   1.00
C100   C     0.49145   0.16370   0.02440   0.00000  Uiso   1.00
H101   H     0.48478   0.14101   0.10917   0.00000  Uiso   1.00
H102   H     0.51619   0.18684   0.39166   0.00000  Uiso   1.00
H103   H     0.61668   0.19997   0.10443   0.00000  Uiso   1.00
H104   H     0.38261   0.13293   0.39401   0.00000  Uiso   1.00
H105   H     0.35710   0.12155   0.47671   0.00000  Uiso   1.00
H106   H     0.64161   0.20842   0.02130   0.00000  Uiso   1.00
H107   H     0.51694   0.29479   0.31108   0.00000  Uiso   1.00
H108   H     0.48338   0.03856   0.18894   0.00000  Uiso   1.00
H109   H     0.64110   0.11428   0.20487   0.00000  Uiso   1.00
H110   H     0.35886   0.21898   0.29524   0.00000  Uiso   1.00
N111   N     0.38093   0.16668   0.25001   0.00000  Uiso   1.00
N112   N     0.61907   0.16666   0.24999   0.00000  Uiso   1.00
O113   O     0.46179   0.22775   0.25001   0.00000  Uiso   1.00
O114   O     0.53821   0.10558   0.25000   0.00000  Uiso   1.00
O115   O     0.53823   0.22774   0.25000   0.00000  Uiso   1.00
O116   O     0.46177   0.10559   0.25000   0.00000  Uiso   1.00
O117   O     0.43994   0.16667   0.31613   0.00000  Uiso   1.00
O118   O     0.56006   0.16666   0.18388   0.00000  Uiso   1.00
O119   O     0.51639   0.16666   0.31612   0.00000  Uiso   1.00
O120   O     0.48361   0.16667   0.18388   0.00000  Uiso   1.00
Zn121  Zn    0.44896   0.16667   0.25000   0.00000  Uiso   1.00
Zn122  Zn    0.55104   0.16666   0.25000   0.00000  Uiso   1.00
Cl123  Cl    0.35165   0.12248   0.06317   0.00000  Uiso   1.00
Cl124  Cl    0.64594   0.20547   0.43507   0.00000  Uiso   1.00
C125   C     0.41829   0.18048   0.09695   0.00000  Uiso   1.00
O126   O     0.38216   0.16608   0.12674   0.00000  Uiso   1.00
O127   O     0.43809   0.21822   0.10552   0.00000  Uiso   1.00
H128   H     0.41945   0.22997   0.13756   0.00000  Uiso   1.00
C129   C     0.58035   0.14186   0.40441   0.00000  Uiso   1.00
O130   O     0.56025   0.11005   0.39784   0.00000  Uiso   1.00
O131   O     0.62453   0.15400   0.37095   0.00000  Uiso   1.00
H132   H     0.63606   0.13365   0.34377   0.00000  Uiso   1.00
Cl133  Cl    0.51872   0.04801   0.33187   0.00000  Uiso   1.00
Cl134  Cl    0.48263   0.28547   0.16766   0.00000  Uiso   1.00
Cl135  Cl    0.40617   0.09915   0.19098   0.00000  Uiso   1.00
Cl136  Cl    0.59325   0.23308   0.31050   0.00000  Uiso   1.00
C137   C     0.83379   0.24653   0.24935   0.00000  Uiso   1.00
C138   C     0.83285   0.08681   0.25075   0.00000  Uiso   1.00
C139   C     0.77408   0.15905   0.05106   0.00000  Uiso   1.00
C140   C     0.89161   0.16584   0.44893   0.00000  Uiso   1.00
C141   C     0.74345   0.14188   0.02973   0.00000  Uiso   1.00
C142   C     0.92207   0.18446   0.46943   0.00000  Uiso   1.00
C143   C     0.84348   0.31183   0.28427   0.00000  Uiso   1.00
C144   C     0.82338   0.02154   0.21583   0.00000  Uiso   1.00
C145   C     0.84252   0.02162   0.28575   0.00000  Uiso   1.00
C146   C     0.82451   0.31177   0.21426   0.00000  Uiso   1.00
C147   C     0.83239   0.04270   0.25130   0.00000  Uiso   1.00
C148   C     0.83433   0.29067   0.24884   0.00000  Uiso   1.00
C149   C     0.98515   0.13747   0.22504   0.00000  Uiso   1.00
C150   C     0.68153   0.19588   0.27495   0.00000  Uiso   1.00
C151   C     0.69955   0.13735   0.22496   0.00000  Uiso   1.00
C152   C     0.96700   0.19580   0.27532   0.00000  Uiso   1.00
C153   C     0.80314   0.16586   0.33767   0.00000  Uiso   1.00
C154   C     0.86350   0.16708   0.16230   0.00000  Uiso   1.00
C155   C     0.78500   0.16045   0.38745   0.00000  Uiso   1.00
C156   C     0.88150   0.17066   0.11231   0.00000  Uiso   1.00
C157   C     0.72643   0.13395   0.45859   0.00000  Uiso   1.00
C158   C     0.93923   0.19574   0.04006   0.00000  Uiso   1.00
C159   C     0.74026   0.14149   0.41146   0.00000  Uiso   1.00
C160   C     0.92577   0.18992   0.08744   0.00000  Uiso   1.00
C161   C     0.81630   0.16998   0.41005   0.00000  Uiso   1.00
C162   C     0.85045   0.15867   0.09015   0.00000  Uiso   1.00
C163   C     0.80585   0.15773   0.45541   0.00000  Uiso   1.00
C164   C     0.86014   0.16949   0.04448   0.00000  Uiso   1.00
C165   C     0.75851   0.14330   0.48146   0.00000  Uiso   1.00
C166   C     0.90717   0.18445   0.01775   0.00000  Uiso   1.00
C167   C     0.84096   0.16211   0.47579   0.00000  Uiso   1.00
C168   C     0.82479   0.16370   0.02440   0.00000  Uiso   1.00
H169   H     0.81811   0.14101   0.10917   0.00000  Uiso   1.00
H170   H     0.84952   0.18684   0.39166   0.00000  Uiso   1.00
H171   H     0.95001   0.19997   0.10443   0.00000  Uiso   1.00
H172   H     0.71595   0.13293   0.39401   0.00000  Uiso   1.00
H173   H     0.69044   0.12155   0.47671   0.00000  Uiso   1.00
H174   H     0.97494   0.20842   0.02130   0.00000  Uiso   1.00
H175   H     0.85028   0.29479   0.31108   0.00000  Uiso   1.00
H176   H     0.81672   0.03856   0.18894   0.00000  Uiso   1.00
H177   H     0.97443   0.11428   0.20487   0.00000  Uiso   1.00
H178   H     0.69219   0.21898   0.29524   0.00000  Uiso   1.00
N179   N     0.71426   0.16668   0.25001   0.00000  Uiso   1.00
N180   N     0.95241   0.16666   0.24999   0.00000  Uiso   1.00
O181   O     0.79512   0.22775   0.25001   0.00000  Uiso   1.00
O182   O     0.87154   0.10558   0.25000   0.00000  Uiso   1.00
O183   O     0.87157   0.22774   0.25000   0.00000  Uiso   1.00
O184   O     0.79510   0.10559   0.25000   0.00000  Uiso   1.00
O185   O     0.77328   0.16667   0.31613   0.00000  Uiso   1.00
O186   O     0.89339   0.16666   0.18388   0.00000  Uiso   1.00
O187   O     0.84972   0.16666   0.31612   0.00000  Uiso   1.00
O188   O     0.81695   0.16667   0.18388   0.00000  Uiso   1.00
Zn189  Zn    0.78229   0.16667   0.25000   0.00000  Uiso   1.00
Zn190  Zn    0.88438   0.16666   0.25000   0.00000  Uiso   1.00
Cl191  Cl    0.68498   0.12248   0.06317   0.00000  Uiso   1.00
Cl192  Cl    0.97927   0.20547   0.43507   0.00000  Uiso   1.00
C193   C     0.75162   0.18048   0.09695   0.00000  Uiso   1.00
O194   O     0.71550   0.16608   0.12674   0.00000  Uiso   1.00
O195   O     0.77142   0.21822   0.10552   0.00000  Uiso   1.00
H196   H     0.75278   0.22997   0.13756   0.00000  Uiso   1.00
C197   C     0.91368   0.14186   0.40441   0.00000  Uiso   1.00
O198   O     0.89359   0.11005   0.39784   0.00000  Uiso   1.00
O199   O     0.95786   0.15400   0.37095   0.00000  Uiso   1.00
H200   H     0.96940   0.13365   0.34377   0.00000  Uiso   1.00
Cl201  Cl    0.85205   0.04801   0.33187   0.00000  Uiso   1.00
Cl202  Cl    0.81596   0.28547   0.16766   0.00000  Uiso   1.00
Cl203  Cl    0.73951   0.09915   0.19098   0.00000  Uiso   1.00
Cl204  Cl    0.92658   0.23308   0.31050   0.00000  Uiso   1.00
C205   C     0.16712   0.57986   0.24935   0.00000  Uiso   1.00
C206   C     0.16619   0.42015   0.25075   0.00000  Uiso   1.00
C207   C     0.10742   0.49239   0.05106   0.00000  Uiso   1.00
C208   C     0.22494   0.49917   0.44893   0.00000  Uiso   1.00
C209   C     0.07678   0.47521   0.02973   0.00000  Uiso   1.00
C210   C     0.25541   0.51780   0.46943   0.00000  Uiso   1.00
C211   C     0.17681   0.64516   0.28427   0.00000  Uiso   1.00
C212   C     0.15671   0.35487   0.21583   0.00000  Uiso   1.00
C213   C     0.17585   0.35495   0.28575   0.00000  Uiso   1.00
C214   C     0.15784   0.64511   0.21426   0.00000  Uiso   1.00
C215   C     0.16573   0.37603   0.25130   0.00000  Uiso   1.00
C216   C     0.16767   0.62400   0.24884   0.00000  Uiso   1.00
C217   C     0.31848   0.47081   0.22504   0.00000  Uiso   1.00
C218   C     0.01486   0.52921   0.27495   0.00000  Uiso   1.00
C219   C     0.03289   0.47069   0.22496   0.00000  Uiso   1.00
C220   C     0.30034   0.52913   0.27532   0.00000  Uiso   1.00
C221   C     0.13647   0.49919   0.33767   0.00000  Uiso   1.00
C222   C     0.19684   0.50042   0.16230   0.00000  Uiso   1.00
C223   C     0.11833   0.49379   0.38745   0.00000  Uiso   1.00
C224   C     0.21483   0.50399   0.11231   0.00000  Uiso   1.00
C225   C     0.05976   0.46729   0.45859   0.00000  Uiso   1.00
C226   C     0.27257   0.52908   0.04006   0.00000  Uiso   1.00
C227   C     0.07359   0.47482   0.41146   0.00000  Uiso   1.00
C228   C     0.25910   0.52325   0.08744   0.00000  Uiso   1.00
C229   C     0.14963   0.50332   0.41005   0.00000  Uiso   1.00
C230   C     0.18378   0.49200   0.09015   0.00000  Uiso   1.00
C231   C     0.13918   0.49107   0.45541   0.00000  Uiso   1.00
C232   C     0.19348   0.50283   0.04448   0.00000  Uiso   1.00
C233   C     0.09184   0.47663   0.48146   0.00000  Uiso   1.00
C234   C     0.24051   0.51778   0.01775   0.00000  Uiso   1.00
C235   C     0.17429   0.49544   0.47579   0.00000  Uiso   1.00
C236   C     0.15812   0.49704   0.02440   0.00000  Uiso   1.00
H237   H     0.15144   0.47434   0.10917   0.00000  Uiso   1.00
H238   H     0.18286   0.52017   0.39166   0.00000  Uiso   1.00
H239   H     0.28335   0.53330   0.10443   0.00000  Uiso   1.00
H240   H     0.04928   0.46626   0.39401   0.00000  Uiso   1.00
H241   H     0.02377   0.45488   0.47671   0.00000  Uiso   1.00
H242   H     0.30828   0.54175   0.02130   0.00000  Uiso   1.00
H243   H     0.18361   0.62813   0.31108   0.00000  Uiso   1.00
H244   H     0.15005   0.37190   0.18894   0.00000  Uiso   1.00
H245   H     0.30776   0.44762   0.20487   0.00000  Uiso   1.00
H246   H     0.02553   0.55232   0.29524   0.00000  Uiso   1.00
N247   N     0.04759   0.50001   0.25001   0.00000  Uiso   1.00
N248   N     0.28574   0.49999   0.24999   0.00000  Uiso   1.00
O249   O     0.12846   0.56108   0.25001   0.00000  Uiso   1.00
O250   O     0.20488   0.43892   0.25000   0.00000  Uiso   1.00
O251   O     0.20490   0.56107   0.25000   0.00000  Uiso   1.00
O252   O     0.12843   0.43893   0.25000   0.00000  Uiso   1.00
O253   O     0.10661   0.50001   0.31613   0.00000  Uiso   1.00
O254   O     0.22672   0.49999   0.18388   0.00000  Uiso   1.00
O255   O     0.18305   0.50000   0.31612   0.00000  Uiso   1.00
O256   O     0.15028   0.50000   0.18388   0.00000  Uiso   1.00
Zn257  Zn    0.11562   0.50001   0.25000   0.00000  Uiso   1.00
Zn258  Zn    0.21771   0.49999   0.25000   0.00000  Uiso   1.00
Cl259  Cl    0.01832   0.45581   0.06317   0.00000  Uiso   1.00
Cl260  Cl    0.31260   0.53880   0.43507   0.00000  Uiso   1.00
C261   C     0.08496   0.51381   0.09695   0.00000  Uiso   1.00
O262   O     0.04883   0.49942   0.12674   0.00000  Uiso   1.00
O263   O     0.10475   0.55155   0.10552   0.00000  Uiso   1.00
H264   H     0.08611   0.56331   0.13756   0.00000  Uiso   1.00
C265   C     0.24701   0.47520   0.40441   0.00000  Uiso   1.00
O266   O     0.22692   0.44339   0.39784   0.00000  Uiso   1.00
O267   O     0.29120   0.48733   0.37095   0.00000  Uiso   1.00
H268   H     0.30273   0.46698   0.34377   0.00000  Uiso   1.00
Cl269  Cl    0.18538   0.38135   0.33187   0.00000  Uiso   1.00
Cl270  Cl    0.14929   0.61880   0.16766   0.00000  Uiso   1.00
Cl271  Cl    0.07284   0.43249   0.19098   0.00000  Uiso   1.00
Cl272  Cl    0.25992   0.56641   0.31050   0.00000  Uiso   1.00
C273   C     0.50046   0.57986   0.24935   0.00000  Uiso   1.00
C274   C     0.49952   0.42015   0.25075   0.00000  Uiso   1.00
C275   C     0.44075   0.49239   0.05106   0.00000  Uiso   1.00
C276   C     0.55827   0.49917   0.44893   0.00000  Uiso   1.00
C277   C     0.41011   0.47521   0.02973   0.00000  Uiso   1.00
C278   C     0.58874   0.51780   0.46943   0.00000  Uiso   1.00
C279   C     0.51014   0.64516   0.28427   0.00000  Uiso   1.00
C280   C     0.49005   0.35487   0.21583   0.00000  Uiso   1.00
C281   C     0.50919   0.35495   0.28575   0.00000  Uiso   1.00
C282   C     0.49117   0.64511   0.21426   0.00000  Uiso   1.00
C283   C     0.49906   0.37603   0.25130   0.00000  Uiso   1.00
C284   C     0.50100   0.62400   0.24884   0.00000  Uiso   1.00
C285   C     0.65181   0.47081   0.22504   0.00000  Uiso   1.00
C286   C     0.34819   0.52921   0.27495   0.00000  Uiso   1.00
C287   C     0.36622   0.47069   0.22496   0.00000  Uiso   1.00
C288   C     0.63367   0.52913   0.27532   0.00000  Uiso   1.00
C289   C     0.46980   0.49919   0.33767   0.00000  Uiso   1.00
C290   C     0.53017   0.50042   0.16230   0.00000  Uiso   1.00
C291   C     0.45166   0.49379   0.38745   0.00000  Uiso   1.00
C292   C     0.54816   0.50399   0.11231   0.00000  Uiso   1.00
C293   C     0.39310   0.46729   0.45859   0.00000  Uiso   1.00
C294   C     0.60590   0.52908   0.04006   0.00000  Uiso   1.00
C295   C     0.40693   0.47482   0.41146   0.00000  Uiso   1.00
C296   C     0.59243   0.52325   0.08744   0.00000  Uiso   1.00
C297   C     0.48296   0.50332   0.41005   0.00000  Uiso   1.00
C298   C     0.51712   0.49200   0.09015   0.00000  Uiso   1.00
C299   C     0.47251   0.49107   0.45541   0.00000  Uiso   1.00
C300   C     0.52681   0.50283   0.04448   0.00000  Uiso   1.00
C301   C     0.42518   0.47663   0.48146   0.00000  Uiso   1.00
C302   C     0.57384   0.51778   0.01775   0.00000  Uiso   1.00
C303   C     0.50763   0.49544   0.47579   0.00000  Uiso   1.00
C304   C     0.49145   0.49704   0.02440   0.00000  Uiso   1.00
H305   H     0.48478   0.47434   0.10917   0.00000  Uiso   1.00
H306   H     0.51619   0.52017   0.39166   0.00000  Uiso   1.00
H307   H     0.61668   0.53330   0.10443   0.00000  Uiso   1.00
H308   H     0.38261   0.46626   0.39401   0.00000  Uiso   1.00
H309   H     0.35710   0.45488   0.47671   0.00000  Uiso   1.00
H310   H     0.64161   0.54175   0.02130   0.00000  Uiso   1.00
H311   H     0.51694   0.62813   0.31108   0.00000  Uiso   1.00
H312   H     0.48338   0.37190   0.18894   0.00000  Uiso   1.00
H313   H     0.64110   0.44762   0.20487   0.00000  Uiso   1.00
H314   H     0.35886   0.55232   0.29524   0.00000  Uiso   1.00
N315   N     0.38093   0.50001   0.25001   0.00000  Uiso   1.00
N316   N     0.61907   0.49999   0.24999   0.00000  Uiso   1.00
O317   O     0.46179   0.56108   0.25001   0.00000  Uiso   1.00
O318   O     0.53821   0.43892   0.25000   0.00000  Uiso   1.00
O319   O     0.53823   0.56107   0.25000   0.00000  Uiso   1.00
O320   O     0.46177   0.43893   0.25000   0.00000  Uiso   1.00
O321   O     0.43994   0.50001   0.31613   0.00000  Uiso   1.00
O322   O     0.56006   0.49999   0.18388   0.00000  Uiso   1.00
O323   O     0.51639   0.50000   0.31612   0.00000  Uiso   1.00
O324   O     0.48361   0.50000   0.18388   0.00000  Uiso   1.00
Zn325  Zn    0.44896   0.50001   0.25000   0.00000  Uiso   1.00
Zn326  Zn    0.55104   0.49999   0.25000   0.00000  Uiso   1.00
Cl327  Cl    0.35165   0.45581   0.06317   0.00000  Uiso   1.00
Cl328  Cl    0.64594   0.53880   0.43507   0.00000  Uiso   1.00
C329   C     0.41829   0.51381   0.09695   0.00000  Uiso   1.00
O330   O     0.38216   0.49942   0.12674   0.00000  Uiso   1.00
O331   O     0.43809   0.55155   0.10552   0.00000  Uiso   1.00
H332   H     0.41945   0.56331   0.13756   0.00000  Uiso   1.00
C333   C     0.58035   0.47520   0.40441   0.00000  Uiso   1.00
O334   O     0.56025   0.44339   0.39784   0.00000  Uiso   1.00
O335   O     0.62453   0.48733   0.37095   0.00000  Uiso   1.00
H336   H     0.63606   0.46698   0.34377   0.00000  Uiso   1.00
Cl337  Cl    0.51872   0.38135   0.33187   0.00000  Uiso   1.00
Cl338  Cl    0.48263   0.61880   0.16766   0.00000  Uiso   1.00
Cl339  Cl    0.40617   0.43249   0.19098   0.00000  Uiso   1.00
Cl340  Cl    0.59325   0.56641   0.31050   0.00000  Uiso   1.00
C341   C     0.83379   0.57986   0.24935   0.00000  Uiso   1.00
C342   C     0.83285   0.42015   0.25075   0.00000  Uiso   1.00
C343   C     0.77408   0.49239   0.05106   0.00000  Uiso   1.00
C344   C     0.89161   0.49917   0.44893   0.00000  Uiso   1.00
C345   C     0.74345   0.47521   0.02973   0.00000  Uiso   1.00
C346   C     0.92207   0.51780   0.46943   0.00000  Uiso   1.00
C347   C     0.84348   0.64516   0.28427   0.00000  Uiso   1.00
C348   C     0.82338   0.35487   0.21583   0.00000  Uiso   1.00
C349   C     0.84252   0.35495   0.28575   0.00000  Uiso   1.00
C350   C     0.82451   0.64511   0.21426   0.00000  Uiso   1.00
C351   C     0.83239   0.37603   0.25130   0.00000  Uiso   1.00
C352   C     0.83433   0.62400   0.24884   0.00000  Uiso   1.00
C353   C     0.98515   0.47081   0.22504   0.00000  Uiso   1.00
C354   C     0.68153   0.52921   0.27495   0.00000  Uiso   1.00
C355   C     0.69955   0.47069   0.22496   0.00000  Uiso   1.00
C356   C     0.96700   0.52913   0.27532   0.00000  Uiso   1.00
C357   C     0.80314   0.49919   0.33767   0.00000  Uiso   1.00
C358   C     0.86350   0.50042   0.16230   0.00000  Uiso   1.00
C359   C     0.78500   0.49379   0.38745   0.00000  Uiso   1.00
C360   C     0.88150   0.50399   0.11231   0.00000  Uiso   1.00
C361   C     0.72643   0.46729   0.45859   0.00000  Uiso   1.00
C362   C     0.93923   0.52908   0.04006   0.00000  Uiso   1.00
C363   C     0.74026   0.47482   0.41146   0.00000  Uiso   1.00
C364   C     0.92577   0.52325   0.08744   0.00000  Uiso   1.00
C365   C     0.81630   0.50332   0.41005   0.00000  Uiso   1.00
C366   C     0.85045   0.49200   0.09015   0.00000  Uiso   1.00
C367   C     0.80585   0.49107   0.45541   0.00000  Uiso   1.00
C368   C     0.86014   0.50283   0.04448   0.00000  Uiso   1.00
C369   C     0.75851   0.47663   0.48146   0.00000  Uiso   1.00
C370   C     0.90717   0.51778   0.01775   0.00000  Uiso   1.00
C371   C     0.84096   0.49544   0.47579   0.00000  Uiso   1.00
C372   C     0.82479   0.49704   0.02440   0.00000  Uiso   1.00
H373   H     0.81811   0.47434   0.10917   0.00000  Uiso   1.00
H374   H     0.84952   0.52017   0.39166   0.00000  Uiso   1.00
H375   H     0.95001   0.53330   0.10443   0.00000  Uiso   1.00
H376   H     0.71595   0.46626   0.39401   0.00000  Uiso   1.00
H377   H     0.69044   0.45488   0.47671   0.00000  Uiso   1.00
H378   H     0.97494   0.54175   0.02130   0.00000  Uiso   1.00
H379   H     0.85028   0.62813   0.31108   0.00000  Uiso   1.00
H380   H     0.81672   0.37190   0.18894   0.00000  Uiso   1.00
H381   H     0.97443   0.44762   0.20487   0.00000  Uiso   1.00
H382   H     0.69219   0.55232   0.29524   0.00000  Uiso   1.00
N383   N     0.71426   0.50001   0.25001   0.00000  Uiso   1.00
N384   N     0.95241   0.49999   0.24999   0.00000  Uiso   1.00
O385   O     0.79512   0.56108   0.25001   0.00000  Uiso   1.00
O386   O     0.87154   0.43892   0.25000   0.00000  Uiso   1.00
O387   O     0.87157   0.56107   0.25000   0.00000  Uiso   1.00
O388   O     0.79510   0.43893   0.25000   0.00000  Uiso   1.00
O389   O     0.77328   0.50001   0.31613   0.00000  Uiso   1.00
O390   O     0.89339   0.49999   0.18388   0.00000  Uiso   1.00
O391   O     0.84972   0.50000   0.31612   0.00000  Uiso   1.00
O392   O     0.81695   0.50000   0.18388   0.00000  Uiso   1.00
Zn393  Zn    0.78229   0.50001   0.25000   0.00000  Uiso   1.00
Zn394  Zn    0.88438   0.49999   0.25000   0.00000  Uiso   1.00
Cl395  Cl    0.68498   0.45581   0.06317   0.00000  Uiso   1.00
Cl396  Cl    0.97927   0.53880   0.43507   0.00000  Uiso   1.00
C397   C     0.75162   0.51381   0.09695   0.00000  Uiso   1.00
O398   O     0.71550   0.49942   0.12674   0.00000  Uiso   1.00
O399   O     0.77142   0.55155   0.10552   0.00000  Uiso   1.00
H400   H     0.75278   0.56331   0.13756   0.00000  Uiso   1.00
C401   C     0.91368   0.47520   0.40441   0.00000  Uiso   1.00
O402   O     0.89359   0.44339   0.39784   0.00000  Uiso   1.00
O403   O     0.95786   0.48733   0.37095   0.00000  Uiso   1.00
H404   H     0.96940   0.46698   0.34377   0.00000  Uiso   1.00
Cl405  Cl    0.85205   0.38135   0.33187   0.00000  Uiso   1.00
Cl406  Cl    0.81596   0.61880   0.16766   0.00000  Uiso   1.00
Cl407  Cl    0.73951   0.43249   0.19098   0.00000  Uiso   1.00
Cl408  Cl    0.92658   0.56641   0.31050   0.00000  Uiso   1.00
C409   C     0.16712   0.91320   0.24935   0.00000  Uiso   1.00
C410   C     0.16619   0.75348   0.25075   0.00000  Uiso   1.00
C411   C     0.10742   0.82572   0.05106   0.00000  Uiso   1.00
C412   C     0.22494   0.83250   0.44893   0.00000  Uiso   1.00
C413   C     0.07678   0.80855   0.02973   0.00000  Uiso   1.00
C414   C     0.25541   0.85113   0.46943   0.00000  Uiso   1.00
C415   C     0.17681   0.97849   0.28427   0.00000  Uiso   1.00
C416   C     0.15671   0.68821   0.21583   0.00000  Uiso   1.00
C417   C     0.17585   0.68828   0.28575   0.00000  Uiso   1.00
C418   C     0.15784   0.97844   0.21426   0.00000  Uiso   1.00
C419   C     0.16573   0.70936   0.25130   0.00000  Uiso   1.00
C420   C     0.16767   0.95733   0.24884   0.00000  Uiso   1.00
C421   C     0.31848   0.80414   0.22504   0.00000  Uiso   1.00
C422   C     0.01486   0.86255   0.27495   0.00000  Uiso   1.00
C423   C     0.03289   0.80402   0.22496   0.00000  Uiso   1.00
C424   C     0.30034   0.86246   0.27532   0.00000  Uiso   1.00
C425   C     0.13647   0.83253   0.33767   0.00000  Uiso   1.00
C426   C     0.19684   0.83375   0.16230   0.00000  Uiso   1.00
C427   C     0.11833   0.82712   0.38745   0.00000  Uiso   1.00
C428   C     0.21483   0.83732   0.11231   0.00000  Uiso   1.00
C429   C     0.05976   0.80062   0.45859   0.00000  Uiso   1.00
C430   C     0.27257   0.86241   0.04006   0.00000  Uiso   1.00
C431   C     0.07359   0.80815   0.41146   0.00000  Uiso   1.00
C432   C     0.25910   0.85659   0.08744   0.00000  Uiso   1.00
C433   C     0.14963   0.83665   0.41005   0.00000  Uiso   1.00
C434   C     0.18378   0.82534   0.09015   0.00000  Uiso   1.00
C435   C     0.13918   0.82440   0.45541   0.00000  Uiso   1.00
C436   C     0.19348   0.83616   0.04448   0.00000  Uiso   1.00
C437   C     0.09184   0.80996   0.48146   0.00000  Uiso   1.00
C438   C     0.24051   0.85112   0.01775   0.00000  Uiso   1.00
C439   C     0.17429   0.82878   0.47579   0.00000  Uiso   1.00
C440   C     0.15812   0.83037   0.02440   0.00000  Uiso   1.00
H441   H     0.15144   0.80767   0.10917   0.00000  Uiso   1.00
H442   H     0.18286   0.85350   0.39166   0.00000  Uiso   1.00
H443   H     0.28335   0.86664   0.10443   0.00000  Uiso   1.00
H444   H     0.04928   0.79960   0.39401   0.00000  Uiso   1.00
H445   H     0.02377   0.78822   0.47671   0.00000  Uiso   1.00
H446   H     0.30828   0.87509   0.02130   0.00000  Uiso   1.00
H447   H     0.18361   0.96146   0.31108   0.00000  Uiso   1.00
H448   H     0.15005   0.70523   0.18894   0.00000  Uiso   1.00
H449   H     0.30776   0.78095   0.20487   0.00000  Uiso   1.00
H450   H     0.02553   0.88565   0.29524   0.00000  Uiso   1.00
N451   N     0.04759   0.83334   0.25001   0.00000  Uiso   1.00
N452   N     0.28574   0.83332   0.24999   0.00000  Uiso   1.00
O453   O     0.12846   0.89442   0.25001   0.00000  Uiso   1.00
O454   O     0.20488   0.77225   0.25000   0.00000  Uiso   1.00
O455   O     0.20490   0.89441   0.25000   0.00000  Uiso   1.00
O456   O     0.12843   0.77226   0.25000   0.00000  Uiso   1.00
O457   O     0.10661   0.83334   0.31613   0.00000  Uiso   1.00
O458   O     0.22672   0.83333   0.18388   0.00000  Uiso   1.00
O459   O     0.18305   0.83333   0.31612   0.00000  Uiso   1.00
O460   O     0.15028   0.83334   0.18388   0.00000  Uiso   1.00
Zn461  Zn    0.11562   0.83334   0.25000   0.00000  Uiso   1.00
Zn462  Zn    0.21771   0.83333   0.25000   0.00000  Uiso   1.00
Cl463  Cl    0.01832   0.78914   0.06317   0.00000  Uiso   1.00
Cl464  Cl    0.31260   0.87214   0.43507   0.00000  Uiso   1.00
C465   C     0.08496   0.84715   0.09695   0.00000  Uiso   1.00
O466   O     0.04883   0.83275   0.12674   0.00000  Uiso   1.00
O467   O     0.10475   0.88489   0.10552   0.00000  Uiso   1.00
H468   H     0.08611   0.89664   0.13756   0.00000  Uiso   1.00
C469   C     0.24701   0.80853   0.40441   0.00000  Uiso   1.00
O470   O     0.22692   0.77672   0.39784   0.00000  Uiso   1.00
O471   O     0.29120   0.82067   0.37095   0.00000  Uiso   1.00
H472   H     0.30273   0.80032   0.34377   0.00000  Uiso   1.00
Cl473  Cl    0.18538   0.71468   0.33187   0.00000  Uiso   1.00
Cl474  Cl    0.14929   0.95214   0.16766   0.00000  Uiso   1.00
Cl475  Cl    0.07284   0.76582   0.19098   0.00000  Uiso   1.00
Cl476  Cl    0.25992   0.89975   0.31050   0.00000  Uiso   1.00
C477   C     0.50046   0.91320   0.24935   0.00000  Uiso   1.00
C478   C     0.49952   0.75348   0.25075   0.00000  Uiso   1.00
C479   C     0.44075   0.82572   0.05106   0.00000  Uiso   1.00
C480   C     0.55827   0.83250   0.44893   0.00000  Uiso   1.00
C481   C     0.41011   0.80855   0.02973   0.00000  Uiso   1.00
C482   C     0.58874   0.85113   0.46943   0.00000  Uiso   1.00
C483   C     0.51014   0.97849   0.28427   0.00000  Uiso   1.00
C484   C     0.49005   0.68821   0.21583   0.00000  Uiso   1.00
C485   C     0.50919   0.68828   0.28575   0.00000  Uiso   1.00
C486   C     0.49117   0.97844   0.21426   0.00000  Uiso   1.00
C487   C     0.49906   0.70936   0.25130   0.00000  Uiso   1.00
C488   C     0.50100   0.95733   0.24884   0.00000  Uiso   1.00
C489   C     0.65181   0.80414   0.22504   0.00000  Uiso   1.00
C490   C     0.34819   0.86255   0.27495   0.00000  Uiso   1.00
C491   C     0.36622   0.80402   0.22496   0.00000  Uiso   1.00
C492   C     0.63367   0.86246   0.27532   0.00000  Uiso   1.00
C493   C     0.46980   0.83253   0.33767   0.00000  Uiso   1.00
C494   C     0.53017   0.83375   0.16230   0.00000  Uiso   1.00
C495   C     0.45166   0.82712   0.38745   0.00000  Uiso   1.00
C496   C     0.54816   0.83732   0.11231   0.00000  Uiso   1.00
C497   C     0.39310   0.80062   0.45859   0.00000  Uiso   1.00
C498   C     0.60590   0.86241   0.04006   0.00000  Uiso   1.00
C499   C     0.40693   0.80815   0.41146   0.00000  Uiso   1.00
C500   C     0.59243   0.85659   0.08744   0.00000  Uiso   1.00
C501   C     0.48296   0.83665   0.41005   0.00000  Uiso   1.00
C502   C     0.51712   0.82534   0.09015   0.00000  Uiso   1.00
C503   C     0.47251   0.82440   0.45541   0.00000  Uiso   1.00
C504   C     0.52681   0.83616   0.04448   0.00000  Uiso   1.00
C505   C     0.42518   0.80996   0.48146   0.00000  Uiso   1.00
C506   C     0.57384   0.85112   0.01775   0.00000  Uiso   1.00
C507   C     0.50763   0.82878   0.47579   0.00000  Uiso   1.00
C508   C     0.49145   0.83037   0.02440   0.00000  Uiso   1.00
H509   H     0.48478   0.80767   0.10917   0.00000  Uiso   1.00
H510   H     0.51619   0.85350   0.39166   0.00000  Uiso   1.00
H511   H     0.61668   0.86664   0.10443   0.00000  Uiso   1.00
H512   H     0.38261   0.79960   0.39401   0.00000  Uiso   1.00
H513   H     0.35710   0.78822   0.47671   0.00000  Uiso   1.00
H514   H     0.64161   0.87509   0.02130   0.00000  Uiso   1.00
H515   H     0.51694   0.96146   0.31108   0.00000  Uiso   1.00
H516   H     0.48338   0.70523   0.18894   0.00000  Uiso   1.00
H517   H     0.64110   0.78095   0.20487   0.00000  Uiso   1.00
H518   H     0.35886   0.88565   0.29524   0.00000  Uiso   1.00
N519   N     0.38093   0.83334   0.25001   0.00000  Uiso   1.00
N520   N     0.61907   0.83332   0.24999   0.00000  Uiso   1.00
O521   O     0.46179   0.89442   0.25001   0.00000  Uiso   1.00
O522   O     0.53821   0.77225   0.25000   0.00000  Uiso   1.00
O523   O     0.53823   0.89441   0.25000   0.00000  Uiso   1.00
O524   O     0.46177   0.77226   0.25000   0.00000  Uiso   1.00
O525   O     0.43994   0.83334   0.31613   0.00000  Uiso   1.00
O526   O     0.56006   0.83333   0.18388   0.00000  Uiso   1.00
O527   O     0.51639   0.83333   0.31612   0.00000  Uiso   1.00
O528   O     0.48361   0.83334   0.18388   0.00000  Uiso   1.00
Zn529  Zn    0.44896   0.83334   0.25000   0.00000  Uiso   1.00
Zn530  Zn    0.55104   0.83333   0.25000   0.00000  Uiso   1.00
Cl531  Cl    0.35165   0.78914   0.06317   0.00000  Uiso   1.00
Cl532  Cl    0.64594   0.87214   0.43507   0.00000  Uiso   1.00
C533   C     0.41829   0.84715   0.09695   0.00000  Uiso   1.00
O534   O     0.38216   0.83275   0.12674   0.00000  Uiso   1.00
O535   O     0.43809   0.88489   0.10552   0.00000  Uiso   1.00
H536   H     0.41945   0.89664   0.13756   0.00000  Uiso   1.00
C537   C     0.58035   0.80853   0.40441   0.00000  Uiso   1.00
O538   O     0.56025   0.77672   0.39784   0.00000  Uiso   1.00
O539   O     0.62453   0.82067   0.37095   0.00000  Uiso   1.00
H540   H     0.63606   0.80032   0.34377   0.00000  Uiso   1.00
Cl541  Cl    0.51872   0.71468   0.33187   0.00000  Uiso   1.00
Cl542  Cl    0.48263   0.95214   0.16766   0.00000  Uiso   1.00
Cl543  Cl    0.40617   0.76582   0.19098   0.00000  Uiso   1.00
Cl544  Cl    0.59325   0.89975   0.31050   0.00000  Uiso   1.00
C545   C     0.83379   0.91320   0.24935   0.00000  Uiso   1.00
C546   C     0.83285   0.75348   0.25075   0.00000  Uiso   1.00
C547   C     0.77408   0.82572   0.05106   0.00000  Uiso   1.00
C548   C     0.89161   0.83250   0.44893   0.00000  Uiso   1.00
C549   C     0.74345   0.80855   0.02973   0.00000  Uiso   1.00
C550   C     0.92207   0.85113   0.46943   0.00000  Uiso   1.00
C551   C     0.84348   0.97849   0.28427   0.00000  Uiso   1.00
C552   C     0.82338   0.68821   0.21583   0.00000  Uiso   1.00
C553   C     0.84252   0.68828   0.28575   0.00000  Uiso   1.00
C554   C     0.82451   0.97844   0.21426   0.00000  Uiso   1.00
C555   C     0.83239   0.70936   0.25130   0.00000  Uiso   1.00
C556   C     0.83433   0.95733   0.24884   0.00000  Uiso   1.00
C557   C     0.98515   0.80414   0.22504   0.00000  Uiso   1.00
C558   C     0.68153   0.86255   0.27495   0.00000  Uiso   1.00
C559   C     0.69955   0.80402   0.22496   0.00000  Uiso   1.00
C560   C     0.96700   0.86246   0.27532   0.00000  Uiso   1.00
C561   C     0.80314   0.83253   0.33767   0.00000  Uiso   1.00
C562   C     0.86350   0.83375   0.16230   0.00000  Uiso   1.00
C563   C     0.78500   0.82712   0.38745   0.00000  Uiso   1.00
C564   C     0.88150   0.83732   0.11231   0.00000  Uiso   1.00
C565   C     0.72643   0.80062   0.45859   0.00000  Uiso   1.00
C566   C     0.93923   0.86241   0.04006   0.00000  Uiso   1.00
C567   C     0.74026   0.80815   0.41146   0.00000  Uiso   1.00
C568   C     0.92577   0.85659   0.08744   0.00000  Uiso   1.00
C569   C     0.81630   0.83665   0.41005   0.00000  Uiso   1.00
C570   C     0.85045   0.82534   0.09015   0.00000  Uiso   1.00
C571   C     0.80585   0.82440   0.45541   0.00000  Uiso   1.00
C572   C     0.86014   0.83616   0.04448   0.00000  Uiso   1.00
C573   C     0.75851   0.80996   0.48146   0.00000  Uiso   1.00
C574   C     0.90717   0.85112   0.01775   0.00000  Uiso   1.00
C575   C     0.84096   0.82878   0.47579   0.00000  Uiso   1.00
C576   C     0.82479   0.83037   0.02440   0.00000  Uiso   1.00
H577   H     0.81811   0.80767   0.10917   0.00000  Uiso   1.00
H578   H     0.84952   0.85350   0.39166   0.00000  Uiso   1.00
H579   H     0.95001   0.86664   0.10443   0.00000  Uiso   1.00
H580   H     0.71595   0.79960   0.39401   0.00000  Uiso   1.00
H581   H     0.69044   0.78822   0.47671   0.00000  Uiso   1.00
H582   H     0.97494   0.87509   0.02130   0.00000  Uiso   1.00
H583   H     0.85028   0.96146   0.31108   0.00000  Uiso   1.00
H584   H     0.81672   0.70523   0.18894   0.00000  Uiso   1.00
H585   H     0.97443   0.78095   0.20487   0.00000  Uiso   1.00
H586   H     0.69219   0.88565   0.29524   0.00000  Uiso   1.00
N587   N     0.71426   0.83334   0.25001   0.00000  Uiso   1.00
N588   N     0.95241   0.83332   0.24999   0.00000  Uiso   1.00
O589   O     0.79512   0.89442   0.25001   0.00000  Uiso   1.00
O590   O     0.87154   0.77225   0.25000   0.00000  Uiso   1.00
O591   O     0.87157   0.89441   0.25000   0.00000  Uiso   1.00
O592   O     0.79510   0.77226   0.25000   0.00000  Uiso   1.00
O593   O     0.77328   0.83334   0.31613   0.00000  Uiso   1.00
O594   O     0.89339   0.83333   0.18388   0.00000  Uiso   1.00
O595   O     0.84972   0.83333   0.31612   0.00000  Uiso   1.00
O596   O     0.81695   0.83334   0.18388   0.00000  Uiso   1.00
Zn597  Zn    0.78229   0.83334   0.25000   0.00000  Uiso   1.00
Zn598  Zn    0.88438   0.83333   0.25000   0.00000  Uiso   1.00
Cl599  Cl    0.68498   0.78914   0.06317   0.00000  Uiso   1.00
Cl600  Cl    0.97927   0.87214   0.43507   0.00000  Uiso   1.00
C601   C     0.75162   0.84715   0.09695   0.00000  Uiso   1.00
O602   O     0.71550   0.83275   0.12674   0.00000  Uiso   1.00
O603   O     0.77142   0.88489   0.10552   0.00000  Uiso   1.00
H604   H     0.75278   0.89664   0.13756   0.00000  Uiso   1.00
C605   C     0.91368   0.80853   0.40441   0.00000  Uiso   1.00
O606   O     0.89359   0.77672   0.39784   0.00000  Uiso   1.00
O607   O     0.95786   0.82067   0.37095   0.00000  Uiso   1.00
H608   H     0.96940   0.80032   0.34377   0.00000  Uiso   1.00
Cl609  Cl    0.85205   0.71468   0.33187   0.00000  Uiso   1.00
Cl610  Cl    0.81596   0.95214   0.16766   0.00000  Uiso   1.00
Cl611  Cl    0.73951   0.76582   0.19098   0.00000  Uiso   1.00
Cl612  Cl    0.92658   0.89975   0.31050   0.00000  Uiso   1.00
C613   C     0.16712   0.24653   0.74935   0.00000  Uiso   1.00
C614   C     0.16619   0.08681   0.75075   0.00000  Uiso   1.00
C615   C     0.10742   0.15905   0.55106   0.00000  Uiso   1.00
C616   C     0.22494   0.16584   0.94893   0.00000  Uiso   1.00
C617   C     0.07678   0.14188   0.52973   0.00000  Uiso   1.00
C618   C     0.25541   0.18446   0.96943   0.00000  Uiso   1.00
C619   C     0.17681   0.31183   0.78427   0.00000  Uiso   1.00
C620   C     0.15671   0.02154   0.71583   0.00000  Uiso   1.00
C621   C     0.17585   0.02162   0.78575   0.00000  Uiso   1.00
C622   C     0.15784   0.31177   0.71426   0.00000  Uiso   1.00
C623   C     0.16573   0.04270   0.75130   0.00000  Uiso   1.00
C624   C     0.16767   0.29067   0.74884   0.00000  Uiso   1.00
C625   C     0.31848   0.13747   0.72504   0.00000  Uiso   1.00
C626   C     0.01486   0.19588   0.77495   0.00000  Uiso   1.00
C627   C     0.03289   0.13735   0.72496   0.00000  Uiso   1.00
C628   C     0.30034   0.19580   0.77532   0.00000  Uiso   1.00
C629   C     0.13647   0.16586   0.83767   0.00000  Uiso   1.00
C630   C     0.19684   0.16708   0.66230   0.00000  Uiso   1.00
C631   C     0.11833   0.16045   0.88745   0.00000  Uiso   1.00
C632   C     0.21483   0.17066   0.61231   0.00000  Uiso   1.00
C633   C     0.05976   0.13395   0.95859   0.00000  Uiso   1.00
C634   C     0.27257   0.19574   0.54006   0.00000  Uiso   1.00
C635   C     0.07359   0.14149   0.91146   0.00000  Uiso   1.00
C636   C     0.25910   0.18992   0.58744   0.00000  Uiso   1.00
C637   C     0.14963   0.16998   0.91005   0.00000  Uiso   1.00
C638   C     0.18378   0.15867   0.59015   0.00000  Uiso   1.00
C639   C     0.13918   0.15773   0.95541   0.00000  Uiso   1.00
C640   C     0.19348   0.16949   0.54448   0.00000  Uiso   1.00
C641   C     0.09184   0.14330   0.98146   0.00000  Uiso   1.00
C642   C     0.24051   0.18445   0.51775   0.00000  Uiso   1.00
C643   C     0.17429   0.16211   0.97579   0.00000  Uiso   1.00
C644   C     0.15812   0.16370   0.52440   0.00000  Uiso   1.00
H645   H     0.15144   0.14101   0.60917   0.00000  Uiso   1.00
H646   H     0.18286   0.18684   0.89166   0.00000  Uiso   1.00
H647   H     0.28335   0.19997   0.60443   0.00000  Uiso   1.00
H648   H     0.04928   0.13293   0.89401   0.00000  Uiso   1.00
H649   H     0.02377   0.12155   0.97671   0.00000  Uiso   1.00
H650   H     0.30828   0.20842   0.52130   0.00000  Uiso   1.00
H651   H     0.18361   0.29479   0.81108   0.00000  Uiso   1.00
H652   H     0.15005   0.03856   0.68894   0.00000  Uiso   1.00
H653   H     0.30776   0.11428   0.70487   0.00000  Uiso   1.00
H654   H     0.02553   0.21898   0.79524   0.00000  Uiso   1.00
N655   N     0.04759   0.16668   0.75001   0.00000  Uiso   1.00
N656   N     0.28574   0.16666   0.74999   0.00000  Uiso   1.00
O657   O     0.12846   0.22775   0.75001   0.00000  Uiso   1.00
O658   O     0.20488   0.10558   0.75000   0.00000  Uiso   1.00
O659   O     0.20490   0.22774   0.75000   0.00000  Uiso   1.00
O660   O     0.12843   0.10559   0.75000   0.00000  Uiso   1.00
O661   O     0.10661   0.16667   0.81613   0.00000  Uiso   1.00
O662   O     0.22672   0.16666   0.68388   0.00000  Uiso   1.00
O663   O     0.18305   0.16666   0.81612   0.00000  Uiso   1.00
O664   O     0.15028   0.16667   0.68388   0.00000  Uiso   1.00
Zn665  Zn    0.11562   0.16667   0.75000   0.00000  Uiso   1.00
Zn666  Zn    0.21771   0.16666   0.75000   0.00000  Uiso   1.00
Cl667  Cl    0.01832   0.12248   0.56317   0.00000  Uiso   1.00
Cl668  Cl    0.31260   0.20547   0.93507   0.00000  Uiso   1.00
C669   C     0.08496   0.18048   0.59695   0.00000  Uiso   1.00
O670   O     0.04883   0.16608   0.62674   0.00000  Uiso   1.00
O671   O     0.10475   0.21822   0.60552   0.00000  Uiso   1.00
H672   H     0.08611   0.22997   0.63756   0.00000  Uiso   1.00
C673   C     0.24701   0.14186   0.90441   0.00000  Uiso   1.00
O674   O     0.22692   0.11005   0.89784   0.00000  Uiso   1.00
O675   O     0.29120   0.15400   0.87095   0.00000  Uiso   1.00
H676   H     0.30273   0.13365   0.84377   0.00000  Uiso   1.00
Cl677  Cl    0.18538   0.04801   0.83187   0.00000  Uiso   1.00
Cl678  Cl    0.14929   0.28547   0.66766   0.00000  Uiso   1.00
Cl679  Cl    0.07284   0.09915   0.69098   0.00000  Uiso   1.00
Cl680  Cl    0.25992   0.23308   0.81050   0.00000  Uiso   1.00
C681   C     0.50046   0.24653   0.74935   0.00000  Uiso   1.00
C682   C     0.49952   0.08681   0.75075   0.00000  Uiso   1.00
C683   C     0.44075   0.15905   0.55106   0.00000  Uiso   1.00
C684   C     0.55827   0.16584   0.94893   0.00000  Uiso   1.00
C685   C     0.41011   0.14188   0.52973   0.00000  Uiso   1.00
C686   C     0.58874   0.18446   0.96943   0.00000  Uiso   1.00
C687   C     0.51014   0.31183   0.78427   0.00000  Uiso   1.00
C688   C     0.49005   0.02154   0.71583   0.00000  Uiso   1.00
C689   C     0.50919   0.02162   0.78575   0.00000  Uiso   1.00
C690   C     0.49117   0.31177   0.71426   0.00000  Uiso   1.00
C691   C     0.49906   0.04270   0.75130   0.00000  Uiso   1.00
C692   C     0.50100   0.29067   0.74884   0.00000  Uiso   1.00
C693   C     0.65181   0.13747   0.72504   0.00000  Uiso   1.00
C694   C     0.34819   0.19588   0.77495   0.00000  Uiso   1.00
C695   C     0.36622   0.13735   0.72496   0.00000  Uiso   1.00
C696   C     0.63367   0.19580   0.77532   0.00000  Uiso   1.00
C697   C     0.46980   0.16586   0.83767   0.00000  Uiso   1.00
C698   C     0.53017   0.16708   0.66230   0.00000  Uiso   1.00
C699   C     0.45166   0.16045   0.88745   0.00000  Uiso   1.00
C700   C     0.54816   0.17066   0.61231   0.00000  Uiso   1.00
C701   C     0.39310   0.13395   0.95859   0.00000  Uiso   1.00
C702   C     0.60590   0.19574   0.54006   0.00000  Uiso   1.00
C703   C     0.40693   0.14149   0.91146   0.00000  Uiso   1.00
C704   C     0.59243   0.18992   0.58744   0.00000  Uiso   1.00
C705   C     0.48296   0.16998   0.91005   0.00000  Uiso   1.00
C706   C     0.51712   0.15867   0.59015   0.00000  Uiso   1.00
C707   C     0.47251   0.15773   0.95541   0.00000  Uiso   1.00
C708   C     0.52681   0.16949   0.54448   0.00000  Uiso   1.00
C709   C     0.42518   0.14330   0.98146   0.00000  Uiso   1.00
C710   C     0.57384   0.18445   0.51775   0.00000  Uiso   1.00
C711   C     0.50763   0.16211   0.97579   0.00000  Uiso   1.00
C712   C     0.49145   0.16370   0.52440   0.00000  Uiso   1.00
H713   H     0.48478   0.14101   0.60917   0.00000  Uiso   1.00
H714   H     0.51619   0.18684   0.89166   0.00000  Uiso   1.00
H715   H     0.61668   0.19997   0.60443   0.00000  Uiso   1.00
H716   H     0.38261   0.13293   0.89401   0.00000  Uiso   1.00
H717   H     0.35710   0.12155   0.97671   0.00000  Uiso   1.00
H718   H     0.64161   0.20842   0.52130   0.00000  Uiso   1.00
H719   H     0.51694   0.29479   0.81108   0.00000  Uiso   1.00
H720   H     0.48338   0.03856   0.68894   0.00000  Uiso   1.00
H721   H     0.64110   0.11428   0.70487   0.00000  Uiso   1.00
H722   H     0.35886   0.21898   0.79524   0.00000  Uiso   1.00
N723   N     0.38093   0.16668   0.75001   0.00000  Uiso   1.00
N724   N     0.61907   0.16666   0.74999   0.00000  Uiso   1.00
O725   O     0.46179   0.22775   0.75001   0.00000  Uiso   1.00
O726   O     0.53821   0.10558   0.75000   0.00000  Uiso   1.00
O727   O     0.53823   0.22774   0.75000   0.00000  Uiso   1.00
O728   O     0.46177   0.10559   0.75000   0.00000  Uiso   1.00
O729   O     0.43994   0.16667   0.81613   0.00000  Uiso   1.00
O730   O     0.56006   0.16666   0.68388   0.00000  Uiso   1.00
O731   O     0.51639   0.16666   0.81612   0.00000  Uiso   1.00
O732   O     0.48361   0.16667   0.68388   0.00000  Uiso   1.00
Zn733  Zn    0.44896   0.16667   0.75000   0.00000  Uiso   1.00
Zn734  Zn    0.55104   0.16666   0.75000   0.00000  Uiso   1.00
Cl735  Cl    0.35165   0.12248   0.56317   0.00000  Uiso   1.00
Cl736  Cl    0.64594   0.20547   0.93507   0.00000  Uiso   1.00
C737   C     0.41829   0.18048   0.59695   0.00000  Uiso   1.00
O738   O     0.38216   0.16608   0.62674   0.00000  Uiso   1.00
O739   O     0.43809   0.21822   0.60552   0.00000  Uiso   1.00
H740   H     0.41945   0.22997   0.63756   0.00000  Uiso   1.00
C741   C     0.58035   0.14186   0.90441   0.00000  Uiso   1.00
O742   O     0.56025   0.11005   0.89784   0.00000  Uiso   1.00
O743   O     0.62453   0.15400   0.87095   0.00000  Uiso   1.00
H744   H     0.63606   0.13365   0.84377   0.00000  Uiso   1.00
Cl745  Cl    0.51872   0.04801   0.83187   0.00000  Uiso   1.00
Cl746  Cl    0.48263   0.28547   0.66766   0.00000  Uiso   1.00
Cl747  Cl    0.40617   0.09915   0.69098   0.00000  Uiso   1.00
Cl748  Cl    0.59325   0.23308   0.81050   0.00000  Uiso   1.00
C749   C     0.83379   0.24653   0.74935   0.00000  Uiso   1.00
C750   C     0.83285   0.08681   0.75075   0.00000  Uiso   1.00
C751   C     0.77408   0.15905   0.55106   0.00000  Uiso   1.00
C752   C     0.89161   0.16584   0.94893   0.00000  Uiso   1.00
C753   C     0.74345   0.14188   0.52973   0.00000  Uiso   1.00
C754   C     0.92207   0.18446   0.96943   0.00000  Uiso   1.00
C755   C     0.84348   0.31183   0.78427   0.00000  Uiso   1.00
C756   C     0.82338   0.02154   0.71583   0.00000  Uiso   1.00
C757   C     0.84252   0.02162   0.78575   0.00000  Uiso   1.00
C758   C     0.82451   0.31177   0.71426   0.00000  Uiso   1.00
C759   C     0.83239   0.04270   0.75130   0.00000  Uiso   1.00
C760   C     0.83433   0.29067   0.74884   0.00000  Uiso   1.00
C761   C     0.98515   0.13747   0.72504   0.00000  Uiso   1.00
C762   C     0.68153   0.19588   0.77495   0.00000  Uiso   1.00
C763   C     0.69955   0.13735   0.72496   0.00000  Uiso   1.00
C764   C     0.96700   0.19580   0.77532   0.00000  Uiso   1.00
C765   C     0.80314   0.16586   0.83767   0.00000  Uiso   1.00
C766   C     0.86350   0.16708   0.66230   0.00000  Uiso   1.00
C767   C     0.78500   0.16045   0.88745   0.00000  Uiso   1.00
C768   C     0.88150   0.17066   0.61231   0.00000  Uiso   1.00
C769   C     0.72643   0.13395   0.95859   0.00000  Uiso   1.00
C770   C     0.93923   0.19574   0.54006   0.00000  Uiso   1.00
C771   C     0.74026   0.14149   0.91146   0.00000  Uiso   1.00
C772   C     0.92577   0.18992   0.58744   0.00000  Uiso   1.00
C773   C     0.81630   0.16998   0.91005   0.00000  Uiso   1.00
C774   C     0.85045   0.15867   0.59015   0.00000  Uiso   1.00
C775   C     0.80585   0.15773   0.95541   0.00000  Uiso   1.00
C776   C     0.86014   0.16949   0.54448   0.00000  Uiso   1.00
C777   C     0.75851   0.14330   0.98146   0.00000  Uiso   1.00
C778   C     0.90717   0.18445   0.51775   0.00000  Uiso   1.00
C779   C     0.84096   0.16211   0.97579   0.00000  Uiso   1.00
C780   C     0.82479   0.16370   0.52440   0.00000  Uiso   1.00
H781   H     0.81811   0.14101   0.60917   0.00000  Uiso   1.00
H782   H     0.84952   0.18684   0.89166   0.00000  Uiso   1.00
H783   H     0.95001   0.19997   0.60443   0.00000  Uiso   1.00
H784   H     0.71595   0.13293   0.89401   0.00000  Uiso   1.00
H785   H     0.69044   0.12155   0.97671   0.00000  Uiso   1.00
H786   H     0.97494   0.20842   0.52130   0.00000  Uiso   1.00
H787   H     0.85028   0.29479   0.81108   0.00000  Uiso   1.00
H788   H     0.81672   0.03856   0.68894   0.00000  Uiso   1.00
H789   H     0.97443   0.11428   0.70487   0.00000  Uiso   1.00
H790   H     0.69219   0.21898   0.79524   0.00000  Uiso   1.00
N791   N     0.71426   0.16668   0.75001   0.00000  Uiso   1.00
N792   N     0.95241   0.16666   0.74999   0.00000  Uiso   1.00
O793   O     0.79512   0.22775   0.75001   0.00000  Uiso   1.00
O794   O     0.87154   0.10558   0.75000   0.00000  Uiso   1.00
O795   O     0.87157   0.22774   0.75000   0.00000  Uiso   1.00
O796   O     0.79510   0.10559   0.75000   0.00000  Uiso   1.00
O797   O     0.77328   0.16667   0.81613   0.00000  Uiso   1.00
O798   O     0.89339   0.16666   0.68388   0.00000  Uiso   1.00
O799   O     0.84972   0.16666   0.81612   0.00000  Uiso   1.00
O800   O     0.81695   0.16667   0.68388   0.00000  Uiso   1.00
Zn801  Zn    0.78229   0.16667   0.75000   0.00000  Uiso   1.00
Zn802  Zn    0.88438   0.16666   0.75000   0.00000  Uiso   1.00
Cl803  Cl    0.68498   0.12248   0.56317   0.00000  Uiso   1.00
Cl804  Cl    0.97927   0.20547   0.93507   0.00000  Uiso   1.00
C805   C     0.75162   0.18048   0.59695   0.00000  Uiso   1.00
O806   O     0.71550   0.16608   0.62674   0.00000  Uiso   1.00
O807   O     0.77142   0.21822   0.60552   0.00000  Uiso   1.00
H808   H     0.75278   0.22997   0.63756   0.00000  Uiso   1.00
C809   C     0.91368   0.14186   0.90441   0.00000  Uiso   1.00
O810   O     0.89359   0.11005   0.89784   0.00000  Uiso   1.00
O811   O     0.95786   0.15400   0.87095   0.00000  Uiso   1.00
H812   H     0.96940   0.13365   0.84377   0.00000  Uiso   1.00
Cl813  Cl    0.85205   0.04801   0.83187   0.00000  Uiso   1.00
Cl814  Cl    0.81596   0.28547   0.66766   0.00000  Uiso   1.00
Cl815  Cl    0.73951   0.09915   0.69098   0.00000  Uiso   1.00
Cl816  Cl    0.92658   0.23308   0.81050   0.00000  Uiso   1.00
C817   C     0.16712   0.57986   0.74935   0.00000  Uiso   1.00
C818   C     0.16619   0.42015   0.75075   0.00000  Uiso   1.00
C819   C     0.10742   0.49239   0.55106   0.00000  Uiso   1.00
C820   C     0.22494   0.49917   0.94893   0.00000  Uiso   1.00
C821   C     0.07678   0.47521   0.52973   0.00000  Uiso   1.00
C822   C     0.25541   0.51780   0.96943   0.00000  Uiso   1.00
C823   C     0.17681   0.64516   0.78427   0.00000  Uiso   1.00
C824   C     0.15671   0.35487   0.71583   0.00000  Uiso   1.00
C825   C     0.17585   0.35495   0.78575   0.00000  Uiso   1.00
C826   C     0.15784   0.64511   0.71426   0.00000  Uiso   1.00
C827   C     0.16573   0.37603   0.75130   0.00000  Uiso   1.00
C828   C     0.16767   0.62400   0.74884   0.00000  Uiso   1.00
C829   C     0.31848   0.47081   0.72504   0.00000  Uiso   1.00
C830   C     0.01486   0.52921   0.77495   0.00000  Uiso   1.00
C831   C     0.03289   0.47069   0.72496   0.00000  Uiso   1.00
C832   C     0.30034   0.52913   0.77532   0.00000  Uiso   1.00
C833   C     0.13647   0.49919   0.83767   0.00000  Uiso   1.00
C834   C     0.19684   0.50042   0.66230   0.00000  Uiso   1.00
C835   C     0.11833   0.49379   0.88745   0.00000  Uiso   1.00
C836   C     0.21483   0.50399   0.61231   0.00000  Uiso   1.00
C837   C     0.05976   0.46729   0.95859   0.00000  Uiso   1.00
C838   C     0.27257   0.52908   0.54006   0.00000  Uiso   1.00
C839   C     0.07359   0.47482   0.91146   0.00000  Uiso   1.00
C840   C     0.25910   0.52325   0.58744   0.00000  Uiso   1.00
C841   C     0.14963   0.50332   0.91005   0.00000  Uiso   1.00
C842   C     0.18378   0.49200   0.59015   0.00000  Uiso   1.00
C843   C     0.13918   0.49107   0.95541   0.00000  Uiso   1.00
C844   C     0.19348   0.50283   0.54448   0.00000  Uiso   1.00
C845   C     0.09184   0.47663   0.98146   0.00000  Uiso   1.00
C846   C     0.24051   0.51778   0.51775   0.00000  Uiso   1.00
C847   C     0.17429   0.49544   0.97579   0.00000  Uiso   1.00
C848   C     0.15812   0.49704   0.52440   0.00000  Uiso   1.00
H849   H     0.15144   0.47434   0.60917   0.00000  Uiso   1.00
H850   H     0.18286   0.52017   0.89166   0.00000  Uiso   1.00
H851   H     0.28335   0.53330   0.60443   0.00000  Uiso   1.00
H852   H     0.04928   0.46626   0.89401   0.00000  Uiso   1.00
H853   H     0.02377   0.45488   0.97671   0.00000  Uiso   1.00
H854   H     0.30828   0.54175   0.52130   0.00000  Uiso   1.00
H855   H     0.18361   0.62813   0.81108   0.00000  Uiso   1.00
H856   H     0.15005   0.37190   0.68894   0.00000  Uiso   1.00
H857   H     0.30776   0.44762   0.70487   0.00000  Uiso   1.00
H858   H     0.02553   0.55232   0.79524   0.00000  Uiso   1.00
N859   N     0.04759   0.50001   0.75001   0.00000  Uiso   1.00
N860   N     0.28574   0.49999   0.74999   0.00000  Uiso   1.00
O861   O     0.12846   0.56108   0.75001   0.00000  Uiso   1.00
O862   O     0.20488   0.43892   0.75000   0.00000  Uiso   1.00
O863   O     0.20490   0.56107   0.75000   0.00000  Uiso   1.00
O864   O     0.12843   0.43893   0.75000   0.00000  Uiso   1.00
O865   O     0.10661   0.50001   0.81613   0.00000  Uiso   1.00
O866   O     0.22672   0.49999   0.68388   0.00000  Uiso   1.00
O867   O     0.18305   0.50000   0.81612   0.00000  Uiso   1.00
O868   O     0.15028   0.50000   0.68388   0.00000  Uiso   1.00
Zn869  Zn    0.11562   0.50001   0.75000   0.00000  Uiso   1.00
Zn870  Zn    0.21771   0.49999   0.75000   0.00000  Uiso   1.00
Cl871  Cl    0.01832   0.45581   0.56317   0.00000  Uiso   1.00
Cl872  Cl    0.31260   0.53880   0.93507   0.00000  Uiso   1.00
C873   C     0.08496   0.51381   0.59695   0.00000  Uiso   1.00
O874   O     0.04883   0.49942   0.62674   0.00000  Uiso   1.00
O875   O     0.10475   0.55155   0.60552   0.00000  Uiso   1.00
H876   H     0.08611   0.56331   0.63756   0.00000  Uiso   1.00
C877   C     0.24701   0.47520   0.90441   0.00000  Uiso   1.00
O878   O     0.22692   0.44339   0.89784   0.00000  Uiso   1.00
O879   O     0.29120   0.48733   0.87095   0.00000  Uiso   1.00
H880   H     0.30273   0.46698   0.84377   0.00000  Uiso   1.00
Cl881  Cl    0.18538   0.38135   0.83187   0.00000  Uiso   1.00
Cl882  Cl    0.14929   0.61880   0.66766   0.00000  Uiso   1.00
Cl883  Cl    0.07284   0.43249   0.69098   0.00000  Uiso   1.00
Cl884  Cl    0.25992   0.56641   0.81050   0.00000  Uiso   1.00
C885   C     0.50046   0.57986   0.74935   0.00000  Uiso   1.00
C886   C     0.49952   0.42015   0.75075   0.00000  Uiso   1.00
C887   C     0.44075   0.49239   0.55106   0.00000  Uiso   1.00
C888   C     0.55827   0.49917   0.94893   0.00000  Uiso   1.00
C889   C     0.41011   0.47521   0.52973   0.00000  Uiso   1.00
C890   C     0.58874   0.51780   0.96943   0.00000  Uiso   1.00
C891   C     0.51014   0.64516   0.78427   0.00000  Uiso   1.00
C892   C     0.49005   0.35487   0.71583   0.00000  Uiso   1.00
C893   C     0.50919   0.35495   0.78575   0.00000  Uiso   1.00
C894   C     0.49117   0.64511   0.71426   0.00000  Uiso   1.00
C895   C     0.49906   0.37603   0.75130   0.00000  Uiso   1.00
C896   C     0.50100   0.62400   0.74884   0.00000  Uiso   1.00
C897   C     0.65181   0.47081   0.72504   0.00000  Uiso   1.00
C898   C     0.34819   0.52921   0.77495   0.00000  Uiso   1.00
C899   C     0.36622   0.47069   0.72496   0.00000  Uiso   1.00
C900   C     0.63367   0.52913   0.77532   0.00000  Uiso   1.00
C901   C     0.46980   0.49919   0.83767   0.00000  Uiso   1.00
C902   C     0.53017   0.50042   0.66230   0.00000  Uiso   1.00
C903   C     0.45166   0.49379   0.88745   0.00000  Uiso   1.00
C904   C     0.54816   0.50399   0.61231   0.00000  Uiso   1.00
C905   C     0.39310   0.46729   0.95859   0.00000  Uiso   1.00
C906   C     0.60590   0.52908   0.54006   0.00000  Uiso   1.00
C907   C     0.40693   0.47482   0.91146   0.00000  Uiso   1.00
C908   C     0.59243   0.52325   0.58744   0.00000  Uiso   1.00
C909   C     0.48296   0.50332   0.91005   0.00000  Uiso   1.00
C910   C     0.51712   0.49200   0.59015   0.00000  Uiso   1.00
C911   C     0.47251   0.49107   0.95541   0.00000  Uiso   1.00
C912   C     0.52681   0.50283   0.54448   0.00000  Uiso   1.00
C913   C     0.42518   0.47663   0.98146   0.00000  Uiso   1.00
C914   C     0.57384   0.51778   0.51775   0.00000  Uiso   1.00
C915   C     0.50763   0.49544   0.97579   0.00000  Uiso   1.00
C916   C     0.49145   0.49704   0.52440   0.00000  Uiso   1.00
H917   H     0.48478   0.47434   0.60917   0.00000  Uiso   1.00
H918   H     0.51619   0.52017   0.89166   0.00000  Uiso   1.00
H919   H     0.61668   0.53330   0.60443   0.00000  Uiso   1.00
H920   H     0.38261   0.46626   0.89401   0.00000  Uiso   1.00
H921   H     0.35710   0.45488   0.97671   0.00000  Uiso   1.00
H922   H     0.64161   0.54175   0.52130   0.00000  Uiso   1.00
H923   H     0.51694   0.62813   0.81108   0.00000  Uiso   1.00
H924   H     0.48338   0.37190   0.68894   0.00000  Uiso   1.00
H925   H     0.64110   0.44762   0.70487   0.00000  Uiso   1.00
H926   H     0.35886   0.55232   0.79524   0.00000  Uiso   1.00
N927   N     0.38093   0.50001   0.75001   0.00000  Uiso   1.00
N928   N     0.61907   0.49999   0.74999   0.00000  Uiso   1.00
O929   O     0.46179   0.56108   0.75001   0.00000  Uiso   1.00
O930   O     0.53821   0.43892   0.75000   0.00000  Uiso   1.00
O931   O     0.53823   0.56107   0.75000   0.00000  Uiso   1.00
O932   O     0.46177   0.43893   0.75000   0.00000  Uiso   1.00
O933   O     0.43994   0.50001   0.81613   0.00000  Uiso   1.00
O934   O     0.56006   0.49999   0.68388   0.00000  Uiso   1.00
O935   O     0.51639   0.50000   0.81612   0.00000  Uiso   1.00
O936   O     0.48361   0.50000   0.68388   0.00000  Uiso   1.00
Zn937  Zn    0.44896   0.50001   0.75000   0.00000  Uiso   1.00
Zn938  Zn    0.55104   0.49999   0.75000   0.00000  Uiso   1.00
Cl939  Cl    0.35165   0.45581   0.56317   0.00000  Uiso   1.00
Cl940  Cl    0.64594   0.53880   0.93507   0.00000  Uiso   1.00
C941   C     0.41829   0.51381   0.59695   0.00000  Uiso   1.00
O942   O     0.38216   0.49942   0.62674   0.00000  Uiso   1.00
O943   O     0.43809   0.55155   0.60552   0.00000  Uiso   1.00
H944   H     0.41945   0.56331   0.63756   0.00000  Uiso   1.00
C945   C     0.58035   0.47520   0.90441   0.00000  Uiso   1.00
O946   O     0.56025   0.44339   0.89784   0.00000  Uiso   1.00
O947   O     0.62453   0.48733   0.87095   0.00000  Uiso   1.00
H948   H     0.63606   0.46698   0.84377   0.00000  Uiso   1.00
Cl949  Cl    0.51872   0.38135   0.83187   0.00000  Uiso   1.00
Cl950  Cl    0.48263   0.61880   0.66766   0.00000  Uiso   1.00
Cl951  Cl    0.40617   0.43249   0.69098   0.00000  Uiso   1.00
Cl952  Cl    0.59325   0.56641   0.81050   0.00000  Uiso   1.00
C953   C     0.83379   0.57986   0.74935   0.00000  Uiso   1.00
C954   C     0.83285   0.42015   0.75075   0.00000  Uiso   1.00
C955   C     0.77408   0.49239   0.55106   0.00000  Uiso   1.00
C956   C     0.89161   0.49917   0.94893   0.00000  Uiso   1.00
C957   C     0.74345   0.47521   0.52973   0.00000  Uiso   1.00
C958   C     0.92207   0.51780   0.96943   0.00000  Uiso   1.00
C959   C     0.84348   0.64516   0.78427   0.00000  Uiso   1.00
C960   C     0.82338   0.35487   0.71583   0.00000  Uiso   1.00
C961   C     0.84252   0.35495   0.78575   0.00000  Uiso   1.00
C962   C     0.82451   0.64511   0.71426   0.00000  Uiso   1.00
C963   C     0.83239   0.37603   0.75130   0.00000  Uiso   1.00
C964   C     0.83433   0.62400   0.74884   0.00000  Uiso   1.00
C965   C     0.98515   0.47081   0.72504   0.00000  Uiso   1.00
C966   C     0.68153   0.52921   0.77495   0.00000  Uiso   1.00
C967   C     0.69955   0.47069   0.72496   0.00000  Uiso   1.00
C968   C     0.96700   0.52913   0.77532   0.00000  Uiso   1.00
C969   C     0.80314   0.49919   0.83767   0.00000  Uiso   1.00
C970   C     0.86350   0.50042   0.66230   0.00000  Uiso   1.00
C971   C     0.78500   0.49379   0.88745   0.00000  Uiso   1.00
C972   C     0.88150   0.50399   0.61231   0.00000  Uiso   1.00
C973   C     0.72643   0.46729   0.95859   0.00000  Uiso   1.00
C974   C     0.93923   0.52908   0.54006   0.00000  Uiso   1.00
C975   C     0.74026   0.47482   0.91146   0.00000  Uiso   1.00
C976   C     0.92577   0.52325   0.58744   0.00000  Uiso   1.00
C977   C     0.81630   0.50332   0.91005   0.00000  Uiso   1.00
C978   C     0.85045   0.49200   0.59015   0.00000  Uiso   1.00
C979   C     0.80585   0.49107   0.95541   0.00000  Uiso   1.00
C980   C     0.86014   0.50283   0.54448   0.00000  Uiso   1.00
C981   C     0.75851   0.47663   0.98146   0.00000  Uiso   1.00
C982   C     0.90717   0.51778   0.51775   0.00000  Uiso   1.00
C983   C     0.84096   0.49544   0.97579   0.00000  Uiso   1.00
C984   C     0.82479   0.49704   0.52440   0.00000  Uiso   1.00
H985   H     0.81811   0.47434   0.60917   0.00000  Uiso   1.00
H986   H     0.84952   0.52017   0.89166   0.00000  Uiso   1.00
H987   H     0.95001   0.53330   0.60443   0.00000  Uiso   1.00
H988   H     0.71595   0.46626   0.89401   0.00000  Uiso   1.00
H989   H     0.69044   0.45488   0.97671   0.00000  Uiso   1.00
H990   H     0.97494   0.54175   0.52130   0.00000  Uiso   1.00
H991   H     0.85028   0.62813   0.81108   0.00000  Uiso   1.00
H992   H     0.81672   0.37190   0.68894   0.00000  Uiso   1.00
H993   H     0.97443   0.44762   0.70487   0.00000  Uiso   1.00
H994   H     0.69219   0.55232   0.79524   0.00000  Uiso   1.00
N995   N     0.71426   0.50001   0.75001   0.00000  Uiso   1.00
N996   N     0.95241   0.49999   0.74999   0.00000  Uiso   1.00
O997   O     0.79512   0.56108   0.75001   0.00000  Uiso   1.00
O998   O     0.87154   0.43892   0.75000   0.00000  Uiso   1.00
O999   O     0.87157   0.56107   0.75000   0.00000  Uiso   1.00
O1000  O     0.79510   0.43893   0.75000   0.00000  Uiso   1.00
O1001  O     0.77328   0.50001   0.81613   0.00000  Uiso   1.00
O1002  O     0.89339   0.49999   0.68388   0.00000  Uiso   1.00
O1003  O     0.84972   0.50000   0.81612   0.00000  Uiso   1.00
O1004  O     0.81695   0.50000   0.68388   0.00000  Uiso   1.00
Zn1005 Zn    0.78229   0.50001   0.75000   0.00000  Uiso   1.00
Zn1006 Zn    0.88438   0.49999   0.75000   0.00000  Uiso   1.00
Cl1007 Cl    0.68498   0.45581   0.56317   0.00000  Uiso   1.00
Cl1008 Cl    0.97927   0.53880   0.93507   0.00000  Uiso   1.00
C1009  C     0.75162   0.51381   0.59695   0.00000  Uiso   1.00
O1010  O     0.71550   0.49942   0.62674   0.00000  Uiso   1.00
O1011  O     0.77142   0.55155   0.60552   0.00000  Uiso   1.00
H1012  H     0.75278   0.56331   0.63756   0.00000  Uiso   1.00
C1013  C     0.91368   0.47520   0.90441   0.00000  Uiso   1.00
O1014  O     0.89359   0.44339   0.89784   0.00000  Uiso   1.00
O1015  O     0.95786   0.48733   0.87095   0.00000  Uiso   1.00
H1016  H     0.96940   0.46698   0.84377   0.00000  Uiso   1.00
Cl1017 Cl    0.85205   0.38135   0.83187   0.00000  Uiso   1.00
Cl1018 Cl    0.81596   0.61880   0.66766   0.00000  Uiso   1.00
Cl1019 Cl    0.73951   0.43249   0.69098   0.00000  Uiso   1.00
Cl1020 Cl    0.92658   0.56641   0.81050   0.00000  Uiso   1.00
C1021  C     0.16712   0.91320   0.74935   0.00000  Uiso   1.00
C1022  C     0.16619   0.75348   0.75075   0.00000  Uiso   1.00
C1023  C     0.10742   0.82572   0.55106   0.00000  Uiso   1.00
C1024  C     0.22494   0.83250   0.94893   0.00000  Uiso   1.00
C1025  C     0.07678   0.80855   0.52973   0.00000  Uiso   1.00
C1026  C     0.25541   0.85113   0.96943   0.00000  Uiso   1.00
C1027  C     0.17681   0.97849   0.78427   0.00000  Uiso   1.00
C1028  C     0.15671   0.68821   0.71583   0.00000  Uiso   1.00
C1029  C     0.17585   0.68828   0.78575   0.00000  Uiso   1.00
C1030  C     0.15784   0.97844   0.71426   0.00000  Uiso   1.00
C1031  C     0.16573   0.70936   0.75130   0.00000  Uiso   1.00
C1032  C     0.16767   0.95733   0.74884   0.00000  Uiso   1.00
C1033  C     0.31848   0.80414   0.72504   0.00000  Uiso   1.00
C1034  C     0.01486   0.86255   0.77495   0.00000  Uiso   1.00
C1035  C     0.03289   0.80402   0.72496   0.00000  Uiso   1.00
C1036  C     0.30034   0.86246   0.77532   0.00000  Uiso   1.00
C1037  C     0.13647   0.83253   0.83767   0.00000  Uiso   1.00
C1038  C     0.19684   0.83375   0.66230   0.00000  Uiso   1.00
C1039  C     0.11833   0.82712   0.88745   0.00000  Uiso   1.00
C1040  C     0.21483   0.83732   0.61231   0.00000  Uiso   1.00
C1041  C     0.05976   0.80062   0.95859   0.00000  Uiso   1.00
C1042  C     0.27257   0.86241   0.54006   0.00000  Uiso   1.00
C1043  C     0.07359   0.80815   0.91146   0.00000  Uiso   1.00
C1044  C     0.25910   0.85659   0.58744   0.00000  Uiso   1.00
C1045  C     0.14963   0.83665   0.91005   0.00000  Uiso   1.00
C1046  C     0.18378   0.82534   0.59015   0.00000  Uiso   1.00
C1047  C     0.13918   0.82440   0.95541   0.00000  Uiso   1.00
C1048  C     0.19348   0.83616   0.54448   0.00000  Uiso   1.00
C1049  C     0.09184   0.80996   0.98146   0.00000  Uiso   1.00
C1050  C     0.24051   0.85112   0.51775   0.00000  Uiso   1.00
C1051  C     0.17429   0.82878   0.97579   0.00000  Uiso   1.00
C1052  C     0.15812   0.83037   0.52440   0.00000  Uiso   1.00
H1053  H     0.15144   0.80767   0.60917   0.00000  Uiso   1.00
H1054  H     0.18286   0.85350   0.89166   0.00000  Uiso   1.00
H1055  H     0.28335   0.86664   0.60443   0.00000  Uiso   1.00
H1056  H     0.04928   0.79960   0.89401   0.00000  Uiso   1.00
H1057  H     0.02377   0.78822   0.97671   0.00000  Uiso   1.00
H1058  H     0.30828   0.87509   0.52130   0.00000  Uiso   1.00
H1059  H     0.18361   0.96146   0.81108   0.00000  Uiso   1.00
H1060  H     0.15005   0.70523   0.68894   0.00000  Uiso   1.00
H1061  H     0.30776   0.78095   0.70487   0.00000  Uiso   1.00
H1062  H     0.02553   0.88565   0.79524   0.00000  Uiso   1.00
N1063  N     0.04759   0.83334   0.75001   0.00000  Uiso   1.00
N1064  N     0.28574   0.83332   0.74999   0.00000  Uiso   1.00
O1065  O     0.12846   0.89442   0.75001   0.00000  Uiso   1.00
O1066  O     0.20488   0.77225   0.75000   0.00000  Uiso   1.00
O1067  O     0.20490   0.89441   0.75000   0.00000  Uiso   1.00
O1068  O     0.12843   0.77226   0.75000   0.00000  Uiso   1.00
O1069  O     0.10661   0.83334   0.81613   0.00000  Uiso   1.00
O1070  O     0.22672   0.83333   0.68388   0.00000  Uiso   1.00
O1071  O     0.18305   0.83333   0.81612   0.00000  Uiso   1.00
O1072  O     0.15028   0.83334   0.68388   0.00000  Uiso   1.00
Zn1073 Zn    0.11562   0.83334   0.75000   0.00000  Uiso   1.00
Zn1074 Zn    0.21771   0.83333   0.75000   0.00000  Uiso   1.00
Cl1075 Cl    0.01832   0.78914   0.56317   0.00000  Uiso   1.00
Cl1076 Cl    0.31260   0.87214   0.93507   0.00000  Uiso   1.00
C1077  C     0.08496   0.84715   0.59695   0.00000  Uiso   1.00
O1078  O     0.04883   0.83275   0.62674   0.00000  Uiso   1.00
O1079  O     0.10475   0.88489   0.60552   0.00000  Uiso   1.00
H1080  H     0.08611   0.89664   0.63756   0.00000  Uiso   1.00
C1081  C     0.24701   0.80853   0.90441   0.00000  Uiso   1.00
O1082  O     0.22692   0.77672   0.89784   0.00000  Uiso   1.00
O1083  O     0.29120   0.82067   0.87095   0.00000  Uiso   1.00
H1084  H     0.30273   0.80032   0.84377   0.00000  Uiso   1.00
Cl1085 Cl    0.18538   0.71468   0.83187   0.00000  Uiso   1.00
Cl1086 Cl    0.14929   0.95214   0.66766   0.00000  Uiso   1.00
Cl1087 Cl    0.07284   0.76582   0.69098   0.00000  Uiso   1.00
Cl1088 Cl    0.25992   0.89975   0.81050   0.00000  Uiso   1.00
C1089  C     0.50046   0.91320   0.74935   0.00000  Uiso   1.00
C1090  C     0.49952   0.75348   0.75075   0.00000  Uiso   1.00
C1091  C     0.44075   0.82572   0.55106   0.00000  Uiso   1.00
C1092  C     0.55827   0.83250   0.94893   0.00000  Uiso   1.00
C1093  C     0.41011   0.80855   0.52973   0.00000  Uiso   1.00
C1094  C     0.58874   0.85113   0.96943   0.00000  Uiso   1.00
C1095  C     0.51014   0.97849   0.78427   0.00000  Uiso   1.00
C1096  C     0.49005   0.68821   0.71583   0.00000  Uiso   1.00
C1097  C     0.50919   0.68828   0.78575   0.00000  Uiso   1.00
C1098  C     0.49117   0.97844   0.71426   0.00000  Uiso   1.00
C1099  C     0.49906   0.70936   0.75130   0.00000  Uiso   1.00
C1100  C     0.50100   0.95733   0.74884   0.00000  Uiso   1.00
C1101  C     0.65181   0.80414   0.72504   0.00000  Uiso   1.00
C1102  C     0.34819   0.86255   0.77495   0.00000  Uiso   1.00
C1103  C     0.36622   0.80402   0.72496   0.00000  Uiso   1.00
C1104  C     0.63367   0.86246   0.77532   0.00000  Uiso   1.00
C1105  C     0.46980   0.83253   0.83767   0.00000  Uiso   1.00
C1106  C     0.53017   0.83375   0.66230   0.00000  Uiso   1.00
C1107  C     0.45166   0.82712   0.88745   0.00000  Uiso   1.00
C1108  C     0.54816   0.83732   0.61231   0.00000  Uiso   1.00
C1109  C     0.39310   0.80062   0.95859   0.00000  Uiso   1.00
C1110  C     0.60590   0.86241   0.54006   0.00000  Uiso   1.00
C1111  C     0.40693   0.80815   0.91146   0.00000  Uiso   1.00
C1112  C     0.59243   0.85659   0.58744   0.00000  Uiso   1.00
C1113  C     0.48296   0.83665   0.91005   0.00000  Uiso   1.00
C1114  C     0.51712   0.82534   0.59015   0.00000  Uiso   1.00
C1115  C     0.47251   0.82440   0.95541   0.00000  Uiso   1.00
C1116  C     0.52681   0.83616   0.54448   0.00000  Uiso   1.00
C1117  C     0.42518   0.80996   0.98146   0.00000  Uiso   1.00
C1118  C     0.57384   0.85112   0.51775   0.00000  Uiso   1.00
C1119  C     0.50763   0.82878   0.97579   0.00000  Uiso   1.00
C1120  C     0.49145   0.83037   0.52440   0.00000  Uiso   1.00
H1121  H     0.48478   0.80767   0.60917   0.00000  Uiso   1.00
H1122  H     0.51619   0.85350   0.89166   0.00000  Uiso   1.00
H1123  H     0.61668   0.86664   0.60443   0.00000  Uiso   1.00
H1124  H     0.38261   0.79960   0.89401   0.00000  Uiso   1.00
H1125  H     0.35710   0.78822   0.97671   0.00000  Uiso   1.00
H1126  H     0.64161   0.87509   0.52130   0.00000  Uiso   1.00
H1127  H     0.51694   0.96146   0.81108   0.00000  Uiso   1.00
H1128  H     0.48338   0.70523   0.68894   0.00000  Uiso   1.00
H1129  H     0.64110   0.78095   0.70487   0.00000  Uiso   1.00
H1130  H     0.35886   0.88565   0.79524   0.00000  Uiso   1.00
N1131  N     0.38093   0.83334   0.75001   0.00000  Uiso   1.00
N1132  N     0.61907   0.83332   0.74999   0.00000  Uiso   1.00
O1133  O     0.46179   0.89442   0.75001   0.00000  Uiso   1.00
O1134  O     0.53821   0.77225   0.75000   0.00000  Uiso   1.00
O1135  O     0.53823   0.89441   0.75000   0.00000  Uiso   1.00
O1136  O     0.46177   0.77226   0.75000   0.00000  Uiso   1.00
O1137  O     0.43994   0.83334   0.81613   0.00000  Uiso   1.00
O1138  O     0.56006   0.83333   0.68388   0.00000  Uiso   1.00
O1139  O     0.51639   0.83333   0.81612   0.00000  Uiso   1.00
O1140  O     0.48361   0.83334   0.68388   0.00000  Uiso   1.00
Zn1141 Zn    0.44896   0.83334   0.75000   0.00000  Uiso   1.00
Zn1142 Zn    0.55104   0.83333   0.75000   0.00000  Uiso   1.00
Cl1143 Cl    0.35165   0.78914   0.56317   0.00000  Uiso   1.00
Cl1144 Cl    0.64594   0.87214   0.93507   0.00000  Uiso   1.00
C1145  C     0.41829   0.84715   0.59695   0.00000  Uiso   1.00
O1146  O     0.38216   0.83275   0.62674   0.00000  Uiso   1.00
O1147  O     0.43809   0.88489   0.60552   0.00000  Uiso   1.00
H1148  H     0.41945   0.89664   0.63756   0.00000  Uiso   1.00
C1149  C     0.58035   0.80853   0.90441   0.00000  Uiso   1.00
O1150  O     0.56025   0.77672   0.89784   0.00000  Uiso   1.00
O1151  O     0.62453   0.82067   0.87095   0.00000  Uiso   1.00
H1152  H     0.63606   0.80032   0.84377   0.00000  Uiso   1.00
Cl1153 Cl    0.51872   0.71468   0.83187   0.00000  Uiso   1.00
Cl1154 Cl    0.48263   0.95214   0.66766   0.00000  Uiso   1.00
Cl1155 Cl    0.40617   0.76582   0.69098   0.00000  Uiso   1.00
Cl1156 Cl    0.59325   0.89975   0.81050   0.00000  Uiso   1.00
C1157  C     0.83379   0.91320   0.74935   0.00000  Uiso   1.00
C1158  C     0.83285   0.75348   0.75075   0.00000  Uiso   1.00
C1159  C     0.77408   0.82572   0.55106   0.00000  Uiso   1.00
C1160  C     0.89161   0.83250   0.94893   0.00000  Uiso   1.00
C1161  C     0.74345   0.80855   0.52973   0.00000  Uiso   1.00
C1162  C     0.92207   0.85113   0.96943   0.00000  Uiso   1.00
C1163  C     0.84348   0.97849   0.78427   0.00000  Uiso   1.00
C1164  C     0.82338   0.68821   0.71583   0.00000  Uiso   1.00
C1165  C     0.84252   0.68828   0.78575   0.00000  Uiso   1.00
C1166  C     0.82451   0.97844   0.71426   0.00000  Uiso   1.00
C1167  C     0.83239   0.70936   0.75130   0.00000  Uiso   1.00
C1168  C     0.83433   0.95733   0.74884   0.00000  Uiso   1.00
C1169  C     0.98515   0.80414   0.72504   0.00000  Uiso   1.00
C1170  C     0.68153   0.86255   0.77495   0.00000  Uiso   1.00
C1171  C     0.69955   0.80402   0.72496   0.00000  Uiso   1.00
C1172  C     0.96700   0.86246   0.77532   0.00000  Uiso   1.00
C1173  C     0.80314   0.83253   0.83767   0.00000  Uiso   1.00
C1174  C     0.86350   0.83375   0.66230   0.00000  Uiso   1.00
C1175  C     0.78500   0.82712   0.88745   0.00000  Uiso   1.00
C1176  C     0.88150   0.83732   0.61231   0.00000  Uiso   1.00
C1177  C     0.72643   0.80062   0.95859   0.00000  Uiso   1.00
C1178  C     0.93923   0.86241   0.54006   0.00000  Uiso   1.00
C1179  C     0.74026   0.80815   0.91146   0.00000  Uiso   1.00
C1180  C     0.92577   0.85659   0.58744   0.00000  Uiso   1.00
C1181  C     0.81630   0.83665   0.91005   0.00000  Uiso   1.00
C1182  C     0.85045   0.82534   0.59015   0.00000  Uiso   1.00
C1183  C     0.80585   0.82440   0.95541   0.00000  Uiso   1.00
C1184  C     0.86014   0.83616   0.54448   0.00000  Uiso   1.00
C1185  C     0.75851   0.80996   0.98146   0.00000  Uiso   1.00
C1186  C     0.90717   0.85112   0.51775   0.00000  Uiso   1.00
C1187  C     0.84096   0.82878   0.97579   0.00000  Uiso   1.00
C1188  C     0.82479   0.83037   0.52440   0.00000  Uiso   1.00
H1189  H     0.81811   0.80767   0.60917   0.00000  Uiso   1.00
H1190  H     0.84952   0.85350   0.89166   0.00000  Uiso   1.00
H1191  H     0.95001   0.86664   0.60443   0.00000  Uiso   1.00
H1192  H     0.71595   0.79960   0.89401   0.00000  Uiso   1.00
H1193  H     0.69044   0.78822   0.97671   0.00000  Uiso   1.00
H1194  H     0.97494   0.87509   0.52130   0.00000  Uiso   1.00
H1195  H     0.85028   0.96146   0.81108   0.00000  Uiso   1.00
H1196  H     0.81672   0.70523   0.68894   0.00000  Uiso   1.00
H1197  H     0.97443   0.78095   0.70487   0.00000  Uiso   1.00
H1198  H     0.69219   0.88565   0.79524   0.00000  Uiso   1.00
N1199  N     0.71426   0.83334   0.75001   0.00000  Uiso   1.00
N1200  N     0.95241   0.83332   0.74999   0.00000  Uiso   1.00
O1201  O     0.79512   0.89442   0.75001   0.00000  Uiso   1.00
O1202  O     0.87154   0.77225   0.75000   0.00000  Uiso   1.00
O1203  O     0.87157   0.89441   0.75000   0.00000  Uiso   1.00
O1204  O     0.79510   0.77226   0.75000   0.00000  Uiso   1.00
O1205  O     0.77328   0.83334   0.81613   0.00000  Uiso   1.00
O1206  O     0.89339   0.83333   0.68388   0.00000  Uiso   1.00
O1207  O     0.84972   0.83333   0.81612   0.00000  Uiso   1.00
O1208  O     0.81695   0.83334   0.68388   0.00000  Uiso   1.00
Zn1209 Zn    0.78229   0.83334   0.75000   0.00000  Uiso   1.00
Zn1210 Zn    0.88438   0.83333   0.75000   0.00000  Uiso   1.00
Cl1211 Cl    0.68498   0.78914   0.56317   0.00000  Uiso   1.00
Cl1212 Cl    0.97927   0.87214   0.93507   0.00000  Uiso   1.00
C1213  C     0.75162   0.84715   0.59695   0.00000  Uiso   1.00
O1214  O     0.71550   0.83275   0.62674   0.00000  Uiso   1.00
O1215  O     0.77142   0.88489   0.60552   0.00000  Uiso   1.00
H1216  H     0.75278   0.89664   0.63756   0.00000  Uiso   1.00
C1217  C     0.91368   0.80853   0.90441   0.00000  Uiso   1.00
O1218  O     0.89359   0.77672   0.89784   0.00000  Uiso   1.00
O1219  O     0.95786   0.82067   0.87095   0.00000  Uiso   1.00
H1220  H     0.96940   0.80032   0.84377   0.00000  Uiso   1.00
Cl1221 Cl    0.85205   0.71468   0.83187   0.00000  Uiso   1.00
Cl1222 Cl    0.81596   0.95214   0.66766   0.00000  Uiso   1.00
Cl1223 Cl    0.73951   0.76582   0.69098   0.00000  Uiso   1.00
Cl1224 Cl    0.92658   0.89975   0.81050   0.00000  Uiso   1.00
loop_
_geom_bond_atom_site_label_1
_geom_bond_atom_site_label_2
_geom_bond_distance
_geom_bond_site_symmetry_2
_ccdc_geom_bond_type
C1     O45     1.283   .     A
C1     C12     1.407   .     S
C1     O47     1.284   .     A
C2     O46     1.283   .     A
C2     C11     1.406   .     S
C2     O48     1.285   .     A
C3     C5      1.413   .     A
C3     C57     1.493   .     S
C3     C32     1.433   .     A
C4     C31     1.430   .     A
C4     C6      1.409   .     A
C4     C61     1.498   .     S
C5     Cl55    1.773   .     S
C5     C641    1.403   1_554 S
C6     Cl56    1.770   .     S
C6     C642    1.404   .     S
C7     C12     1.393   .     A
C7     H39     1.084   .     S
C7     C213    1.375   .     S
C8     C11     1.393   .     A
C8     H40     1.084   .     S
C8     C418    1.374   1_545 S
C9     Cl65    1.764   .     S
C9     C11     1.400   .     A
C9     C415    1.375   1_545 S
C10    C12     1.400   .     A
C10    Cl66    1.762   .     S
C10    C212    1.374   .     S
C13    N44     1.361   .     A
C13    H41     1.082   .     S
C13    C83     1.417   .     S
C14    H42     1.082   .     S
C14    N43     1.361   .     A
C14    C152    1.417   1_455 S
C15    Cl67    1.753   .     S
C15    N43     1.376   .     A
C15    C149    1.417   1_455 S
C16    Cl68    1.752   .     S
C16    N44     1.376   .     A
C16    C82     1.417   .     S
C17    O51     1.296   .     A
C17    O49     1.296   .     A
C17    C19     1.454   .     S
C18    O52     1.295   .     A
C18    O50     1.297   .     A
C18    C20     1.454   .     S
C19    C23     1.397   .     A
C19    C25     1.387   .     A
C20    C24     1.397   .     A
C20    C26     1.389   .     A
C21    C23     1.395   .     A
C21    H37     1.081   .     S
C21    C29     1.412   .     A
C22    C30     1.412   .     A
C22    C24     1.395   .     A
C22    H38     1.081   .     S
C23    H36     1.083   .     S
C24    H35     1.083   .     S
C25    H34     1.082   .     S
C25    C27     1.392   .     A
C26    H33     1.081   .     S
C26    C28     1.392   .     A
C27    C29     1.415   .     A
C27    C31     1.413   .     A
C28    C30     1.418   .     A
C28    C32     1.417   .     A
C29    C617    1.403   .     S
C30    C618    1.404   1_554 S
C31    C644    1.410   .     S
C32    C643    1.410   1_554 S
N43    Zn53    2.021   .     S
N44    Zn54    2.021   .     S
O45    Zn53    1.979   .     S
O46    Zn54    1.979   .     S
O47    Zn54    1.987   .     S
O48    Zn53    1.987   .     S
O49    Zn53    1.977   .     S
O50    Zn54    1.977   .     S
O51    Zn54    1.933   .     S
O52    Zn53    1.933   .     S
C57    O58     1.221   .     D
C57    O59     1.398   .     S
O59    H60     1.014   .     S
C61    O63     1.396   .     S
C61    O62     1.224   .     D
O63    H64     1.014   .     S
C69    O113    1.283   .     A
C69    C80     1.407   .     S
C69    O115    1.284   .     A
C70    O114    1.283   .     A
C70    C79     1.406   .     S
C70    O116    1.285   .     A
C71    C73     1.413   .     A
C71    C125    1.493   .     S
C71    C100    1.433   .     A
C72    C99     1.430   .     A
C72    C74     1.409   .     A
C72    C129    1.498   .     S
C73    Cl123   1.773   .     S
C73    C709    1.403   1_554 S
C74    Cl124   1.770   .     S
C74    C710    1.404   .     S
C75    C80     1.393   .     A
C75    H107    1.084   .     S
C75    C281    1.375   .     S
C76    C79     1.393   .     A
C76    H108    1.084   .     S
C76    C486    1.374   1_545 S
C77    Cl133   1.764   .     S
C77    C79     1.400   .     A
C77    C483    1.375   1_545 S
C78    C80     1.400   .     A
C78    Cl134   1.762   .     S
C78    C280    1.374   .     S
C81    N112    1.361   .     A
C81    H109    1.082   .     S
C81    C151    1.417   .     S
C82    H110    1.082   .     S
C82    N111    1.361   .     A
C83    Cl135   1.753   .     S
C83    N111    1.376   .     A
C84    Cl136   1.752   .     S
C84    N112    1.376   .     A
C84    C150    1.417   .     S
C85    O119    1.296   .     A
C85    O117    1.296   .     A
C85    C87     1.454   .     S
C86    O120    1.295   .     A
C86    O118    1.297   .     A
C86    C88     1.454   .     S
C87    C91     1.397   .     A
C87    C93     1.387   .     A
C88    C92     1.397   .     A
C88    C94     1.389   .     A
C89    C91     1.395   .     A
C89    H105    1.081   .     S
C89    C97     1.412   .     A
C90    C98     1.412   .     A
C90    C92     1.395   .     A
C90    H106    1.081   .     S
C91    H104    1.083   .     S
C92    H103    1.083   .     S
C93    H102    1.082   .     S
C93    C95     1.392   .     A
C94    H101    1.081   .     S
C94    C96     1.392   .     A
C95    C97     1.415   .     A
C95    C99     1.413   .     A
C96    C98     1.418   .     A
C96    C100    1.417   .     A
C97    C685    1.403   .     S
C98    C686    1.404   1_554 S
C99    C712    1.410   .     S
C100   C711    1.410   1_554 S
N111   Zn121   2.021   .     S
N112   Zn122   2.021   .     S
O113   Zn121   1.979   .     S
O114   Zn122   1.979   .     S
O115   Zn122   1.987   .     S
O116   Zn121   1.987   .     S
O117   Zn121   1.977   .     S
O118   Zn122   1.977   .     S
O119   Zn122   1.933   .     S
O120   Zn121   1.933   .     S
C125   O126    1.221   .     D
C125   O127    1.398   .     S
O127   H128    1.014   .     S
C129   O131    1.396   .     S
C129   O130    1.224   .     D
O131   H132    1.014   .     S
C137   O181    1.283   .     A
C137   C148    1.407   .     S
C137   O183    1.284   .     A
C138   O182    1.283   .     A
C138   C147    1.406   .     S
C138   O184    1.285   .     A
C139   C141    1.413   .     A
C139   C193    1.493   .     S
C139   C168    1.433   .     A
C140   C167    1.430   .     A
C140   C142    1.409   .     A
C140   C197    1.498   .     S
C141   Cl191   1.773   .     S
C141   C777    1.403   1_554 S
C142   Cl192   1.770   .     S
C142   C778    1.404   .     S
C143   C148    1.393   .     A
C143   H175    1.084   .     S
C143   C349    1.375   .     S
C144   C147    1.393   .     A
C144   H176    1.084   .     S
C144   C554    1.374   1_545 S
C145   Cl201   1.764   .     S
C145   C147    1.400   .     A
C145   C551    1.375   1_545 S
C146   C148    1.400   .     A
C146   Cl202   1.762   .     S
C146   C348    1.374   .     S
C149   N180    1.361   .     A
C149   H177    1.082   .     S
C149   C15     1.417   1_655 S
C150   H178    1.082   .     S
C150   N179    1.361   .     A
C151   Cl203   1.753   .     S
C151   N179    1.376   .     A
C152   Cl204   1.752   .     S
C152   N180    1.376   .     A
C152   C14     1.417   1_655 S
C153   O187    1.296   .     A
C153   O185    1.296   .     A
C153   C155    1.454   .     S
C154   O188    1.295   .     A
C154   O186    1.297   .     A
C154   C156    1.454   .     S
C155   C159    1.397   .     A
C155   C161    1.387   .     A
C156   C160    1.397   .     A
C156   C162    1.389   .     A
C157   C159    1.395   .     A
C157   H173    1.081   .     S
C157   C165    1.412   .     A
C158   C166    1.412   .     A
C158   C160    1.395   .     A
C158   H174    1.081   .     S
C159   H172    1.083   .     S
C160   H171    1.083   .     S
C161   H170    1.082   .     S
C161   C163    1.392   .     A
C162   H169    1.081   .     S
C162   C164    1.392   .     A
C163   C165    1.415   .     A
C163   C167    1.413   .     A
C164   C166    1.418   .     A
C164   C168    1.417   .     A
C165   C753    1.403   .     S
C166   C754    1.404   1_554 S
C167   C780    1.410   .     S
C168   C779    1.410   1_554 S
N179   Zn189   2.021   .     S
N180   Zn190   2.021   .     S
O181   Zn189   1.979   .     S
O182   Zn190   1.979   .     S
O183   Zn190   1.987   .     S
O184   Zn189   1.987   .     S
O185   Zn189   1.977   .     S
O186   Zn190   1.977   .     S
O187   Zn190   1.933   .     S
O188   Zn189   1.933   .     S
C193   O194    1.221   .     D
C193   O195    1.398   .     S
O195   H196    1.014   .     S
C197   O199    1.396   .     S
C197   O198    1.224   .     D
O199   H200    1.014   .     S
C205   O249    1.283   .     A
C205   C216    1.407   .     S
C205   O251    1.284   .     A
C206   O250    1.283   .     A
C206   C215    1.406   .     S
C206   O252    1.285   .     A
C207   C209    1.413   .     A
C207   C261    1.493   .     S
C207   C236    1.433   .     A
C208   C235    1.430   .     A
C208   C210    1.409   .     A
C208   C265    1.498   .     S
C209   Cl259   1.773   .     S
C209   C845    1.403   1_554 S
C210   Cl260   1.770   .     S
C210   C846    1.404   .     S
C211   C216    1.393   .     A
C211   H243    1.084   .     S
C211   C417    1.375   .     S
C212   C215    1.393   .     A
C212   H244    1.084   .     S
C213   Cl269   1.764   .     S
C213   C215    1.400   .     A
C214   C216    1.400   .     A
C214   Cl270   1.762   .     S
C214   C416    1.374   .     S
C217   N248    1.361   .     A
C217   H245    1.082   .     S
C217   C287    1.417   .     S
C218   H246    1.082   .     S
C218   N247    1.361   .     A
C218   C356    1.417   1_455 S
C219   Cl271   1.753   .     S
C219   N247    1.376   .     A
C219   C353    1.417   1_455 S
C220   Cl272   1.752   .     S
C220   N248    1.376   .     A
C220   C286    1.417   .     S
C221   O255    1.296   .     A
C221   O253    1.296   .     A
C221   C223    1.454   .     S
C222   O256    1.295   .     A
C222   O254    1.297   .     A
C222   C224    1.454   .     S
C223   C227    1.397   .     A
C223   C229    1.387   .     A
C224   C228    1.397   .     A
C224   C230    1.389   .     A
C225   C227    1.395   .     A
C225   H241    1.081   .     S
C225   C233    1.412   .     A
C226   C234    1.412   .     A
C226   C228    1.395   .     A
C226   H242    1.081   .     S
C227   H240    1.083   .     S
C228   H239    1.083   .     S
C229   H238    1.082   .     S
C229   C231    1.392   .     A
C230   H237    1.081   .     S
C230   C232    1.392   .     A
C231   C233    1.415   .     A
C231   C235    1.413   .     A
C232   C234    1.418   .     A
C232   C236    1.417   .     A
C233   C821    1.403   .     S
C234   C822    1.404   1_554 S
C235   C848    1.410   .     S
C236   C847    1.410   1_554 S
N247   Zn257   2.021   .     S
N248   Zn258   2.021   .     S
O249   Zn257   1.979   .     S
O250   Zn258   1.979   .     S
O251   Zn258   1.987   .     S
O252   Zn257   1.987   .     S
O253   Zn257   1.977   .     S
O254   Zn258   1.977   .     S
O255   Zn258   1.933   .     S
O256   Zn257   1.933   .     S
C261   O262    1.221   .     D
C261   O263    1.398   .     S
O263   H264    1.014   .     S
C265   O267    1.396   .     S
C265   O266    1.224   .     D
O267   H268    1.014   .     S
C273   O317    1.283   .     A
C273   C284    1.407   .     S
C273   O319    1.284   .     A
C274   O318    1.283   .     A
C274   C283    1.406   .     S
C274   O320    1.285   .     A
C275   C277    1.413   .     A
C275   C329    1.493   .     S
C275   C304    1.433   .     A
C276   C303    1.430   .     A
C276   C278    1.409   .     A
C276   C333    1.498   .     S
C277   Cl327   1.773   .     S
C277   C913    1.403   1_554 S
C278   Cl328   1.770   .     S
C278   C914    1.404   .     S
C279   C284    1.393   .     A
C279   H311    1.084   .     S
C279   C485    1.375   .     S
C280   C283    1.393   .     A
C280   H312    1.084   .     S
C281   Cl337   1.764   .     S
C281   C283    1.400   .     A
C282   C284    1.400   .     A
C282   Cl338   1.762   .     S
C282   C484    1.374   .     S
C285   N316    1.361   .     A
C285   H313    1.082   .     S
C285   C355    1.417   .     S
C286   H314    1.082   .     S
C286   N315    1.361   .     A
C287   Cl339   1.753   .     S
C287   N315    1.376   .     A
C288   Cl340   1.752   .     S
C288   N316    1.376   .     A
C288   C354    1.417   .     S
C289   O323    1.296   .     A
C289   O321    1.296   .     A
C289   C291    1.454   .     S
C290   O324    1.295   .     A
C290   O322    1.297   .     A
C290   C292    1.454   .     S
C291   C295    1.397   .     A
C291   C297    1.387   .     A
C292   C296    1.397   .     A
C292   C298    1.389   .     A
C293   C295    1.395   .     A
C293   H309    1.081   .     S
C293   C301    1.412   .     A
C294   C302    1.412   .     A
C294   C296    1.395   .     A
C294   H310    1.081   .     S
C295   H308    1.083   .     S
C296   H307    1.083   .     S
C297   H306    1.082   .     S
C297   C299    1.392   .     A
C298   H305    1.081   .     S
C298   C300    1.392   .     A
C299   C301    1.415   .     A
C299   C303    1.413   .     A
C300   C302    1.418   .     A
C300   C304    1.417   .     A
C301   C889    1.403   .     S
C302   C890    1.404   1_554 S
C303   C916    1.410   .     S
C304   C915    1.410   1_554 S
N315   Zn325   2.021   .     S
N316   Zn326   2.021   .     S
O317   Zn325   1.979   .     S
O318   Zn326   1.979   .     S
O319   Zn326   1.987   .     S
O320   Zn325   1.987   .     S
O321   Zn325   1.977   .     S
O322   Zn326   1.977   .     S
O323   Zn326   1.933   .     S
O324   Zn325   1.933   .     S
C329   O330    1.221   .     D
C329   O331    1.398   .     S
O331   H332    1.014   .     S
C333   O335    1.396   .     S
C333   O334    1.224   .     D
O335   H336    1.014   .     S
C341   O385    1.283   .     A
C341   C352    1.407   .     S
C341   O387    1.284   .     A
C342   O386    1.283   .     A
C342   C351    1.406   .     S
C342   O388    1.285   .     A
C343   C345    1.413   .     A
C343   C397    1.493   .     S
C343   C372    1.433   .     A
C344   C371    1.430   .     A
C344   C346    1.409   .     A
C344   C401    1.498   .     S
C345   Cl395   1.773   .     S
C345   C981    1.403   1_554 S
C346   Cl396   1.770   .     S
C346   C982    1.404   .     S
C347   C352    1.393   .     A
C347   H379    1.084   .     S
C347   C553    1.375   .     S
C348   C351    1.393   .     A
C348   H380    1.084   .     S
C349   Cl405   1.764   .     S
C349   C351    1.400   .     A
C350   C352    1.400   .     A
C350   Cl406   1.762   .     S
C350   C552    1.374   .     S
C353   N384    1.361   .     A
C353   H381    1.082   .     S
C353   C219    1.417   1_655 S
C354   H382    1.082   .     S
C354   N383    1.361   .     A
C355   Cl407   1.753   .     S
C355   N383    1.376   .     A
C356   Cl408   1.752   .     S
C356   N384    1.376   .     A
C356   C218    1.417   1_655 S
C357   O391    1.296   .     A
C357   O389    1.296   .     A
C357   C359    1.454   .     S
C358   O392    1.295   .     A
C358   O390    1.297   .     A
C358   C360    1.454   .     S
C359   C363    1.397   .     A
C359   C365    1.387   .     A
C360   C364    1.397   .     A
C360   C366    1.389   .     A
C361   C363    1.395   .     A
C361   H377    1.081   .     S
C361   C369    1.412   .     A
C362   C370    1.412   .     A
C362   C364    1.395   .     A
C362   H378    1.081   .     S
C363   H376    1.083   .     S
C364   H375    1.083   .     S
C365   H374    1.082   .     S
C365   C367    1.392   .     A
C366   H373    1.081   .     S
C366   C368    1.392   .     A
C367   C369    1.415   .     A
C367   C371    1.413   .     A
C368   C370    1.418   .     A
C368   C372    1.417   .     A
C369   C957    1.403   .     S
C370   C958    1.404   1_554 S
C371   C984    1.410   .     S
C372   C983    1.410   1_554 S
N383   Zn393   2.021   .     S
N384   Zn394   2.021   .     S
O385   Zn393   1.979   .     S
O386   Zn394   1.979   .     S
O387   Zn394   1.987   .     S
O388   Zn393   1.987   .     S
O389   Zn393   1.977   .     S
O390   Zn394   1.977   .     S
O391   Zn394   1.933   .     S
O392   Zn393   1.933   .     S
C397   O398    1.221   .     D
C397   O399    1.398   .     S
O399   H400    1.014   .     S
C401   O403    1.396   .     S
C401   O402    1.224   .     D
O403   H404    1.014   .     S
C409   O453    1.283   .     A
C409   C420    1.407   .     S
C409   O455    1.284   .     A
C410   O454    1.283   .     A
C410   C419    1.406   .     S
C410   O456    1.285   .     A
C411   C413    1.413   .     A
C411   C465    1.493   .     S
C411   C440    1.433   .     A
C412   C439    1.430   .     A
C412   C414    1.409   .     A
C412   C469    1.498   .     S
C413   Cl463   1.773   .     S
C413   C1049   1.403   1_554 S
C414   Cl464   1.770   .     S
C414   C1050   1.404   .     S
C415   C420    1.393   .     A
C415   H447    1.084   .     S
C415   C9      1.375   1_565 S
C416   C419    1.393   .     A
C416   H448    1.084   .     S
C417   Cl473   1.764   .     S
C417   C419    1.400   .     A
C418   C420    1.400   .     A
C418   Cl474   1.762   .     S
C418   C8      1.374   1_565 S
C421   N452    1.361   .     A
C421   H449    1.082   .     S
C421   C491    1.417   .     S
C422   H450    1.082   .     S
C422   N451    1.361   .     A
C422   C560    1.417   1_455 S
C423   Cl475   1.753   .     S
C423   N451    1.376   .     A
C423   C557    1.417   1_455 S
C424   Cl476   1.752   .     S
C424   N452    1.376   .     A
C424   C490    1.417   .     S
C425   O459    1.296   .     A
C425   O457    1.296   .     A
C425   C427    1.454   .     S
C426   O460    1.295   .     A
C426   O458    1.297   .     A
C426   C428    1.454   .     S
C427   C431    1.397   .     A
C427   C433    1.387   .     A
C428   C432    1.397   .     A
C428   C434    1.389   .     A
C429   C431    1.395   .     A
C429   H445    1.081   .     S
C429   C437    1.412   .     A
C430   C438    1.412   .     A
C430   C432    1.395   .     A
C430   H446    1.081   .     S
C431   H444    1.083   .     S
C432   H443    1.083   .     S
C433   H442    1.082   .     S
C433   C435    1.392   .     A
C434   H441    1.081   .     S
C434   C436    1.392   .     A
C435   C437    1.415   .     A
C435   C439    1.413   .     A
C436   C438    1.418   .     A
C436   C440    1.417   .     A
C437   C1025   1.403   .     S
C438   C1026   1.404   1_554 S
C439   C1052   1.410   .     S
C440   C1051   1.410   1_554 S
N451   Zn461   2.021   .     S
N452   Zn462   2.021   .     S
O453   Zn461   1.979   .     S
O454   Zn462   1.979   .     S
O455   Zn462   1.987   .     S
O456   Zn461   1.987   .     S
O457   Zn461   1.977   .     S
O458   Zn462   1.977   .     S
O459   Zn462   1.933   .     S
O460   Zn461   1.933   .     S
C465   O466    1.221   .     D
C465   O467    1.398   .     S
O467   H468    1.014   .     S
C469   O471    1.396   .     S
C469   O470    1.224   .     D
O471   H472    1.014   .     S
C477   O521    1.283   .     A
C477   C488    1.407   .     S
C477   O523    1.284   .     A
C478   O522    1.283   .     A
C478   C487    1.406   .     S
C478   O524    1.285   .     A
C479   C481    1.413   .     A
C479   C533    1.493   .     S
C479   C508    1.433   .     A
C480   C507    1.430   .     A
C480   C482    1.409   .     A
C480   C537    1.498   .     S
C481   Cl531   1.773   .     S
C481   C1117   1.403   1_554 S
C482   Cl532   1.770   .     S
C482   C1118   1.404   .     S
C483   C488    1.393   .     A
C483   H515    1.084   .     S
C483   C77     1.375   1_565 S
C484   C487    1.393   .     A
C484   H516    1.084   .     S
C485   Cl541   1.764   .     S
C485   C487    1.400   .     A
C486   C488    1.400   .     A
C486   Cl542   1.762   .     S
C486   C76     1.374   1_565 S
C489   N520    1.361   .     A
C489   H517    1.082   .     S
C489   C559    1.417   .     S
C490   H518    1.082   .     S
C490   N519    1.361   .     A
C491   Cl543   1.753   .     S
C491   N519    1.376   .     A
C492   Cl544   1.752   .     S
C492   N520    1.376   .     A
C492   C558    1.417   .     S
C493   O527    1.296   .     A
C493   O525    1.296   .     A
C493   C495    1.454   .     S
C494   O528    1.295   .     A
C494   O526    1.297   .     A
C494   C496    1.454   .     S
C495   C499    1.397   .     A
C495   C501    1.387   .     A
C496   C500    1.397   .     A
C496   C502    1.389   .     A
C497   C499    1.395   .     A
C497   H513    1.081   .     S
C497   C505    1.412   .     A
C498   C506    1.412   .     A
C498   C500    1.395   .     A
C498   H514    1.081   .     S
C499   H512    1.083   .     S
C500   H511    1.083   .     S
C501   H510    1.082   .     S
C501   C503    1.392   .     A
C502   H509    1.081   .     S
C502   C504    1.392   .     A
C503   C505    1.415   .     A
C503   C507    1.413   .     A
C504   C506    1.418   .     A
C504   C508    1.417   .     A
C505   C1093   1.403   .     S
C506   C1094   1.404   1_554 S
C507   C1120   1.410   .     S
C508   C1119   1.410   1_554 S
N519   Zn529   2.021   .     S
N520   Zn530   2.021   .     S
O521   Zn529   1.979   .     S
O522   Zn530   1.979   .     S
O523   Zn530   1.987   .     S
O524   Zn529   1.987   .     S
O525   Zn529   1.977   .     S
O526   Zn530   1.977   .     S
O527   Zn530   1.933   .     S
O528   Zn529   1.933   .     S
C533   O534    1.221   .     D
C533   O535    1.398   .     S
O535   H536    1.014   .     S
C537   O539    1.396   .     S
C537   O538    1.224   .     D
O539   H540    1.014   .     S
C545   O589    1.283   .     A
C545   C556    1.407   .     S
C545   O591    1.284   .     A
C546   O590    1.283   .     A
C546   C555    1.406   .     S
C546   O592    1.285   .     A
C547   C549    1.413   .     A
C547   C601    1.493   .     S
C547   C576    1.433   .     A
C548   C575    1.430   .     A
C548   C550    1.409   .     A
C548   C605    1.498   .     S
C549   Cl599   1.773   .     S
C549   C1185   1.403   1_554 S
C550   Cl600   1.770   .     S
C550   C1186   1.404   .     S
C551   C556    1.393   .     A
C551   H583    1.084   .     S
C551   C145    1.375   1_565 S
C552   C555    1.393   .     A
C552   H584    1.084   .     S
C553   Cl609   1.764   .     S
C553   C555    1.400   .     A
C554   C556    1.400   .     A
C554   Cl610   1.762   .     S
C554   C144    1.374   1_565 S
C557   N588    1.361   .     A
C557   H585    1.082   .     S
C557   C423    1.417   1_655 S
C558   H586    1.082   .     S
C558   N587    1.361   .     A
C559   Cl611   1.753   .     S
C559   N587    1.376   .     A
C560   Cl612   1.752   .     S
C560   N588    1.376   .     A
C560   C422    1.417   1_655 S
C561   O595    1.296   .     A
C561   O593    1.296   .     A
C561   C563    1.454   .     S
C562   O596    1.295   .     A
C562   O594    1.297   .     A
C562   C564    1.454   .     S
C563   C567    1.397   .     A
C563   C569    1.387   .     A
C564   C568    1.397   .     A
C564   C570    1.389   .     A
C565   C567    1.395   .     A
C565   H581    1.081   .     S
C565   C573    1.412   .     A
C566   C574    1.412   .     A
C566   C568    1.395   .     A
C566   H582    1.081   .     S
C567   H580    1.083   .     S
C568   H579    1.083   .     S
C569   H578    1.082   .     S
C569   C571    1.392   .     A
C570   H577    1.081   .     S
C570   C572    1.392   .     A
C571   C573    1.415   .     A
C571   C575    1.413   .     A
C572   C574    1.418   .     A
C572   C576    1.417   .     A
C573   C1161   1.403   .     S
C574   C1162   1.404   1_554 S
C575   C1188   1.410   .     S
C576   C1187   1.410   1_554 S
N587   Zn597   2.021   .     S
N588   Zn598   2.021   .     S
O589   Zn597   1.979   .     S
O590   Zn598   1.979   .     S
O591   Zn598   1.987   .     S
O592   Zn597   1.987   .     S
O593   Zn597   1.977   .     S
O594   Zn598   1.977   .     S
O595   Zn598   1.933   .     S
O596   Zn597   1.933   .     S
C601   O602    1.221   .     D
C601   O603    1.398   .     S
O603   H604    1.014   .     S
C605   O607    1.396   .     S
C605   O606    1.224   .     D
O607   H608    1.014   .     S
C613   O657    1.283   .     A
C613   C624    1.407   .     S
C613   O659    1.284   .     A
C614   O658    1.283   .     A
C614   C623    1.406   .     S
C614   O660    1.285   .     A
C615   C617    1.413   .     A
C615   C669    1.493   .     S
C615   C644    1.433   .     A
C616   C643    1.430   .     A
C616   C618    1.409   .     A
C616   C673    1.498   .     S
C617   Cl667   1.773   .     S
C618   Cl668   1.770   .     S
C618   C30     1.404   1_556 S
C619   C624    1.393   .     A
C619   H651    1.084   .     S
C619   C825    1.375   .     S
C620   C623    1.393   .     A
C620   H652    1.084   .     S
C620   C1030   1.374   1_545 S
C621   Cl677   1.764   .     S
C621   C623    1.400   .     A
C621   C1027   1.375   1_545 S
C622   C624    1.400   .     A
C622   Cl678   1.762   .     S
C622   C824    1.374   .     S
C625   N656    1.361   .     A
C625   H653    1.082   .     S
C625   C695    1.417   .     S
C626   H654    1.082   .     S
C626   N655    1.361   .     A
C626   C764    1.417   1_455 S
C627   Cl679   1.753   .     S
C627   N655    1.376   .     A
C627   C761    1.417   1_455 S
C628   Cl680   1.752   .     S
C628   N656    1.376   .     A
C628   C694    1.417   .     S
C629   O663    1.296   .     A
C629   O661    1.296   .     A
C629   C631    1.454   .     S
C630   O664    1.295   .     A
C630   O662    1.297   .     A
C630   C632    1.454   .     S
C631   C635    1.397   .     A
C631   C637    1.387   .     A
C632   C636    1.397   .     A
C632   C638    1.389   .     A
C633   C635    1.395   .     A
C633   H649    1.081   .     S
C633   C641    1.412   .     A
C634   C642    1.412   .     A
C634   C636    1.395   .     A
C634   H650    1.081   .     S
C635   H648    1.083   .     S
C636   H647    1.083   .     S
C637   H646    1.082   .     S
C637   C639    1.392   .     A
C638   H645    1.081   .     S
C638   C640    1.392   .     A
C639   C641    1.415   .     A
C639   C643    1.413   .     A
C640   C642    1.418   .     A
C640   C644    1.417   .     A
C641   C5      1.403   1_556 S
C643   C32     1.410   1_556 S
N655   Zn665   2.021   .     S
N656   Zn666   2.021   .     S
O657   Zn665   1.979   .     S
O658   Zn666   1.979   .     S
O659   Zn666   1.987   .     S
O660   Zn665   1.987   .     S
O661   Zn665   1.977   .     S
O662   Zn666   1.977   .     S
O663   Zn666   1.933   .     S
O664   Zn665   1.933   .     S
C669   O670    1.221   .     D
C669   O671    1.398   .     S
O671   H672    1.014   .     S
C673   O675    1.396   .     S
C673   O674    1.224   .     D
O675   H676    1.014   .     S
C681   O725    1.283   .     A
C681   C692    1.407   .     S
C681   O727    1.284   .     A
C682   O726    1.283   .     A
C682   C691    1.406   .     S
C682   O728    1.285   .     A
C683   C685    1.413   .     A
C683   C737    1.493   .     S
C683   C712    1.433   .     A
C684   C711    1.430   .     A
C684   C686    1.409   .     A
C684   C741    1.498   .     S
C685   Cl735   1.773   .     S
C686   Cl736   1.770   .     S
C686   C98     1.404   1_556 S
C687   C692    1.393   .     A
C687   H719    1.084   .     S
C687   C893    1.375   .     S
C688   C691    1.393   .     A
C688   H720    1.084   .     S
C688   C1098   1.374   1_545 S
C689   Cl745   1.764   .     S
C689   C691    1.400   .     A
C689   C1095   1.375   1_545 S
C690   C692    1.400   .     A
C690   Cl746   1.762   .     S
C690   C892    1.374   .     S
C693   N724    1.361   .     A
C693   H721    1.082   .     S
C693   C763    1.417   .     S
C694   H722    1.082   .     S
C694   N723    1.361   .     A
C695   Cl747   1.753   .     S
C695   N723    1.376   .     A
C696   Cl748   1.752   .     S
C696   N724    1.376   .     A
C696   C762    1.417   .     S
C697   O731    1.296   .     A
C697   O729    1.296   .     A
C697   C699    1.454   .     S
C698   O732    1.295   .     A
C698   O730    1.297   .     A
C698   C700    1.454   .     S
C699   C703    1.397   .     A
C699   C705    1.387   .     A
C700   C704    1.397   .     A
C700   C706    1.389   .     A
C701   C703    1.395   .     A
C701   H717    1.081   .     S
C701   C709    1.412   .     A
C702   C710    1.412   .     A
C702   C704    1.395   .     A
C702   H718    1.081   .     S
C703   H716    1.083   .     S
C704   H715    1.083   .     S
C705   H714    1.082   .     S
C705   C707    1.392   .     A
C706   H713    1.081   .     S
C706   C708    1.392   .     A
C707   C709    1.415   .     A
C707   C711    1.413   .     A
C708   C710    1.418   .     A
C708   C712    1.417   .     A
C709   C73     1.403   1_556 S
C711   C100    1.410   1_556 S
N723   Zn733   2.021   .     S
N724   Zn734   2.021   .     S
O725   Zn733   1.979   .     S
O726   Zn734   1.979   .     S
O727   Zn734   1.987   .     S
O728   Zn733   1.987   .     S
O729   Zn733   1.977   .     S
O730   Zn734   1.977   .     S
O731   Zn734   1.933   .     S
O732   Zn733   1.933   .     S
C737   O738    1.221   .     D
C737   O739    1.398   .     S
O739   H740    1.014   .     S
C741   O743    1.396   .     S
C741   O742    1.224   .     D
O743   H744    1.014   .     S
C749   O793    1.283   .     A
C749   C760    1.407   .     S
C749   O795    1.284   .     A
C750   O794    1.283   .     A
C750   C759    1.406   .     S
C750   O796    1.285   .     A
C751   C753    1.413   .     A
C751   C805    1.493   .     S
C751   C780    1.433   .     A
C752   C779    1.430   .     A
C752   C754    1.409   .     A
C752   C809    1.498   .     S
C753   Cl803   1.773   .     S
C754   Cl804   1.770   .     S
C754   C166    1.404   1_556 S
C755   C760    1.393   .     A
C755   H787    1.084   .     S
C755   C961    1.375   .     S
C756   C759    1.393   .     A
C756   H788    1.084   .     S
C756   C1166   1.374   1_545 S
C757   Cl813   1.764   .     S
C757   C759    1.400   .     A
C757   C1163   1.375   1_545 S
C758   C760    1.400   .     A
C758   Cl814   1.762   .     S
C758   C960    1.374   .     S
C761   N792    1.361   .     A
C761   H789    1.082   .     S
C761   C627    1.417   1_655 S
C762   H790    1.082   .     S
C762   N791    1.361   .     A
C763   Cl815   1.753   .     S
C763   N791    1.376   .     A
C764   Cl816   1.752   .     S
C764   N792    1.376   .     A
C764   C626    1.417   1_655 S
C765   O799    1.296   .     A
C765   O797    1.296   .     A
C765   C767    1.454   .     S
C766   O800    1.295   .     A
C766   O798    1.297   .     A
C766   C768    1.454   .     S
C767   C771    1.397   .     A
C767   C773    1.387   .     A
C768   C772    1.397   .     A
C768   C774    1.389   .     A
C769   C771    1.395   .     A
C769   H785    1.081   .     S
C769   C777    1.412   .     A
C770   C778    1.412   .     A
C770   C772    1.395   .     A
C770   H786    1.081   .     S
C771   H784    1.083   .     S
C772   H783    1.083   .     S
C773   H782    1.082   .     S
C773   C775    1.392   .     A
C774   H781    1.081   .     S
C774   C776    1.392   .     A
C775   C777    1.415   .     A
C775   C779    1.413   .     A
C776   C778    1.418   .     A
C776   C780    1.417   .     A
C777   C141    1.403   1_556 S
C779   C168    1.410   1_556 S
N791   Zn801   2.021   .     S
N792   Zn802   2.021   .     S
O793   Zn801   1.979   .     S
O794   Zn802   1.979   .     S
O795   Zn802   1.987   .     S
O796   Zn801   1.987   .     S
O797   Zn801   1.977   .     S
O798   Zn802   1.977   .     S
O799   Zn802   1.933   .     S
O800   Zn801   1.933   .     S
C805   O806    1.221   .     D
C805   O807    1.398   .     S
O807   H808    1.014   .     S
C809   O811    1.396   .     S
C809   O810    1.224   .     D
O811   H812    1.014   .     S
C817   O861    1.283   .     A
C817   C828    1.407   .     S
C817   O863    1.284   .     A
C818   O862    1.283   .     A
C818   C827    1.406   .     S
C818   O864    1.285   .     A
C819   C821    1.413   .     A
C819   C873    1.493   .     S
C819   C848    1.433   .     A
C820   C847    1.430   .     A
C820   C822    1.409   .     A
C820   C877    1.498   .     S
C821   Cl871   1.773   .     S
C822   Cl872   1.770   .     S
C822   C234    1.404   1_556 S
C823   C828    1.393   .     A
C823   H855    1.084   .     S
C823   C1029   1.375   .     S
C824   C827    1.393   .     A
C824   H856    1.084   .     S
C825   Cl881   1.764   .     S
C825   C827    1.400   .     A
C826   C828    1.400   .     A
C826   Cl882   1.762   .     S
C826   C1028   1.374   .     S
C829   N860    1.361   .     A
C829   H857    1.082   .     S
C829   C899    1.417   .     S
C830   H858    1.082   .     S
C830   N859    1.361   .     A
C830   C968    1.417   1_455 S
C831   Cl883   1.753   .     S
C831   N859    1.376   .     A
C831   C965    1.417   1_455 S
C832   Cl884   1.752   .     S
C832   N860    1.376   .     A
C832   C898    1.417   .     S
C833   O867    1.296   .     A
C833   O865    1.296   .     A
C833   C835    1.454   .     S
C834   O868    1.295   .     A
C834   O866    1.297   .     A
C834   C836    1.454   .     S
C835   C839    1.397   .     A
C835   C841    1.387   .     A
C836   C840    1.397   .     A
C836   C842    1.389   .     A
C837   C839    1.395   .     A
C837   H853    1.081   .     S
C837   C845    1.412   .     A
C838   C846    1.412   .     A
C838   C840    1.395   .     A
C838   H854    1.081   .     S
C839   H852    1.083   .     S
C840   H851    1.083   .     S
C841   H850    1.082   .     S
C841   C843    1.392   .     A
C842   H849    1.081   .     S
C842   C844    1.392   .     A
C843   C845    1.415   .     A
C843   C847    1.413   .     A
C844   C846    1.418   .     A
C844   C848    1.417   .     A
C845   C209    1.403   1_556 S
C847   C236    1.410   1_556 S
N859   Zn869   2.021   .     S
N860   Zn870   2.021   .     S
O861   Zn869   1.979   .     S
O862   Zn870   1.979   .     S
O863   Zn870   1.987   .     S
O864   Zn869   1.987   .     S
O865   Zn869   1.977   .     S
O866   Zn870   1.977   .     S
O867   Zn870   1.933   .     S
O868   Zn869   1.933   .     S
C873   O874    1.221   .     D
C873   O875    1.398   .     S
O875   H876    1.014   .     S
C877   O879    1.396   .     S
C877   O878    1.224   .     D
O879   H880    1.014   .     S
C885   O929    1.283   .     A
C885   C896    1.407   .     S
C885   O931    1.284   .     A
C886   O930    1.283   .     A
C886   C895    1.406   .     S
C886   O932    1.285   .     A
C887   C889    1.413   .     A
C887   C941    1.493   .     S
C887   C916    1.433   .     A
C888   C915    1.430   .     A
C888   C890    1.409   .     A
C888   C945    1.498   .     S
C889   Cl939   1.773   .     S
C890   Cl940   1.770   .     S
C890   C302    1.404   1_556 S
C891   C896    1.393   .     A
C891   H923    1.084   .     S
C891   C1097   1.375   .     S
C892   C895    1.393   .     A
C892   H924    1.084   .     S
C893   Cl949   1.764   .     S
C893   C895    1.400   .     A
C894   C896    1.400   .     A
C894   Cl950   1.762   .     S
C894   C1096   1.374   .     S
C897   N928    1.361   .     A
C897   H925    1.082   .     S
C897   C967    1.417   .     S
C898   H926    1.082   .     S
C898   N927    1.361   .     A
C899   Cl951   1.753   .     S
C899   N927    1.376   .     A
C900   Cl952   1.752   .     S
C900   N928    1.376   .     A
C900   C966    1.417   .     S
C901   O935    1.296   .     A
C901   O933    1.296   .     A
C901   C903    1.454   .     S
C902   O936    1.295   .     A
C902   O934    1.297   .     A
C902   C904    1.454   .     S
C903   C907    1.397   .     A
C903   C909    1.387   .     A
C904   C908    1.397   .     A
C904   C910    1.389   .     A
C905   C907    1.395   .     A
C905   H921    1.081   .     S
C905   C913    1.412   .     A
C906   C914    1.412   .     A
C906   C908    1.395   .     A
C906   H922    1.081   .     S
C907   H920    1.083   .     S
C908   H919    1.083   .     S
C909   H918    1.082   .     S
C909   C911    1.392   .     A
C910   H917    1.081   .     S
C910   C912    1.392   .     A
C911   C913    1.415   .     A
C911   C915    1.413   .     A
C912   C914    1.418   .     A
C912   C916    1.417   .     A
C913   C277    1.403   1_556 S
C915   C304    1.410   1_556 S
N927   Zn937   2.021   .     S
N928   Zn938   2.021   .     S
O929   Zn937   1.979   .     S
O930   Zn938   1.979   .     S
O931   Zn938   1.987   .     S
O932   Zn937   1.987   .     S
O933   Zn937   1.977   .     S
O934   Zn938   1.977   .     S
O935   Zn938   1.933   .     S
O936   Zn937   1.933   .     S
C941   O942    1.221   .     D
C941   O943    1.398   .     S
O943   H944    1.014   .     S
C945   O947    1.396   .     S
C945   O946    1.224   .     D
O947   H948    1.014   .     S
C953   O997    1.283   .     A
C953   C964    1.407   .     S
C953   O999    1.284   .     A
C954   O998    1.283   .     A
C954   C963    1.406   .     S
C954   O1000   1.285   .     A
C955   C957    1.413   .     A
C955   C1009   1.493   .     S
C955   C984    1.433   .     A
C956   C983    1.430   .     A
C956   C958    1.409   .     A
C956   C1013   1.498   .     S
C957   Cl1007  1.773   .     S
C958   Cl1008  1.770   .     S
C958   C370    1.404   1_556 S
C959   C964    1.393   .     A
C959   H991    1.084   .     S
C959   C1165   1.375   .     S
C960   C963    1.393   .     A
C960   H992    1.084   .     S
C961   Cl1017  1.764   .     S
C961   C963    1.400   .     A
C962   C964    1.400   .     A
C962   Cl1018  1.762   .     S
C962   C1164   1.374   .     S
C965   N996    1.361   .     A
C965   H993    1.082   .     S
C965   C831    1.417   1_655 S
C966   H994    1.082   .     S
C966   N995    1.361   .     A
C967   Cl1019  1.753   .     S
C967   N995    1.376   .     A
C968   Cl1020  1.752   .     S
C968   N996    1.376   .     A
C968   C830    1.417   1_655 S
C969   O1003   1.296   .     A
C969   O1001   1.296   .     A
C969   C971    1.454   .     S
C970   O1004   1.295   .     A
C970   O1002   1.297   .     A
C970   C972    1.454   .     S
C971   C975    1.397   .     A
C971   C977    1.387   .     A
C972   C976    1.397   .     A
C972   C978    1.389   .     A
C973   C975    1.395   .     A
C973   H989    1.081   .     S
C973   C981    1.412   .     A
C974   C982    1.412   .     A
C974   C976    1.395   .     A
C974   H990    1.081   .     S
C975   H988    1.083   .     S
C976   H987    1.083   .     S
C977   H986    1.082   .     S
C977   C979    1.392   .     A
C978   H985    1.081   .     S
C978   C980    1.392   .     A
C979   C981    1.415   .     A
C979   C983    1.413   .     A
C980   C982    1.418   .     A
C980   C984    1.417   .     A
C981   C345    1.403   1_556 S
C983   C372    1.410   1_556 S
N995   Zn1005  2.021   .     S
N996   Zn1006  2.021   .     S
O997   Zn1005  1.979   .     S
O998   Zn1006  1.979   .     S
O999   Zn1006  1.987   .     S
O1000  Zn1005  1.987   .     S
O1001  Zn1005  1.977   .     S
O1002  Zn1006  1.977   .     S
O1003  Zn1006  1.933   .     S
O1004  Zn1005  1.933   .     S
C1009  O1010   1.221   .     D
C1009  O1011   1.398   .     S
O1011  H1012   1.014   .     S
C1013  O1015   1.396   .     S
C1013  O1014   1.224   .     D
O1015  H1016   1.014   .     S
C1021  O1065   1.283   .     A
C1021  C1032   1.407   .     S
C1021  O1067   1.284   .     A
C1022  O1066   1.283   .     A
C1022  C1031   1.406   .     S
C1022  O1068   1.285   .     A
C1023  C1025   1.413   .     A
C1023  C1077   1.493   .     S
C1023  C1052   1.433   .     A
C1024  C1051   1.430   .     A
C1024  C1026   1.409   .     A
C1024  C1081   1.498   .     S
C1025  Cl1075  1.773   .     S
C1026  Cl1076  1.770   .     S
C1026  C438    1.404   1_556 S
C1027  C1032   1.393   .     A
C1027  H1059   1.084   .     S
C1027  C621    1.375   1_565 S
C1028  C1031   1.393   .     A
C1028  H1060   1.084   .     S
C1029  Cl1085  1.764   .     S
C1029  C1031   1.400   .     A
C1030  C1032   1.400   .     A
C1030  Cl1086  1.762   .     S
C1030  C620    1.374   1_565 S
C1033  N1064   1.361   .     A
C1033  H1061   1.082   .     S
C1033  C1103   1.417   .     S
C1034  H1062   1.082   .     S
C1034  N1063   1.361   .     A
C1034  C1172   1.417   1_455 S
C1035  Cl1087  1.753   .     S
C1035  N1063   1.376   .     A
C1035  C1169   1.417   1_455 S
C1036  Cl1088  1.752   .     S
C1036  N1064   1.376   .     A
C1036  C1102   1.417   .     S
C1037  O1071   1.296   .     A
C1037  O1069   1.296   .     A
C1037  C1039   1.454   .     S
C1038  O1072   1.295   .     A
C1038  O1070   1.297   .     A
C1038  C1040   1.454   .     S
C1039  C1043   1.397   .     A
C1039  C1045   1.387   .     A
C1040  C1044   1.397   .     A
C1040  C1046   1.389   .     A
C1041  C1043   1.395   .     A
C1041  H1057   1.081   .     S
C1041  C1049   1.412   .     A
C1042  C1050   1.412   .     A
C1042  C1044   1.395   .     A
C1042  H1058   1.081   .     S
C1043  H1056   1.083   .     S
C1044  H1055   1.083   .     S
C1045  H1054   1.082   .     S
C1045  C1047   1.392   .     A
C1046  H1053   1.081   .     S
C1046  C1048   1.392   .     A
C1047  C1049   1.415   .     A
C1047  C1051   1.413   .     A
C1048  C1050   1.418   .     A
C1048  C1052   1.417   .     A
C1049  C413    1.403   1_556 S
C1051  C440    1.410   1_556 S
N1063  Zn1073  2.021   .     S
N1064  Zn1074  2.021   .     S
O1065  Zn1073  1.979   .     S
O1066  Zn1074  1.979   .     S
O1067  Zn1074  1.987   .     S
O1068  Zn1073  1.987   .     S
O1069  Zn1073  1.977   .     S
O1070  Zn1074  1.977   .     S
O1071  Zn1074  1.933   .     S
O1072  Zn1073  1.933   .     S
C1077  O1078   1.221   .     D
C1077  O1079   1.398   .     S
O1079  H1080   1.014   .     S
C1081  O1083   1.396   .     S
C1081  O1082   1.224   .     D
O1083  H1084   1.014   .     S
C1089  O1133   1.283   .     A
C1089  C1100   1.407   .     S
C1089  O1135   1.284   .     A
C1090  O1134   1.283   .     A
C1090  C1099   1.406   .     S
C1090  O1136   1.285   .     A
C1091  C1093   1.413   .     A
C1091  C1145   1.493   .     S
C1091  C1120   1.433   .     A
C1092  C1119   1.430   .     A
C1092  C1094   1.409   .     A
C1092  C1149   1.498   .     S
C1093  Cl1143  1.773   .     S
C1094  Cl1144  1.770   .     S
C1094  C506    1.404   1_556 S
C1095  C1100   1.393   .     A
C1095  H1127   1.084   .     S
C1095  C689    1.375   1_565 S
C1096  C1099   1.393   .     A
C1096  H1128   1.084   .     S
C1097  Cl1153  1.764   .     S
C1097  C1099   1.400   .     A
C1098  C1100   1.400   .     A
C1098  Cl1154  1.762   .     S
C1098  C688    1.374   1_565 S
C1101  N1132   1.361   .     A
C1101  H1129   1.082   .     S
C1101  C1171   1.417   .     S
C1102  H1130   1.082   .     S
C1102  N1131   1.361   .     A
C1103  Cl1155  1.753   .     S
C1103  N1131   1.376   .     A
C1104  Cl1156  1.752   .     S
C1104  N1132   1.376   .     A
C1104  C1170   1.417   .     S
C1105  O1139   1.296   .     A
C1105  O1137   1.296   .     A
C1105  C1107   1.454   .     S
C1106  O1140   1.295   .     A
C1106  O1138   1.297   .     A
C1106  C1108   1.454   .     S
C1107  C1111   1.397   .     A
C1107  C1113   1.387   .     A
C1108  C1112   1.397   .     A
C1108  C1114   1.389   .     A
C1109  C1111   1.395   .     A
C1109  H1125   1.081   .     S
C1109  C1117   1.412   .     A
C1110  C1118   1.412   .     A
C1110  C1112   1.395   .     A
C1110  H1126   1.081   .     S
C1111  H1124   1.083   .     S
C1112  H1123   1.083   .     S
C1113  H1122   1.082   .     S
C1113  C1115   1.392   .     A
C1114  H1121   1.081   .     S
C1114  C1116   1.392   .     A
C1115  C1117   1.415   .     A
C1115  C1119   1.413   .     A
C1116  C1118   1.418   .     A
C1116  C1120   1.417   .     A
C1117  C481    1.403   1_556 S
C1119  C508    1.410   1_556 S
N1131  Zn1141  2.021   .     S
N1132  Zn1142  2.021   .     S
O1133  Zn1141  1.979   .     S
O1134  Zn1142  1.979   .     S
O1135  Zn1142  1.987   .     S
O1136  Zn1141  1.987   .     S
O1137  Zn1141  1.977   .     S
O1138  Zn1142  1.977   .     S
O1139  Zn1142  1.933   .     S
O1140  Zn1141  1.933   .     S
C1145  O1146   1.221   .     D
C1145  O1147   1.398   .     S
O1147  H1148   1.014   .     S
C1149  O1151   1.396   .     S
C1149  O1150   1.224   .     D
O1151  H1152   1.014   .     S
C1157  O1201   1.283   .     A
C1157  C1168   1.407   .     S
C1157  O1203   1.284   .     A
C1158  O1202   1.283   .     A
C1158  C1167   1.406   .     S
C1158  O1204   1.285   .     A
C1159  C1161   1.413   .     A
C1159  C1213   1.493   .     S
C1159  C1188   1.433   .     A
C1160  C1187   1.430   .     A
C1160  C1162   1.409   .     A
C1160  C1217   1.498   .     S
C1161  Cl1211  1.773   .     S
C1162  Cl1212  1.770   .     S
C1162  C574    1.404   1_556 S
C1163  C1168   1.393   .     A
C1163  H1195   1.084   .     S
C1163  C757    1.375   1_565 S
C1164  C1167   1.393   .     A
C1164  H1196   1.084   .     S
C1165  Cl1221  1.764   .     S
C1165  C1167   1.400   .     A
C1166  C1168   1.400   .     A
C1166  Cl1222  1.762   .     S
C1166  C756    1.374   1_565 S
C1169  N1200   1.361   .     A
C1169  H1197   1.082   .     S
C1169  C1035   1.417   1_655 S
C1170  H1198   1.082   .     S
C1170  N1199   1.361   .     A
C1171  Cl1223  1.753   .     S
C1171  N1199   1.376   .     A
C1172  Cl1224  1.752   .     S
C1172  N1200   1.376   .     A
C1172  C1034   1.417   1_655 S
C1173  O1207   1.296   .     A
C1173  O1205   1.296   .     A
C1173  C1175   1.454   .     S
C1174  O1208   1.295   .     A
C1174  O1206   1.297   .     A
C1174  C1176   1.454   .     S
C1175  C1179   1.397   .     A
C1175  C1181   1.387   .     A
C1176  C1180   1.397   .     A
C1176  C1182   1.389   .     A
C1177  C1179   1.395   .     A
C1177  H1193   1.081   .     S
C1177  C1185   1.412   .     A
C1178  C1186   1.412   .     A
C1178  C1180   1.395   .     A
C1178  H1194   1.081   .     S
C1179  H1192   1.083   .     S
C1180  H1191   1.083   .     S
C1181  H1190   1.082   .     S
C1181  C1183   1.392   .     A
C1182  H1189   1.081   .     S
C1182  C1184   1.392   .     A
C1183  C1185   1.415   .     A
C1183  C1187   1.413   .     A
C1184  C1186   1.418   .     A
C1184  C1188   1.417   .     A
C1185  C549    1.403   1_556 S
C1187  C576    1.410   1_556 S
N1199  Zn1209  2.021   .     S
N1200  Zn1210  2.021   .     S
O1201  Zn1209  1.979   .     S
O1202  Zn1210  1.979   .     S
O1203  Zn1210  1.987   .     S
O1204  Zn1209  1.987   .     S
O1205  Zn1209  1.977   .     S
O1206  Zn1210  1.977   .     S
O1207  Zn1210  1.933   .     S
O1208  Zn1209  1.933   .     S
C1213  O1214   1.221   .     D
C1213  O1215   1.398   .     S
O1215  H1216   1.014   .     S
C1217  O1219   1.396   .     S
C1217  O1218   1.224   .     D
O1219  H1220   1.014   .     S
