data_str_m3_o1_o5_pcu_sym.51
_audit_creation_date              2020-01-03
_audit_creation_method            'Materials Studio'
_symmetry_space_group_name_H-M    'P1'
_symmetry_Int_Tables_number       1
_symmetry_cell_setting            triclinic
loop_
_symmetry_equiv_pos_as_xyz
  x,y,z
_cell_length_a                    32.4741
_cell_length_b                    29.9184
_cell_length_c                    26.5829
_cell_angle_alpha                 89.9057
_cell_angle_beta                  92.8366
_cell_angle_gamma                 90.4033
loop_
_atom_site_label
_atom_site_type_symbol
_atom_site_fract_x
_atom_site_fract_y
_atom_site_fract_z
_atom_site_U_iso_or_equiv
_atom_site_adp_type
_atom_site_occupancy
Br1    Br    0.21503   0.05285   0.25990   0.00000  Uiso   1.00
Br2    Br    0.10888   0.27768   0.08221   0.00000  Uiso   1.00
Br3    Br    0.11621   0.05331   0.07480   0.00000  Uiso   1.00
Br4    Br    0.22645   0.27830   0.24885   0.00000  Uiso   1.00
C5     C     0.08665   0.16665   0.16660   0.00000  Uiso   1.00
C6     C     0.02153   0.20856   0.16939   0.00000  Uiso   1.00
C7     C     0.29085   0.16843   0.17248   0.00000  Uiso   1.00
C8     C     0.04233   0.16726   0.16820   0.00000  Uiso   1.00
C9     C     0.18828   0.02359   0.20336   0.00000  Uiso   1.00
C10    C     0.14370   0.30922   0.13108   0.00000  Uiso   1.00
C11    C     0.14500   0.02354   0.12987   0.00000  Uiso   1.00
C12    C     0.18995   0.30941   0.20183   0.00000  Uiso   1.00
C13    C     0.01883   0.06412   0.12306   0.00000  Uiso   1.00
C14    C     0.02534   0.01409   0.12710   0.00000  Uiso   1.00
C15    C     0.28826   0.25302   0.09954   0.00000  Uiso   1.00
C16    C     0.24659   0.16704   0.16893   0.00000  Uiso   1.00
C17    C     0.26008   0.29217   0.08625   0.00000  Uiso   1.00
C18    C     0.31331   0.08871   0.25773   0.00000  Uiso   1.00
C19    C     0.32623   0.04040   0.26648   0.00000  Uiso   1.00
C20    C     0.04111   0.26075   0.22797   0.00000  Uiso   1.00
C21    C     0.07806   0.29026   0.24304   0.00000  Uiso   1.00
C22    C     0.16665   0.16670   0.07305   0.00000  Uiso   1.00
C23    C     0.16673   0.16665   0.26029   0.00000  Uiso   1.00
C24    C     0.16670   0.16673   0.02186   0.00000  Uiso   1.00
C25    C     0.16672   0.16666   0.31148   0.00000  Uiso   1.00
C26    C     0.01989   0.12708   0.17108   0.00000  Uiso   1.00
C27    C     0.31230   0.20852   0.16331   0.00000  Uiso   1.00
C28    C     0.31274   0.12960   0.18480   0.00000  Uiso   1.00
H29    H     0.03272   0.07699   0.08851   0.00000  Uiso   1.00
H30    H     0.22835   0.28451   0.09748   0.00000  Uiso   1.00
H31    H     0.29044   0.09784   0.28554   0.00000  Uiso   1.00
H32    H     0.00754   0.11043   0.26653   0.00000  Uiso   1.00
H33    H     0.01908   0.03250   0.24292   0.00000  Uiso   1.00
H34    H     0.00284   0.03542   0.30666   0.00000  Uiso   1.00
H35    H     0.30029   0.01723   0.25659   0.00000  Uiso   1.00
H36    H     0.04228   0.23125   0.25387   0.00000  Uiso   1.00
H37    H     0.01234   0.27947   0.23398   0.00000  Uiso   1.00
H38    H     0.07899   0.32034   0.21877   0.00000  Uiso   1.00
H39    H     0.07603   0.30114   0.28276   0.00000  Uiso   1.00
H40    H     0.31821   0.06922   0.11834   0.00000  Uiso   1.00
H41    H     0.10701   0.27128   0.23974   0.00000  Uiso   1.00
H42    H     0.00571   0.33322   0.15624   0.00000  Uiso   1.00
H43    H     0.01710   0.33153   0.09027   0.00000  Uiso   1.00
H44    H     0.05792   0.00689   0.13764   0.00000  Uiso   1.00
H45    H     0.27436   0.22258   0.08115   0.00000  Uiso   1.00
H46    H     0.31893   0.25944   0.08399   0.00000  Uiso   1.00
H47    H     0.27126   0.32291   0.10600   0.00000  Uiso   1.00
H48    H     0.25926   0.29820   0.04498   0.00000  Uiso   1.00
N49    N     0.16667   0.28573   0.16667   0.00000  Uiso   1.00
N50    N     0.16667   0.04760   0.16667   0.00000  Uiso   1.00
O51    O     0.10559   0.20487   0.16666   0.00000  Uiso   1.00
O52    O     0.29225   0.24829   0.15248   0.00000  Uiso   1.00
O53    O     0.29482   0.09361   0.20834   0.00000  Uiso   1.00
O54    O     0.04232   0.24879   0.17647   0.00000  Uiso   1.00
O55    O     0.22774   0.12846   0.16667   0.00000  Uiso   1.00
O56    O     0.22774   0.20487   0.16667   0.00000  Uiso   1.00
O57    O     0.10559   0.12846   0.16666   0.00000  Uiso   1.00
O58    O     0.16667   0.20488   0.09511   0.00000  Uiso   1.00
O59    O     0.16666   0.12845   0.23822   0.00000  Uiso   1.00
O60    O     0.16666   0.20488   0.23822   0.00000  Uiso   1.00
O61    O     0.16667   0.12845   0.09511   0.00000  Uiso   1.00
O62    O     0.03770   0.08558   0.16594   0.00000  Uiso   1.00
Zn63   Zn    0.16667   0.21771   0.16667   0.00000  Uiso   1.00
Zn64   Zn    0.16667   0.11563   0.16667   0.00000  Uiso   1.00
Br65   Br    0.54837   0.05285   0.25990   0.00000  Uiso   1.00
Br66   Br    0.44221   0.27768   0.08221   0.00000  Uiso   1.00
Br67   Br    0.44954   0.05331   0.07480   0.00000  Uiso   1.00
Br68   Br    0.55978   0.27830   0.24885   0.00000  Uiso   1.00
C69    C     0.41998   0.16665   0.16660   0.00000  Uiso   1.00
C70    C     0.35486   0.20856   0.16939   0.00000  Uiso   1.00
C71    C     0.62418   0.16843   0.17248   0.00000  Uiso   1.00
C72    C     0.37567   0.16726   0.16820   0.00000  Uiso   1.00
C73    C     0.52161   0.02359   0.20336   0.00000  Uiso   1.00
C74    C     0.47703   0.30922   0.13108   0.00000  Uiso   1.00
C75    C     0.47833   0.02354   0.12987   0.00000  Uiso   1.00
C76    C     0.52328   0.30941   0.20183   0.00000  Uiso   1.00
C77    C     0.35216   0.06412   0.12306   0.00000  Uiso   1.00
C78    C     0.35867   0.01409   0.12710   0.00000  Uiso   1.00
C79    C     0.62159   0.25302   0.09954   0.00000  Uiso   1.00
C80    C     0.57992   0.16704   0.16893   0.00000  Uiso   1.00
C81    C     0.59341   0.29217   0.08625   0.00000  Uiso   1.00
C82    C     0.64664   0.08871   0.25773   0.00000  Uiso   1.00
C83    C     0.65957   0.04040   0.26648   0.00000  Uiso   1.00
C84    C     0.37444   0.26075   0.22797   0.00000  Uiso   1.00
C85    C     0.41140   0.29026   0.24304   0.00000  Uiso   1.00
C86    C     0.49998   0.16670   0.07305   0.00000  Uiso   1.00
C87    C     0.50007   0.16665   0.26029   0.00000  Uiso   1.00
C88    C     0.50003   0.16673   0.02186   0.00000  Uiso   1.00
C89    C     0.50005   0.16666   0.31148   0.00000  Uiso   1.00
C90    C     0.35323   0.12708   0.17108   0.00000  Uiso   1.00
C91    C     0.64564   0.20852   0.16331   0.00000  Uiso   1.00
C92    C     0.64607   0.12960   0.18480   0.00000  Uiso   1.00
H93    H     0.36606   0.07699   0.08851   0.00000  Uiso   1.00
H94    H     0.56168   0.28451   0.09748   0.00000  Uiso   1.00
H95    H     0.62377   0.09784   0.28554   0.00000  Uiso   1.00
H96    H     0.34088   0.11043   0.26653   0.00000  Uiso   1.00
H97    H     0.35241   0.03250   0.24292   0.00000  Uiso   1.00
H98    H     0.33618   0.03542   0.30666   0.00000  Uiso   1.00
H99    H     0.63363   0.01723   0.25659   0.00000  Uiso   1.00
H100   H     0.37561   0.23125   0.25387   0.00000  Uiso   1.00
H101   H     0.34567   0.27947   0.23398   0.00000  Uiso   1.00
H102   H     0.41232   0.32034   0.21877   0.00000  Uiso   1.00
H103   H     0.40936   0.30114   0.28276   0.00000  Uiso   1.00
H104   H     0.65154   0.06922   0.11834   0.00000  Uiso   1.00
H105   H     0.44035   0.27128   0.23974   0.00000  Uiso   1.00
H106   H     0.33904   0.33322   0.15624   0.00000  Uiso   1.00
H107   H     0.35043   0.33153   0.09027   0.00000  Uiso   1.00
H108   H     0.39125   0.00689   0.13764   0.00000  Uiso   1.00
H109   H     0.60769   0.22258   0.08115   0.00000  Uiso   1.00
H110   H     0.65226   0.25944   0.08399   0.00000  Uiso   1.00
H111   H     0.60459   0.32291   0.10600   0.00000  Uiso   1.00
H112   H     0.59259   0.29820   0.04498   0.00000  Uiso   1.00
N113   N     0.50000   0.28573   0.16667   0.00000  Uiso   1.00
N114   N     0.50000   0.04760   0.16667   0.00000  Uiso   1.00
O115   O     0.43892   0.20487   0.16666   0.00000  Uiso   1.00
O116   O     0.62558   0.24829   0.15248   0.00000  Uiso   1.00
O117   O     0.62815   0.09361   0.20834   0.00000  Uiso   1.00
O118   O     0.37566   0.24879   0.17647   0.00000  Uiso   1.00
O119   O     0.56108   0.12846   0.16667   0.00000  Uiso   1.00
O120   O     0.56108   0.20487   0.16667   0.00000  Uiso   1.00
O121   O     0.43892   0.12846   0.16666   0.00000  Uiso   1.00
O122   O     0.50000   0.20488   0.09511   0.00000  Uiso   1.00
O123   O     0.50000   0.12845   0.23822   0.00000  Uiso   1.00
O124   O     0.50000   0.20488   0.23822   0.00000  Uiso   1.00
O125   O     0.50000   0.12845   0.09511   0.00000  Uiso   1.00
O126   O     0.37103   0.08558   0.16594   0.00000  Uiso   1.00
Zn127  Zn    0.50000   0.21771   0.16667   0.00000  Uiso   1.00
Zn128  Zn    0.50000   0.11563   0.16667   0.00000  Uiso   1.00
Br129  Br    0.88170   0.05285   0.25990   0.00000  Uiso   1.00
Br130  Br    0.77555   0.27768   0.08221   0.00000  Uiso   1.00
Br131  Br    0.78287   0.05331   0.07480   0.00000  Uiso   1.00
Br132  Br    0.89312   0.27830   0.24885   0.00000  Uiso   1.00
C133   C     0.75331   0.16665   0.16660   0.00000  Uiso   1.00
C134   C     0.68819   0.20856   0.16939   0.00000  Uiso   1.00
C135   C     0.95751   0.16843   0.17248   0.00000  Uiso   1.00
C136   C     0.70900   0.16726   0.16820   0.00000  Uiso   1.00
C137   C     0.85494   0.02359   0.20336   0.00000  Uiso   1.00
C138   C     0.81037   0.30922   0.13108   0.00000  Uiso   1.00
C139   C     0.81167   0.02354   0.12987   0.00000  Uiso   1.00
C140   C     0.85662   0.30941   0.20183   0.00000  Uiso   1.00
C141   C     0.68550   0.06412   0.12306   0.00000  Uiso   1.00
C142   C     0.69200   0.01409   0.12710   0.00000  Uiso   1.00
C143   C     0.95493   0.25302   0.09954   0.00000  Uiso   1.00
C144   C     0.91325   0.16704   0.16893   0.00000  Uiso   1.00
C145   C     0.92674   0.29217   0.08625   0.00000  Uiso   1.00
C146   C     0.97998   0.08871   0.25773   0.00000  Uiso   1.00
C147   C     0.99290   0.04040   0.26648   0.00000  Uiso   1.00
C148   C     0.70778   0.26075   0.22797   0.00000  Uiso   1.00
C149   C     0.74473   0.29026   0.24304   0.00000  Uiso   1.00
C150   C     0.83331   0.16670   0.07305   0.00000  Uiso   1.00
C151   C     0.83340   0.16665   0.26029   0.00000  Uiso   1.00
C152   C     0.83336   0.16673   0.02186   0.00000  Uiso   1.00
C153   C     0.83339   0.16666   0.31148   0.00000  Uiso   1.00
C154   C     0.68656   0.12708   0.17108   0.00000  Uiso   1.00
C155   C     0.97897   0.20852   0.16331   0.00000  Uiso   1.00
C156   C     0.97941   0.12960   0.18480   0.00000  Uiso   1.00
H157   H     0.69939   0.07699   0.08851   0.00000  Uiso   1.00
H158   H     0.89501   0.28451   0.09748   0.00000  Uiso   1.00
H159   H     0.95711   0.09784   0.28554   0.00000  Uiso   1.00
H160   H     0.67421   0.11043   0.26653   0.00000  Uiso   1.00
H161   H     0.68574   0.03250   0.24292   0.00000  Uiso   1.00
H162   H     0.66951   0.03542   0.30666   0.00000  Uiso   1.00
H163   H     0.96696   0.01723   0.25659   0.00000  Uiso   1.00
H164   H     0.70895   0.23125   0.25387   0.00000  Uiso   1.00
H165   H     0.67900   0.27947   0.23398   0.00000  Uiso   1.00
H166   H     0.74565   0.32034   0.21877   0.00000  Uiso   1.00
H167   H     0.74269   0.30114   0.28276   0.00000  Uiso   1.00
H168   H     0.98488   0.06922   0.11834   0.00000  Uiso   1.00
H169   H     0.77368   0.27128   0.23974   0.00000  Uiso   1.00
H170   H     0.67238   0.33322   0.15624   0.00000  Uiso   1.00
H171   H     0.68376   0.33153   0.09027   0.00000  Uiso   1.00
H172   H     0.72459   0.00689   0.13764   0.00000  Uiso   1.00
H173   H     0.94103   0.22258   0.08115   0.00000  Uiso   1.00
H174   H     0.98560   0.25944   0.08399   0.00000  Uiso   1.00
H175   H     0.93793   0.32291   0.10600   0.00000  Uiso   1.00
H176   H     0.92592   0.29820   0.04498   0.00000  Uiso   1.00
N177   N     0.83333   0.28573   0.16667   0.00000  Uiso   1.00
N178   N     0.83333   0.04760   0.16667   0.00000  Uiso   1.00
O179   O     0.77226   0.20487   0.16666   0.00000  Uiso   1.00
O180   O     0.95891   0.24829   0.15248   0.00000  Uiso   1.00
O181   O     0.96148   0.09361   0.20834   0.00000  Uiso   1.00
O182   O     0.70899   0.24879   0.17647   0.00000  Uiso   1.00
O183   O     0.89441   0.12846   0.16667   0.00000  Uiso   1.00
O184   O     0.89441   0.20487   0.16667   0.00000  Uiso   1.00
O185   O     0.77226   0.12846   0.16666   0.00000  Uiso   1.00
O186   O     0.83334   0.20488   0.09511   0.00000  Uiso   1.00
O187   O     0.83333   0.12845   0.23822   0.00000  Uiso   1.00
O188   O     0.83333   0.20488   0.23822   0.00000  Uiso   1.00
O189   O     0.83334   0.12845   0.09511   0.00000  Uiso   1.00
O190   O     0.70437   0.08558   0.16594   0.00000  Uiso   1.00
Zn191  Zn    0.83333   0.21771   0.16667   0.00000  Uiso   1.00
Zn192  Zn    0.83333   0.11563   0.16667   0.00000  Uiso   1.00
Br193  Br    0.21503   0.38618   0.25990   0.00000  Uiso   1.00
Br194  Br    0.10888   0.61101   0.08221   0.00000  Uiso   1.00
Br195  Br    0.11621   0.38665   0.07480   0.00000  Uiso   1.00
Br196  Br    0.22645   0.61164   0.24885   0.00000  Uiso   1.00
C197   C     0.08665   0.49998   0.16660   0.00000  Uiso   1.00
C198   C     0.02153   0.54190   0.16939   0.00000  Uiso   1.00
C199   C     0.29085   0.50177   0.17248   0.00000  Uiso   1.00
C200   C     0.04233   0.50059   0.16820   0.00000  Uiso   1.00
C201   C     0.18828   0.35692   0.20336   0.00000  Uiso   1.00
C202   C     0.14370   0.64256   0.13108   0.00000  Uiso   1.00
C203   C     0.14500   0.35688   0.12987   0.00000  Uiso   1.00
C204   C     0.18995   0.64275   0.20183   0.00000  Uiso   1.00
C205   C     0.01883   0.39745   0.12306   0.00000  Uiso   1.00
C206   C     0.02534   0.34743   0.12710   0.00000  Uiso   1.00
C207   C     0.28826   0.58635   0.09954   0.00000  Uiso   1.00
C208   C     0.24659   0.50037   0.16893   0.00000  Uiso   1.00
C209   C     0.26008   0.62551   0.08625   0.00000  Uiso   1.00
C210   C     0.31331   0.42205   0.25773   0.00000  Uiso   1.00
C211   C     0.32623   0.37374   0.26648   0.00000  Uiso   1.00
C212   C     0.04111   0.59408   0.22797   0.00000  Uiso   1.00
C213   C     0.07806   0.62360   0.24304   0.00000  Uiso   1.00
C214   C     0.16665   0.50003   0.07305   0.00000  Uiso   1.00
C215   C     0.16673   0.49999   0.26029   0.00000  Uiso   1.00
C216   C     0.16670   0.50006   0.02186   0.00000  Uiso   1.00
C217   C     0.16672   0.50000   0.31148   0.00000  Uiso   1.00
C218   C     0.01989   0.46042   0.17108   0.00000  Uiso   1.00
C219   C     0.31230   0.54186   0.16331   0.00000  Uiso   1.00
C220   C     0.31274   0.46293   0.18480   0.00000  Uiso   1.00
H221   H     0.03272   0.41032   0.08851   0.00000  Uiso   1.00
H222   H     0.22835   0.61785   0.09748   0.00000  Uiso   1.00
H223   H     0.29044   0.43117   0.28554   0.00000  Uiso   1.00
H224   H     0.00754   0.44377   0.26653   0.00000  Uiso   1.00
H225   H     0.01908   0.36583   0.24292   0.00000  Uiso   1.00
H226   H     0.00284   0.36875   0.30666   0.00000  Uiso   1.00
H227   H     0.30029   0.35056   0.25659   0.00000  Uiso   1.00
H228   H     0.04228   0.56459   0.25387   0.00000  Uiso   1.00
H229   H     0.01234   0.61281   0.23398   0.00000  Uiso   1.00
H230   H     0.07899   0.65367   0.21877   0.00000  Uiso   1.00
H231   H     0.07603   0.63448   0.28276   0.00000  Uiso   1.00
H232   H     0.31821   0.40255   0.11834   0.00000  Uiso   1.00
H233   H     0.10701   0.60462   0.23974   0.00000  Uiso   1.00
H234   H     0.00571   0.66655   0.15624   0.00000  Uiso   1.00
H235   H     0.01710   0.66487   0.09027   0.00000  Uiso   1.00
H236   H     0.05792   0.34022   0.13764   0.00000  Uiso   1.00
H237   H     0.27436   0.55592   0.08115   0.00000  Uiso   1.00
H238   H     0.31893   0.59277   0.08399   0.00000  Uiso   1.00
H239   H     0.27126   0.65625   0.10600   0.00000  Uiso   1.00
H240   H     0.25926   0.63154   0.04498   0.00000  Uiso   1.00
N241   N     0.16667   0.61907   0.16667   0.00000  Uiso   1.00
N242   N     0.16667   0.38093   0.16667   0.00000  Uiso   1.00
O243   O     0.10559   0.53821   0.16666   0.00000  Uiso   1.00
O244   O     0.29225   0.58162   0.15248   0.00000  Uiso   1.00
O245   O     0.29482   0.42694   0.20834   0.00000  Uiso   1.00
O246   O     0.04232   0.58213   0.17647   0.00000  Uiso   1.00
O247   O     0.22774   0.46179   0.16667   0.00000  Uiso   1.00
O248   O     0.22774   0.53821   0.16667   0.00000  Uiso   1.00
O249   O     0.10559   0.46179   0.16666   0.00000  Uiso   1.00
O250   O     0.16667   0.53821   0.09511   0.00000  Uiso   1.00
O251   O     0.16666   0.46179   0.23822   0.00000  Uiso   1.00
O252   O     0.16666   0.53821   0.23822   0.00000  Uiso   1.00
O253   O     0.16667   0.46179   0.09511   0.00000  Uiso   1.00
O254   O     0.03770   0.41891   0.16594   0.00000  Uiso   1.00
Zn255  Zn    0.16667   0.55104   0.16667   0.00000  Uiso   1.00
Zn256  Zn    0.16667   0.44896   0.16667   0.00000  Uiso   1.00
Br257  Br    0.54837   0.38618   0.25990   0.00000  Uiso   1.00
Br258  Br    0.44221   0.61101   0.08221   0.00000  Uiso   1.00
Br259  Br    0.44954   0.38665   0.07480   0.00000  Uiso   1.00
Br260  Br    0.55978   0.61164   0.24885   0.00000  Uiso   1.00
C261   C     0.41998   0.49998   0.16660   0.00000  Uiso   1.00
C262   C     0.35486   0.54190   0.16939   0.00000  Uiso   1.00
C263   C     0.62418   0.50177   0.17248   0.00000  Uiso   1.00
C264   C     0.37567   0.50059   0.16820   0.00000  Uiso   1.00
C265   C     0.52161   0.35692   0.20336   0.00000  Uiso   1.00
C266   C     0.47703   0.64256   0.13108   0.00000  Uiso   1.00
C267   C     0.47833   0.35688   0.12987   0.00000  Uiso   1.00
C268   C     0.52328   0.64275   0.20183   0.00000  Uiso   1.00
C269   C     0.35216   0.39745   0.12306   0.00000  Uiso   1.00
C270   C     0.35867   0.34743   0.12710   0.00000  Uiso   1.00
C271   C     0.62159   0.58635   0.09954   0.00000  Uiso   1.00
C272   C     0.57992   0.50037   0.16893   0.00000  Uiso   1.00
C273   C     0.59341   0.62551   0.08625   0.00000  Uiso   1.00
C274   C     0.64664   0.42205   0.25773   0.00000  Uiso   1.00
C275   C     0.65957   0.37374   0.26648   0.00000  Uiso   1.00
C276   C     0.37444   0.59408   0.22797   0.00000  Uiso   1.00
C277   C     0.41140   0.62360   0.24304   0.00000  Uiso   1.00
C278   C     0.49998   0.50003   0.07305   0.00000  Uiso   1.00
C279   C     0.50007   0.49999   0.26029   0.00000  Uiso   1.00
C280   C     0.50003   0.50006   0.02186   0.00000  Uiso   1.00
C281   C     0.50005   0.50000   0.31148   0.00000  Uiso   1.00
C282   C     0.35323   0.46042   0.17108   0.00000  Uiso   1.00
C283   C     0.64564   0.54186   0.16331   0.00000  Uiso   1.00
C284   C     0.64607   0.46293   0.18480   0.00000  Uiso   1.00
H285   H     0.36606   0.41032   0.08851   0.00000  Uiso   1.00
H286   H     0.56168   0.61785   0.09748   0.00000  Uiso   1.00
H287   H     0.62377   0.43117   0.28554   0.00000  Uiso   1.00
H288   H     0.34088   0.44377   0.26653   0.00000  Uiso   1.00
H289   H     0.35241   0.36583   0.24292   0.00000  Uiso   1.00
H290   H     0.33618   0.36875   0.30666   0.00000  Uiso   1.00
H291   H     0.63363   0.35056   0.25659   0.00000  Uiso   1.00
H292   H     0.37561   0.56459   0.25387   0.00000  Uiso   1.00
H293   H     0.34567   0.61281   0.23398   0.00000  Uiso   1.00
H294   H     0.41232   0.65367   0.21877   0.00000  Uiso   1.00
H295   H     0.40936   0.63448   0.28276   0.00000  Uiso   1.00
H296   H     0.65154   0.40255   0.11834   0.00000  Uiso   1.00
H297   H     0.44035   0.60462   0.23974   0.00000  Uiso   1.00
H298   H     0.33904   0.66655   0.15624   0.00000  Uiso   1.00
H299   H     0.35043   0.66487   0.09027   0.00000  Uiso   1.00
H300   H     0.39125   0.34022   0.13764   0.00000  Uiso   1.00
H301   H     0.60769   0.55592   0.08115   0.00000  Uiso   1.00
H302   H     0.65226   0.59277   0.08399   0.00000  Uiso   1.00
H303   H     0.60459   0.65625   0.10600   0.00000  Uiso   1.00
H304   H     0.59259   0.63154   0.04498   0.00000  Uiso   1.00
N305   N     0.50000   0.61907   0.16667   0.00000  Uiso   1.00
N306   N     0.50000   0.38093   0.16667   0.00000  Uiso   1.00
O307   O     0.43892   0.53821   0.16666   0.00000  Uiso   1.00
O308   O     0.62558   0.58162   0.15248   0.00000  Uiso   1.00
O309   O     0.62815   0.42694   0.20834   0.00000  Uiso   1.00
O310   O     0.37566   0.58213   0.17647   0.00000  Uiso   1.00
O311   O     0.56108   0.46179   0.16667   0.00000  Uiso   1.00
O312   O     0.56108   0.53821   0.16667   0.00000  Uiso   1.00
O313   O     0.43892   0.46179   0.16666   0.00000  Uiso   1.00
O314   O     0.50000   0.53821   0.09511   0.00000  Uiso   1.00
O315   O     0.50000   0.46179   0.23822   0.00000  Uiso   1.00
O316   O     0.50000   0.53821   0.23822   0.00000  Uiso   1.00
O317   O     0.50000   0.46179   0.09511   0.00000  Uiso   1.00
O318   O     0.37103   0.41891   0.16594   0.00000  Uiso   1.00
Zn319  Zn    0.50000   0.55104   0.16667   0.00000  Uiso   1.00
Zn320  Zn    0.50000   0.44896   0.16667   0.00000  Uiso   1.00
Br321  Br    0.88170   0.38618   0.25990   0.00000  Uiso   1.00
Br322  Br    0.77555   0.61101   0.08221   0.00000  Uiso   1.00
Br323  Br    0.78287   0.38665   0.07480   0.00000  Uiso   1.00
Br324  Br    0.89312   0.61164   0.24885   0.00000  Uiso   1.00
C325   C     0.75331   0.49998   0.16660   0.00000  Uiso   1.00
C326   C     0.68819   0.54190   0.16939   0.00000  Uiso   1.00
C327   C     0.95751   0.50177   0.17248   0.00000  Uiso   1.00
C328   C     0.70900   0.50059   0.16820   0.00000  Uiso   1.00
C329   C     0.85494   0.35692   0.20336   0.00000  Uiso   1.00
C330   C     0.81037   0.64256   0.13108   0.00000  Uiso   1.00
C331   C     0.81167   0.35688   0.12987   0.00000  Uiso   1.00
C332   C     0.85662   0.64275   0.20183   0.00000  Uiso   1.00
C333   C     0.68550   0.39745   0.12306   0.00000  Uiso   1.00
C334   C     0.69200   0.34743   0.12710   0.00000  Uiso   1.00
C335   C     0.95493   0.58635   0.09954   0.00000  Uiso   1.00
C336   C     0.91325   0.50037   0.16893   0.00000  Uiso   1.00
C337   C     0.92674   0.62551   0.08625   0.00000  Uiso   1.00
C338   C     0.97998   0.42205   0.25773   0.00000  Uiso   1.00
C339   C     0.99290   0.37374   0.26648   0.00000  Uiso   1.00
C340   C     0.70778   0.59408   0.22797   0.00000  Uiso   1.00
C341   C     0.74473   0.62360   0.24304   0.00000  Uiso   1.00
C342   C     0.83331   0.50003   0.07305   0.00000  Uiso   1.00
C343   C     0.83340   0.49999   0.26029   0.00000  Uiso   1.00
C344   C     0.83336   0.50006   0.02186   0.00000  Uiso   1.00
C345   C     0.83339   0.50000   0.31148   0.00000  Uiso   1.00
C346   C     0.68656   0.46042   0.17108   0.00000  Uiso   1.00
C347   C     0.97897   0.54186   0.16331   0.00000  Uiso   1.00
C348   C     0.97941   0.46293   0.18480   0.00000  Uiso   1.00
H349   H     0.69939   0.41032   0.08851   0.00000  Uiso   1.00
H350   H     0.89501   0.61785   0.09748   0.00000  Uiso   1.00
H351   H     0.95711   0.43117   0.28554   0.00000  Uiso   1.00
H352   H     0.67421   0.44377   0.26653   0.00000  Uiso   1.00
H353   H     0.68574   0.36583   0.24292   0.00000  Uiso   1.00
H354   H     0.66951   0.36875   0.30666   0.00000  Uiso   1.00
H355   H     0.96696   0.35056   0.25659   0.00000  Uiso   1.00
H356   H     0.70895   0.56459   0.25387   0.00000  Uiso   1.00
H357   H     0.67900   0.61281   0.23398   0.00000  Uiso   1.00
H358   H     0.74565   0.65367   0.21877   0.00000  Uiso   1.00
H359   H     0.74269   0.63448   0.28276   0.00000  Uiso   1.00
H360   H     0.98488   0.40255   0.11834   0.00000  Uiso   1.00
H361   H     0.77368   0.60462   0.23974   0.00000  Uiso   1.00
H362   H     0.67238   0.66655   0.15624   0.00000  Uiso   1.00
H363   H     0.68376   0.66487   0.09027   0.00000  Uiso   1.00
H364   H     0.72459   0.34022   0.13764   0.00000  Uiso   1.00
H365   H     0.94103   0.55592   0.08115   0.00000  Uiso   1.00
H366   H     0.98560   0.59277   0.08399   0.00000  Uiso   1.00
H367   H     0.93793   0.65625   0.10600   0.00000  Uiso   1.00
H368   H     0.92592   0.63154   0.04498   0.00000  Uiso   1.00
N369   N     0.83333   0.61907   0.16667   0.00000  Uiso   1.00
N370   N     0.83333   0.38093   0.16667   0.00000  Uiso   1.00
O371   O     0.77226   0.53821   0.16666   0.00000  Uiso   1.00
O372   O     0.95891   0.58162   0.15248   0.00000  Uiso   1.00
O373   O     0.96148   0.42694   0.20834   0.00000  Uiso   1.00
O374   O     0.70899   0.58213   0.17647   0.00000  Uiso   1.00
O375   O     0.89441   0.46179   0.16667   0.00000  Uiso   1.00
O376   O     0.89441   0.53821   0.16667   0.00000  Uiso   1.00
O377   O     0.77226   0.46179   0.16666   0.00000  Uiso   1.00
O378   O     0.83334   0.53821   0.09511   0.00000  Uiso   1.00
O379   O     0.83333   0.46179   0.23822   0.00000  Uiso   1.00
O380   O     0.83333   0.53821   0.23822   0.00000  Uiso   1.00
O381   O     0.83334   0.46179   0.09511   0.00000  Uiso   1.00
O382   O     0.70437   0.41891   0.16594   0.00000  Uiso   1.00
Zn383  Zn    0.83333   0.55104   0.16667   0.00000  Uiso   1.00
Zn384  Zn    0.83333   0.44896   0.16667   0.00000  Uiso   1.00
Br385  Br    0.21503   0.71952   0.25990   0.00000  Uiso   1.00
Br386  Br    0.10888   0.94434   0.08221   0.00000  Uiso   1.00
Br387  Br    0.11621   0.71998   0.07480   0.00000  Uiso   1.00
Br388  Br    0.22645   0.94497   0.24885   0.00000  Uiso   1.00
C389   C     0.08665   0.83332   0.16660   0.00000  Uiso   1.00
C390   C     0.02153   0.87523   0.16939   0.00000  Uiso   1.00
C391   C     0.29085   0.83510   0.17248   0.00000  Uiso   1.00
C392   C     0.04233   0.83392   0.16820   0.00000  Uiso   1.00
C393   C     0.18828   0.69026   0.20336   0.00000  Uiso   1.00
C394   C     0.14370   0.97589   0.13108   0.00000  Uiso   1.00
C395   C     0.14500   0.69021   0.12987   0.00000  Uiso   1.00
C396   C     0.18995   0.97608   0.20183   0.00000  Uiso   1.00
C397   C     0.01883   0.73079   0.12306   0.00000  Uiso   1.00
C398   C     0.02534   0.68076   0.12710   0.00000  Uiso   1.00
C399   C     0.28826   0.91968   0.09954   0.00000  Uiso   1.00
C400   C     0.24659   0.83370   0.16893   0.00000  Uiso   1.00
C401   C     0.26008   0.95884   0.08625   0.00000  Uiso   1.00
C402   C     0.31331   0.75538   0.25773   0.00000  Uiso   1.00
C403   C     0.32623   0.70707   0.26648   0.00000  Uiso   1.00
C404   C     0.04111   0.92742   0.22797   0.00000  Uiso   1.00
C405   C     0.07806   0.95693   0.24304   0.00000  Uiso   1.00
C406   C     0.16665   0.83336   0.07305   0.00000  Uiso   1.00
C407   C     0.16673   0.83332   0.26029   0.00000  Uiso   1.00
C408   C     0.16670   0.83339   0.02186   0.00000  Uiso   1.00
C409   C     0.16672   0.83333   0.31148   0.00000  Uiso   1.00
C410   C     0.01989   0.79375   0.17108   0.00000  Uiso   1.00
C411   C     0.31230   0.87519   0.16331   0.00000  Uiso   1.00
C412   C     0.31274   0.79627   0.18480   0.00000  Uiso   1.00
H413   H     0.03272   0.74365   0.08851   0.00000  Uiso   1.00
H414   H     0.22835   0.95118   0.09748   0.00000  Uiso   1.00
H415   H     0.29044   0.76450   0.28554   0.00000  Uiso   1.00
H416   H     0.00754   0.77710   0.26653   0.00000  Uiso   1.00
H417   H     0.01908   0.69916   0.24292   0.00000  Uiso   1.00
H418   H     0.00284   0.70209   0.30666   0.00000  Uiso   1.00
H419   H     0.30029   0.68389   0.25659   0.00000  Uiso   1.00
H420   H     0.04228   0.89792   0.25387   0.00000  Uiso   1.00
H421   H     0.01234   0.94614   0.23398   0.00000  Uiso   1.00
H422   H     0.07899   0.98700   0.21877   0.00000  Uiso   1.00
H423   H     0.07603   0.96781   0.28276   0.00000  Uiso   1.00
H424   H     0.31821   0.73589   0.11834   0.00000  Uiso   1.00
H425   H     0.10701   0.93795   0.23974   0.00000  Uiso   1.00
H426   H     0.00571   0.99988   0.15624   0.00000  Uiso   1.00
H427   H     0.01710   0.99820   0.09027   0.00000  Uiso   1.00
H428   H     0.05792   0.67356   0.13764   0.00000  Uiso   1.00
H429   H     0.27436   0.88925   0.08115   0.00000  Uiso   1.00
H430   H     0.31893   0.92611   0.08399   0.00000  Uiso   1.00
H431   H     0.27126   0.98958   0.10600   0.00000  Uiso   1.00
H432   H     0.25926   0.96487   0.04498   0.00000  Uiso   1.00
N433   N     0.16667   0.95240   0.16667   0.00000  Uiso   1.00
N434   N     0.16667   0.71427   0.16667   0.00000  Uiso   1.00
O435   O     0.10559   0.87154   0.16666   0.00000  Uiso   1.00
O436   O     0.29225   0.91496   0.15248   0.00000  Uiso   1.00
O437   O     0.29482   0.76028   0.20834   0.00000  Uiso   1.00
O438   O     0.04232   0.91546   0.17647   0.00000  Uiso   1.00
O439   O     0.22774   0.79513   0.16667   0.00000  Uiso   1.00
O440   O     0.22774   0.87154   0.16667   0.00000  Uiso   1.00
O441   O     0.10559   0.79513   0.16666   0.00000  Uiso   1.00
O442   O     0.16667   0.87155   0.09511   0.00000  Uiso   1.00
O443   O     0.16666   0.79512   0.23822   0.00000  Uiso   1.00
O444   O     0.16666   0.87155   0.23822   0.00000  Uiso   1.00
O445   O     0.16667   0.79512   0.09511   0.00000  Uiso   1.00
O446   O     0.03770   0.75224   0.16594   0.00000  Uiso   1.00
Zn447  Zn    0.16667   0.88437   0.16667   0.00000  Uiso   1.00
Zn448  Zn    0.16667   0.78229   0.16667   0.00000  Uiso   1.00
Br449  Br    0.54837   0.71952   0.25990   0.00000  Uiso   1.00
Br450  Br    0.44221   0.94434   0.08221   0.00000  Uiso   1.00
Br451  Br    0.44954   0.71998   0.07480   0.00000  Uiso   1.00
Br452  Br    0.55978   0.94497   0.24885   0.00000  Uiso   1.00
C453   C     0.41998   0.83332   0.16660   0.00000  Uiso   1.00
C454   C     0.35486   0.87523   0.16939   0.00000  Uiso   1.00
C455   C     0.62418   0.83510   0.17248   0.00000  Uiso   1.00
C456   C     0.37567   0.83392   0.16820   0.00000  Uiso   1.00
C457   C     0.52161   0.69026   0.20336   0.00000  Uiso   1.00
C458   C     0.47703   0.97589   0.13108   0.00000  Uiso   1.00
C459   C     0.47833   0.69021   0.12987   0.00000  Uiso   1.00
C460   C     0.52328   0.97608   0.20183   0.00000  Uiso   1.00
C461   C     0.35216   0.73079   0.12306   0.00000  Uiso   1.00
C462   C     0.35867   0.68076   0.12710   0.00000  Uiso   1.00
C463   C     0.62159   0.91968   0.09954   0.00000  Uiso   1.00
C464   C     0.57992   0.83370   0.16893   0.00000  Uiso   1.00
C465   C     0.59341   0.95884   0.08625   0.00000  Uiso   1.00
C466   C     0.64664   0.75538   0.25773   0.00000  Uiso   1.00
C467   C     0.65957   0.70707   0.26648   0.00000  Uiso   1.00
C468   C     0.37444   0.92742   0.22797   0.00000  Uiso   1.00
C469   C     0.41140   0.95693   0.24304   0.00000  Uiso   1.00
C470   C     0.49998   0.83336   0.07305   0.00000  Uiso   1.00
C471   C     0.50007   0.83332   0.26029   0.00000  Uiso   1.00
C472   C     0.50003   0.83339   0.02186   0.00000  Uiso   1.00
C473   C     0.50005   0.83333   0.31148   0.00000  Uiso   1.00
C474   C     0.35323   0.79375   0.17108   0.00000  Uiso   1.00
C475   C     0.64564   0.87519   0.16331   0.00000  Uiso   1.00
C476   C     0.64607   0.79627   0.18480   0.00000  Uiso   1.00
H477   H     0.36606   0.74365   0.08851   0.00000  Uiso   1.00
H478   H     0.56168   0.95118   0.09748   0.00000  Uiso   1.00
H479   H     0.62377   0.76450   0.28554   0.00000  Uiso   1.00
H480   H     0.34088   0.77710   0.26653   0.00000  Uiso   1.00
H481   H     0.35241   0.69916   0.24292   0.00000  Uiso   1.00
H482   H     0.33618   0.70209   0.30666   0.00000  Uiso   1.00
H483   H     0.63363   0.68389   0.25659   0.00000  Uiso   1.00
H484   H     0.37561   0.89792   0.25387   0.00000  Uiso   1.00
H485   H     0.34567   0.94614   0.23398   0.00000  Uiso   1.00
H486   H     0.41232   0.98700   0.21877   0.00000  Uiso   1.00
H487   H     0.40936   0.96781   0.28276   0.00000  Uiso   1.00
H488   H     0.65154   0.73589   0.11834   0.00000  Uiso   1.00
H489   H     0.44035   0.93795   0.23974   0.00000  Uiso   1.00
H490   H     0.33904   0.99988   0.15624   0.00000  Uiso   1.00
H491   H     0.35043   0.99820   0.09027   0.00000  Uiso   1.00
H492   H     0.39125   0.67356   0.13764   0.00000  Uiso   1.00
H493   H     0.60769   0.88925   0.08115   0.00000  Uiso   1.00
H494   H     0.65226   0.92611   0.08399   0.00000  Uiso   1.00
H495   H     0.60459   0.98958   0.10600   0.00000  Uiso   1.00
H496   H     0.59259   0.96487   0.04498   0.00000  Uiso   1.00
N497   N     0.50000   0.95240   0.16667   0.00000  Uiso   1.00
N498   N     0.50000   0.71427   0.16667   0.00000  Uiso   1.00
O499   O     0.43892   0.87154   0.16666   0.00000  Uiso   1.00
O500   O     0.62558   0.91496   0.15248   0.00000  Uiso   1.00
O501   O     0.62815   0.76028   0.20834   0.00000  Uiso   1.00
O502   O     0.37566   0.91546   0.17647   0.00000  Uiso   1.00
O503   O     0.56108   0.79513   0.16667   0.00000  Uiso   1.00
O504   O     0.56108   0.87154   0.16667   0.00000  Uiso   1.00
O505   O     0.43892   0.79513   0.16666   0.00000  Uiso   1.00
O506   O     0.50000   0.87155   0.09511   0.00000  Uiso   1.00
O507   O     0.50000   0.79512   0.23822   0.00000  Uiso   1.00
O508   O     0.50000   0.87155   0.23822   0.00000  Uiso   1.00
O509   O     0.50000   0.79512   0.09511   0.00000  Uiso   1.00
O510   O     0.37103   0.75224   0.16594   0.00000  Uiso   1.00
Zn511  Zn    0.50000   0.88437   0.16667   0.00000  Uiso   1.00
Zn512  Zn    0.50000   0.78229   0.16667   0.00000  Uiso   1.00
Br513  Br    0.88170   0.71952   0.25990   0.00000  Uiso   1.00
Br514  Br    0.77555   0.94434   0.08221   0.00000  Uiso   1.00
Br515  Br    0.78287   0.71998   0.07480   0.00000  Uiso   1.00
Br516  Br    0.89312   0.94497   0.24885   0.00000  Uiso   1.00
C517   C     0.75331   0.83332   0.16660   0.00000  Uiso   1.00
C518   C     0.68819   0.87523   0.16939   0.00000  Uiso   1.00
C519   C     0.95751   0.83510   0.17248   0.00000  Uiso   1.00
C520   C     0.70900   0.83392   0.16820   0.00000  Uiso   1.00
C521   C     0.85494   0.69026   0.20336   0.00000  Uiso   1.00
C522   C     0.81037   0.97589   0.13108   0.00000  Uiso   1.00
C523   C     0.81167   0.69021   0.12987   0.00000  Uiso   1.00
C524   C     0.85662   0.97608   0.20183   0.00000  Uiso   1.00
C525   C     0.68550   0.73079   0.12306   0.00000  Uiso   1.00
C526   C     0.69200   0.68076   0.12710   0.00000  Uiso   1.00
C527   C     0.95493   0.91968   0.09954   0.00000  Uiso   1.00
C528   C     0.91325   0.83370   0.16893   0.00000  Uiso   1.00
C529   C     0.92674   0.95884   0.08625   0.00000  Uiso   1.00
C530   C     0.97998   0.75538   0.25773   0.00000  Uiso   1.00
C531   C     0.99290   0.70707   0.26648   0.00000  Uiso   1.00
C532   C     0.70778   0.92742   0.22797   0.00000  Uiso   1.00
C533   C     0.74473   0.95693   0.24304   0.00000  Uiso   1.00
C534   C     0.83331   0.83336   0.07305   0.00000  Uiso   1.00
C535   C     0.83340   0.83332   0.26029   0.00000  Uiso   1.00
C536   C     0.83336   0.83339   0.02186   0.00000  Uiso   1.00
C537   C     0.83339   0.83333   0.31148   0.00000  Uiso   1.00
C538   C     0.68656   0.79375   0.17108   0.00000  Uiso   1.00
C539   C     0.97897   0.87519   0.16331   0.00000  Uiso   1.00
C540   C     0.97941   0.79627   0.18480   0.00000  Uiso   1.00
H541   H     0.69939   0.74365   0.08851   0.00000  Uiso   1.00
H542   H     0.89501   0.95118   0.09748   0.00000  Uiso   1.00
H543   H     0.95711   0.76450   0.28554   0.00000  Uiso   1.00
H544   H     0.67421   0.77710   0.26653   0.00000  Uiso   1.00
H545   H     0.68574   0.69916   0.24292   0.00000  Uiso   1.00
H546   H     0.66951   0.70209   0.30666   0.00000  Uiso   1.00
H547   H     0.96696   0.68389   0.25659   0.00000  Uiso   1.00
H548   H     0.70895   0.89792   0.25387   0.00000  Uiso   1.00
H549   H     0.67900   0.94614   0.23398   0.00000  Uiso   1.00
H550   H     0.74565   0.98700   0.21877   0.00000  Uiso   1.00
H551   H     0.74269   0.96781   0.28276   0.00000  Uiso   1.00
H552   H     0.98488   0.73589   0.11834   0.00000  Uiso   1.00
H553   H     0.77368   0.93795   0.23974   0.00000  Uiso   1.00
H554   H     0.67238   0.99988   0.15624   0.00000  Uiso   1.00
H555   H     0.68376   0.99820   0.09027   0.00000  Uiso   1.00
H556   H     0.72459   0.67356   0.13764   0.00000  Uiso   1.00
H557   H     0.94103   0.88925   0.08115   0.00000  Uiso   1.00
H558   H     0.98560   0.92611   0.08399   0.00000  Uiso   1.00
H559   H     0.93793   0.98958   0.10600   0.00000  Uiso   1.00
H560   H     0.92592   0.96487   0.04498   0.00000  Uiso   1.00
N561   N     0.83333   0.95240   0.16667   0.00000  Uiso   1.00
N562   N     0.83333   0.71427   0.16667   0.00000  Uiso   1.00
O563   O     0.77226   0.87154   0.16666   0.00000  Uiso   1.00
O564   O     0.95891   0.91496   0.15248   0.00000  Uiso   1.00
O565   O     0.96148   0.76028   0.20834   0.00000  Uiso   1.00
O566   O     0.70899   0.91546   0.17647   0.00000  Uiso   1.00
O567   O     0.89441   0.79513   0.16667   0.00000  Uiso   1.00
O568   O     0.89441   0.87154   0.16667   0.00000  Uiso   1.00
O569   O     0.77226   0.79513   0.16666   0.00000  Uiso   1.00
O570   O     0.83334   0.87155   0.09511   0.00000  Uiso   1.00
O571   O     0.83333   0.79512   0.23822   0.00000  Uiso   1.00
O572   O     0.83333   0.87155   0.23822   0.00000  Uiso   1.00
O573   O     0.83334   0.79512   0.09511   0.00000  Uiso   1.00
O574   O     0.70437   0.75224   0.16594   0.00000  Uiso   1.00
Zn575  Zn    0.83333   0.88437   0.16667   0.00000  Uiso   1.00
Zn576  Zn    0.83333   0.78229   0.16667   0.00000  Uiso   1.00
Br577  Br    0.21503   0.05285   0.59324   0.00000  Uiso   1.00
Br578  Br    0.10888   0.27768   0.41554   0.00000  Uiso   1.00
Br579  Br    0.11621   0.05331   0.40813   0.00000  Uiso   1.00
Br580  Br    0.22645   0.27830   0.58218   0.00000  Uiso   1.00
C581   C     0.08665   0.16665   0.49993   0.00000  Uiso   1.00
C582   C     0.02153   0.20856   0.50272   0.00000  Uiso   1.00
C583   C     0.29085   0.16843   0.50581   0.00000  Uiso   1.00
C584   C     0.04233   0.16726   0.50153   0.00000  Uiso   1.00
C585   C     0.18828   0.02359   0.53670   0.00000  Uiso   1.00
C586   C     0.14370   0.30922   0.46442   0.00000  Uiso   1.00
C587   C     0.14500   0.02354   0.46321   0.00000  Uiso   1.00
C588   C     0.18995   0.30941   0.53516   0.00000  Uiso   1.00
C589   C     0.01883   0.06412   0.45640   0.00000  Uiso   1.00
C590   C     0.02534   0.01409   0.46043   0.00000  Uiso   1.00
C591   C     0.28826   0.25302   0.43288   0.00000  Uiso   1.00
C592   C     0.24659   0.16704   0.50226   0.00000  Uiso   1.00
C593   C     0.26008   0.29217   0.41958   0.00000  Uiso   1.00
C594   C     0.31331   0.08871   0.59106   0.00000  Uiso   1.00
C595   C     0.32623   0.04040   0.59981   0.00000  Uiso   1.00
C596   C     0.04111   0.26075   0.56130   0.00000  Uiso   1.00
C597   C     0.07806   0.29026   0.57638   0.00000  Uiso   1.00
C598   C     0.16665   0.16670   0.40638   0.00000  Uiso   1.00
C599   C     0.16673   0.16665   0.59362   0.00000  Uiso   1.00
C600   C     0.16670   0.16673   0.35519   0.00000  Uiso   1.00
C601   C     0.16672   0.16666   0.64481   0.00000  Uiso   1.00
C602   C     0.01989   0.12708   0.50441   0.00000  Uiso   1.00
C603   C     0.31230   0.20852   0.49665   0.00000  Uiso   1.00
C604   C     0.31274   0.12960   0.51813   0.00000  Uiso   1.00
H605   H     0.03272   0.07699   0.42185   0.00000  Uiso   1.00
H606   H     0.22835   0.28451   0.43081   0.00000  Uiso   1.00
H607   H     0.29044   0.09784   0.61887   0.00000  Uiso   1.00
H608   H     0.00754   0.11043   0.59986   0.00000  Uiso   1.00
H609   H     0.01908   0.03250   0.57626   0.00000  Uiso   1.00
H610   H     0.00284   0.03542   0.64000   0.00000  Uiso   1.00
H611   H     0.30029   0.01723   0.58993   0.00000  Uiso   1.00
H612   H     0.04228   0.23125   0.58721   0.00000  Uiso   1.00
H613   H     0.01234   0.27947   0.56732   0.00000  Uiso   1.00
H614   H     0.07899   0.32034   0.55210   0.00000  Uiso   1.00
H615   H     0.07603   0.30114   0.61609   0.00000  Uiso   1.00
H616   H     0.31821   0.06922   0.45168   0.00000  Uiso   1.00
H617   H     0.10701   0.27128   0.57307   0.00000  Uiso   1.00
H618   H     0.00571   0.33322   0.48957   0.00000  Uiso   1.00
H619   H     0.01710   0.33153   0.42360   0.00000  Uiso   1.00
H620   H     0.05792   0.00689   0.47098   0.00000  Uiso   1.00
H621   H     0.27436   0.22258   0.41448   0.00000  Uiso   1.00
H622   H     0.31893   0.25944   0.41732   0.00000  Uiso   1.00
H623   H     0.27126   0.32291   0.43933   0.00000  Uiso   1.00
H624   H     0.25926   0.29820   0.37831   0.00000  Uiso   1.00
N625   N     0.16667   0.28573   0.50000   0.00000  Uiso   1.00
N626   N     0.16667   0.04760   0.50000   0.00000  Uiso   1.00
O627   O     0.10559   0.20487   0.50000   0.00000  Uiso   1.00
O628   O     0.29225   0.24829   0.48581   0.00000  Uiso   1.00
O629   O     0.29482   0.09361   0.54168   0.00000  Uiso   1.00
O630   O     0.04232   0.24879   0.50981   0.00000  Uiso   1.00
O631   O     0.22774   0.12846   0.50000   0.00000  Uiso   1.00
O632   O     0.22774   0.20487   0.50000   0.00000  Uiso   1.00
O633   O     0.10559   0.12846   0.50000   0.00000  Uiso   1.00
O634   O     0.16667   0.20488   0.42845   0.00000  Uiso   1.00
O635   O     0.16666   0.12845   0.57155   0.00000  Uiso   1.00
O636   O     0.16666   0.20488   0.57155   0.00000  Uiso   1.00
O637   O     0.16667   0.12845   0.42845   0.00000  Uiso   1.00
O638   O     0.03770   0.08558   0.49927   0.00000  Uiso   1.00
Zn639  Zn    0.16667   0.21771   0.50000   0.00000  Uiso   1.00
Zn640  Zn    0.16667   0.11563   0.50000   0.00000  Uiso   1.00
Br641  Br    0.54837   0.05285   0.59324   0.00000  Uiso   1.00
Br642  Br    0.44221   0.27768   0.41554   0.00000  Uiso   1.00
Br643  Br    0.44954   0.05331   0.40813   0.00000  Uiso   1.00
Br644  Br    0.55978   0.27830   0.58218   0.00000  Uiso   1.00
C645   C     0.41998   0.16665   0.49993   0.00000  Uiso   1.00
C646   C     0.35486   0.20856   0.50272   0.00000  Uiso   1.00
C647   C     0.62418   0.16843   0.50581   0.00000  Uiso   1.00
C648   C     0.37567   0.16726   0.50153   0.00000  Uiso   1.00
C649   C     0.52161   0.02359   0.53670   0.00000  Uiso   1.00
C650   C     0.47703   0.30922   0.46442   0.00000  Uiso   1.00
C651   C     0.47833   0.02354   0.46321   0.00000  Uiso   1.00
C652   C     0.52328   0.30941   0.53516   0.00000  Uiso   1.00
C653   C     0.35216   0.06412   0.45640   0.00000  Uiso   1.00
C654   C     0.35867   0.01409   0.46043   0.00000  Uiso   1.00
C655   C     0.62159   0.25302   0.43288   0.00000  Uiso   1.00
C656   C     0.57992   0.16704   0.50226   0.00000  Uiso   1.00
C657   C     0.59341   0.29217   0.41958   0.00000  Uiso   1.00
C658   C     0.64664   0.08871   0.59106   0.00000  Uiso   1.00
C659   C     0.65957   0.04040   0.59981   0.00000  Uiso   1.00
C660   C     0.37444   0.26075   0.56130   0.00000  Uiso   1.00
C661   C     0.41140   0.29026   0.57638   0.00000  Uiso   1.00
C662   C     0.49998   0.16670   0.40638   0.00000  Uiso   1.00
C663   C     0.50007   0.16665   0.59362   0.00000  Uiso   1.00
C664   C     0.50003   0.16673   0.35519   0.00000  Uiso   1.00
C665   C     0.50005   0.16666   0.64481   0.00000  Uiso   1.00
C666   C     0.35323   0.12708   0.50441   0.00000  Uiso   1.00
C667   C     0.64564   0.20852   0.49665   0.00000  Uiso   1.00
C668   C     0.64607   0.12960   0.51813   0.00000  Uiso   1.00
H669   H     0.36606   0.07699   0.42185   0.00000  Uiso   1.00
H670   H     0.56168   0.28451   0.43081   0.00000  Uiso   1.00
H671   H     0.62377   0.09784   0.61887   0.00000  Uiso   1.00
H672   H     0.34088   0.11043   0.59986   0.00000  Uiso   1.00
H673   H     0.35241   0.03250   0.57626   0.00000  Uiso   1.00
H674   H     0.33618   0.03542   0.64000   0.00000  Uiso   1.00
H675   H     0.63363   0.01723   0.58993   0.00000  Uiso   1.00
H676   H     0.37561   0.23125   0.58721   0.00000  Uiso   1.00
H677   H     0.34567   0.27947   0.56732   0.00000  Uiso   1.00
H678   H     0.41232   0.32034   0.55210   0.00000  Uiso   1.00
H679   H     0.40936   0.30114   0.61609   0.00000  Uiso   1.00
H680   H     0.65154   0.06922   0.45168   0.00000  Uiso   1.00
H681   H     0.44035   0.27128   0.57307   0.00000  Uiso   1.00
H682   H     0.33904   0.33322   0.48957   0.00000  Uiso   1.00
H683   H     0.35043   0.33153   0.42360   0.00000  Uiso   1.00
H684   H     0.39125   0.00689   0.47098   0.00000  Uiso   1.00
H685   H     0.60769   0.22258   0.41448   0.00000  Uiso   1.00
H686   H     0.65226   0.25944   0.41732   0.00000  Uiso   1.00
H687   H     0.60459   0.32291   0.43933   0.00000  Uiso   1.00
H688   H     0.59259   0.29820   0.37831   0.00000  Uiso   1.00
N689   N     0.50000   0.28573   0.50000   0.00000  Uiso   1.00
N690   N     0.50000   0.04760   0.50000   0.00000  Uiso   1.00
O691   O     0.43892   0.20487   0.50000   0.00000  Uiso   1.00
O692   O     0.62558   0.24829   0.48581   0.00000  Uiso   1.00
O693   O     0.62815   0.09361   0.54168   0.00000  Uiso   1.00
O694   O     0.37566   0.24879   0.50981   0.00000  Uiso   1.00
O695   O     0.56108   0.12846   0.50000   0.00000  Uiso   1.00
O696   O     0.56108   0.20487   0.50000   0.00000  Uiso   1.00
O697   O     0.43892   0.12846   0.50000   0.00000  Uiso   1.00
O698   O     0.50000   0.20488   0.42845   0.00000  Uiso   1.00
O699   O     0.50000   0.12845   0.57155   0.00000  Uiso   1.00
O700   O     0.50000   0.20488   0.57155   0.00000  Uiso   1.00
O701   O     0.50000   0.12845   0.42845   0.00000  Uiso   1.00
O702   O     0.37103   0.08558   0.49927   0.00000  Uiso   1.00
Zn703  Zn    0.50000   0.21771   0.50000   0.00000  Uiso   1.00
Zn704  Zn    0.50000   0.11563   0.50000   0.00000  Uiso   1.00
Br705  Br    0.88170   0.05285   0.59324   0.00000  Uiso   1.00
Br706  Br    0.77555   0.27768   0.41554   0.00000  Uiso   1.00
Br707  Br    0.78287   0.05331   0.40813   0.00000  Uiso   1.00
Br708  Br    0.89312   0.27830   0.58218   0.00000  Uiso   1.00
C709   C     0.75331   0.16665   0.49993   0.00000  Uiso   1.00
C710   C     0.68819   0.20856   0.50272   0.00000  Uiso   1.00
C711   C     0.95751   0.16843   0.50581   0.00000  Uiso   1.00
C712   C     0.70900   0.16726   0.50153   0.00000  Uiso   1.00
C713   C     0.85494   0.02359   0.53670   0.00000  Uiso   1.00
C714   C     0.81037   0.30922   0.46442   0.00000  Uiso   1.00
C715   C     0.81167   0.02354   0.46321   0.00000  Uiso   1.00
C716   C     0.85662   0.30941   0.53516   0.00000  Uiso   1.00
C717   C     0.68550   0.06412   0.45640   0.00000  Uiso   1.00
C718   C     0.69200   0.01409   0.46043   0.00000  Uiso   1.00
C719   C     0.95493   0.25302   0.43288   0.00000  Uiso   1.00
C720   C     0.91325   0.16704   0.50226   0.00000  Uiso   1.00
C721   C     0.92674   0.29217   0.41958   0.00000  Uiso   1.00
C722   C     0.97998   0.08871   0.59106   0.00000  Uiso   1.00
C723   C     0.99290   0.04040   0.59981   0.00000  Uiso   1.00
C724   C     0.70778   0.26075   0.56130   0.00000  Uiso   1.00
C725   C     0.74473   0.29026   0.57638   0.00000  Uiso   1.00
C726   C     0.83331   0.16670   0.40638   0.00000  Uiso   1.00
C727   C     0.83340   0.16665   0.59362   0.00000  Uiso   1.00
C728   C     0.83336   0.16673   0.35519   0.00000  Uiso   1.00
C729   C     0.83339   0.16666   0.64481   0.00000  Uiso   1.00
C730   C     0.68656   0.12708   0.50441   0.00000  Uiso   1.00
C731   C     0.97897   0.20852   0.49665   0.00000  Uiso   1.00
C732   C     0.97941   0.12960   0.51813   0.00000  Uiso   1.00
H733   H     0.69939   0.07699   0.42185   0.00000  Uiso   1.00
H734   H     0.89501   0.28451   0.43081   0.00000  Uiso   1.00
H735   H     0.95711   0.09784   0.61887   0.00000  Uiso   1.00
H736   H     0.67421   0.11043   0.59986   0.00000  Uiso   1.00
H737   H     0.68574   0.03250   0.57626   0.00000  Uiso   1.00
H738   H     0.66951   0.03542   0.64000   0.00000  Uiso   1.00
H739   H     0.96696   0.01723   0.58993   0.00000  Uiso   1.00
H740   H     0.70895   0.23125   0.58721   0.00000  Uiso   1.00
H741   H     0.67900   0.27947   0.56732   0.00000  Uiso   1.00
H742   H     0.74565   0.32034   0.55210   0.00000  Uiso   1.00
H743   H     0.74269   0.30114   0.61609   0.00000  Uiso   1.00
H744   H     0.98488   0.06922   0.45168   0.00000  Uiso   1.00
H745   H     0.77368   0.27128   0.57307   0.00000  Uiso   1.00
H746   H     0.67238   0.33322   0.48957   0.00000  Uiso   1.00
H747   H     0.68376   0.33153   0.42360   0.00000  Uiso   1.00
H748   H     0.72459   0.00689   0.47098   0.00000  Uiso   1.00
H749   H     0.94103   0.22258   0.41448   0.00000  Uiso   1.00
H750   H     0.98560   0.25944   0.41732   0.00000  Uiso   1.00
H751   H     0.93793   0.32291   0.43933   0.00000  Uiso   1.00
H752   H     0.92592   0.29820   0.37831   0.00000  Uiso   1.00
N753   N     0.83333   0.28573   0.50000   0.00000  Uiso   1.00
N754   N     0.83333   0.04760   0.50000   0.00000  Uiso   1.00
O755   O     0.77226   0.20487   0.50000   0.00000  Uiso   1.00
O756   O     0.95891   0.24829   0.48581   0.00000  Uiso   1.00
O757   O     0.96148   0.09361   0.54168   0.00000  Uiso   1.00
O758   O     0.70899   0.24879   0.50981   0.00000  Uiso   1.00
O759   O     0.89441   0.12846   0.50000   0.00000  Uiso   1.00
O760   O     0.89441   0.20487   0.50000   0.00000  Uiso   1.00
O761   O     0.77226   0.12846   0.50000   0.00000  Uiso   1.00
O762   O     0.83334   0.20488   0.42845   0.00000  Uiso   1.00
O763   O     0.83333   0.12845   0.57155   0.00000  Uiso   1.00
O764   O     0.83333   0.20488   0.57155   0.00000  Uiso   1.00
O765   O     0.83334   0.12845   0.42845   0.00000  Uiso   1.00
O766   O     0.70437   0.08558   0.49927   0.00000  Uiso   1.00
Zn767  Zn    0.83333   0.21771   0.50000   0.00000  Uiso   1.00
Zn768  Zn    0.83333   0.11563   0.50000   0.00000  Uiso   1.00
Br769  Br    0.21503   0.38618   0.59324   0.00000  Uiso   1.00
Br770  Br    0.10888   0.61101   0.41554   0.00000  Uiso   1.00
Br771  Br    0.11621   0.38665   0.40813   0.00000  Uiso   1.00
Br772  Br    0.22645   0.61164   0.58218   0.00000  Uiso   1.00
C773   C     0.08665   0.49998   0.49993   0.00000  Uiso   1.00
C774   C     0.02153   0.54190   0.50272   0.00000  Uiso   1.00
C775   C     0.29085   0.50177   0.50581   0.00000  Uiso   1.00
C776   C     0.04233   0.50059   0.50153   0.00000  Uiso   1.00
C777   C     0.18828   0.35692   0.53670   0.00000  Uiso   1.00
C778   C     0.14370   0.64256   0.46442   0.00000  Uiso   1.00
C779   C     0.14500   0.35688   0.46321   0.00000  Uiso   1.00
C780   C     0.18995   0.64275   0.53516   0.00000  Uiso   1.00
C781   C     0.01883   0.39745   0.45640   0.00000  Uiso   1.00
C782   C     0.02534   0.34743   0.46043   0.00000  Uiso   1.00
C783   C     0.28826   0.58635   0.43288   0.00000  Uiso   1.00
C784   C     0.24659   0.50037   0.50226   0.00000  Uiso   1.00
C785   C     0.26008   0.62551   0.41958   0.00000  Uiso   1.00
C786   C     0.31331   0.42205   0.59106   0.00000  Uiso   1.00
C787   C     0.32623   0.37374   0.59981   0.00000  Uiso   1.00
C788   C     0.04111   0.59408   0.56130   0.00000  Uiso   1.00
C789   C     0.07806   0.62360   0.57638   0.00000  Uiso   1.00
C790   C     0.16665   0.50003   0.40638   0.00000  Uiso   1.00
C791   C     0.16673   0.49999   0.59362   0.00000  Uiso   1.00
C792   C     0.16670   0.50006   0.35519   0.00000  Uiso   1.00
C793   C     0.16672   0.50000   0.64481   0.00000  Uiso   1.00
C794   C     0.01989   0.46042   0.50441   0.00000  Uiso   1.00
C795   C     0.31230   0.54186   0.49665   0.00000  Uiso   1.00
C796   C     0.31274   0.46293   0.51813   0.00000  Uiso   1.00
H797   H     0.03272   0.41032   0.42185   0.00000  Uiso   1.00
H798   H     0.22835   0.61785   0.43081   0.00000  Uiso   1.00
H799   H     0.29044   0.43117   0.61887   0.00000  Uiso   1.00
H800   H     0.00754   0.44377   0.59986   0.00000  Uiso   1.00
H801   H     0.01908   0.36583   0.57626   0.00000  Uiso   1.00
H802   H     0.00284   0.36875   0.64000   0.00000  Uiso   1.00
H803   H     0.30029   0.35056   0.58993   0.00000  Uiso   1.00
H804   H     0.04228   0.56459   0.58721   0.00000  Uiso   1.00
H805   H     0.01234   0.61281   0.56732   0.00000  Uiso   1.00
H806   H     0.07899   0.65367   0.55210   0.00000  Uiso   1.00
H807   H     0.07603   0.63448   0.61609   0.00000  Uiso   1.00
H808   H     0.31821   0.40255   0.45168   0.00000  Uiso   1.00
H809   H     0.10701   0.60462   0.57307   0.00000  Uiso   1.00
H810   H     0.00571   0.66655   0.48957   0.00000  Uiso   1.00
H811   H     0.01710   0.66487   0.42360   0.00000  Uiso   1.00
H812   H     0.05792   0.34022   0.47098   0.00000  Uiso   1.00
H813   H     0.27436   0.55592   0.41448   0.00000  Uiso   1.00
H814   H     0.31893   0.59277   0.41732   0.00000  Uiso   1.00
H815   H     0.27126   0.65625   0.43933   0.00000  Uiso   1.00
H816   H     0.25926   0.63154   0.37831   0.00000  Uiso   1.00
N817   N     0.16667   0.61907   0.50000   0.00000  Uiso   1.00
N818   N     0.16667   0.38093   0.50000   0.00000  Uiso   1.00
O819   O     0.10559   0.53821   0.50000   0.00000  Uiso   1.00
O820   O     0.29225   0.58162   0.48581   0.00000  Uiso   1.00
O821   O     0.29482   0.42694   0.54168   0.00000  Uiso   1.00
O822   O     0.04232   0.58213   0.50981   0.00000  Uiso   1.00
O823   O     0.22774   0.46179   0.50000   0.00000  Uiso   1.00
O824   O     0.22774   0.53821   0.50000   0.00000  Uiso   1.00
O825   O     0.10559   0.46179   0.50000   0.00000  Uiso   1.00
O826   O     0.16667   0.53821   0.42845   0.00000  Uiso   1.00
O827   O     0.16666   0.46179   0.57155   0.00000  Uiso   1.00
O828   O     0.16666   0.53821   0.57155   0.00000  Uiso   1.00
O829   O     0.16667   0.46179   0.42845   0.00000  Uiso   1.00
O830   O     0.03770   0.41891   0.49927   0.00000  Uiso   1.00
Zn831  Zn    0.16667   0.55104   0.50000   0.00000  Uiso   1.00
Zn832  Zn    0.16667   0.44896   0.50000   0.00000  Uiso   1.00
Br833  Br    0.54837   0.38618   0.59324   0.00000  Uiso   1.00
Br834  Br    0.44221   0.61101   0.41554   0.00000  Uiso   1.00
Br835  Br    0.44954   0.38665   0.40813   0.00000  Uiso   1.00
Br836  Br    0.55978   0.61164   0.58218   0.00000  Uiso   1.00
C837   C     0.41998   0.49998   0.49993   0.00000  Uiso   1.00
C838   C     0.35486   0.54190   0.50272   0.00000  Uiso   1.00
C839   C     0.62418   0.50177   0.50581   0.00000  Uiso   1.00
C840   C     0.37567   0.50059   0.50153   0.00000  Uiso   1.00
C841   C     0.52161   0.35692   0.53670   0.00000  Uiso   1.00
C842   C     0.47703   0.64256   0.46442   0.00000  Uiso   1.00
C843   C     0.47833   0.35688   0.46321   0.00000  Uiso   1.00
C844   C     0.52328   0.64275   0.53516   0.00000  Uiso   1.00
C845   C     0.35216   0.39745   0.45640   0.00000  Uiso   1.00
C846   C     0.35867   0.34743   0.46043   0.00000  Uiso   1.00
C847   C     0.62159   0.58635   0.43288   0.00000  Uiso   1.00
C848   C     0.57992   0.50037   0.50226   0.00000  Uiso   1.00
C849   C     0.59341   0.62551   0.41958   0.00000  Uiso   1.00
C850   C     0.64664   0.42205   0.59106   0.00000  Uiso   1.00
C851   C     0.65957   0.37374   0.59981   0.00000  Uiso   1.00
C852   C     0.37444   0.59408   0.56130   0.00000  Uiso   1.00
C853   C     0.41140   0.62360   0.57638   0.00000  Uiso   1.00
C854   C     0.49998   0.50003   0.40638   0.00000  Uiso   1.00
C855   C     0.50007   0.49999   0.59362   0.00000  Uiso   1.00
C856   C     0.50003   0.50006   0.35519   0.00000  Uiso   1.00
C857   C     0.50005   0.50000   0.64481   0.00000  Uiso   1.00
C858   C     0.35323   0.46042   0.50441   0.00000  Uiso   1.00
C859   C     0.64564   0.54186   0.49665   0.00000  Uiso   1.00
C860   C     0.64607   0.46293   0.51813   0.00000  Uiso   1.00
H861   H     0.36606   0.41032   0.42185   0.00000  Uiso   1.00
H862   H     0.56168   0.61785   0.43081   0.00000  Uiso   1.00
H863   H     0.62377   0.43117   0.61887   0.00000  Uiso   1.00
H864   H     0.34088   0.44377   0.59986   0.00000  Uiso   1.00
H865   H     0.35241   0.36583   0.57626   0.00000  Uiso   1.00
H866   H     0.33618   0.36875   0.64000   0.00000  Uiso   1.00
H867   H     0.63363   0.35056   0.58993   0.00000  Uiso   1.00
H868   H     0.37561   0.56459   0.58721   0.00000  Uiso   1.00
H869   H     0.34567   0.61281   0.56732   0.00000  Uiso   1.00
H870   H     0.41232   0.65367   0.55210   0.00000  Uiso   1.00
H871   H     0.40936   0.63448   0.61609   0.00000  Uiso   1.00
H872   H     0.65154   0.40255   0.45168   0.00000  Uiso   1.00
H873   H     0.44035   0.60462   0.57307   0.00000  Uiso   1.00
H874   H     0.33904   0.66655   0.48957   0.00000  Uiso   1.00
H875   H     0.35043   0.66487   0.42360   0.00000  Uiso   1.00
H876   H     0.39125   0.34022   0.47098   0.00000  Uiso   1.00
H877   H     0.60769   0.55592   0.41448   0.00000  Uiso   1.00
H878   H     0.65226   0.59277   0.41732   0.00000  Uiso   1.00
H879   H     0.60459   0.65625   0.43933   0.00000  Uiso   1.00
H880   H     0.59259   0.63154   0.37831   0.00000  Uiso   1.00
N881   N     0.50000   0.61907   0.50000   0.00000  Uiso   1.00
N882   N     0.50000   0.38093   0.50000   0.00000  Uiso   1.00
O883   O     0.43892   0.53821   0.50000   0.00000  Uiso   1.00
O884   O     0.62558   0.58162   0.48581   0.00000  Uiso   1.00
O885   O     0.62815   0.42694   0.54168   0.00000  Uiso   1.00
O886   O     0.37566   0.58213   0.50981   0.00000  Uiso   1.00
O887   O     0.56108   0.46179   0.50000   0.00000  Uiso   1.00
O888   O     0.56108   0.53821   0.50000   0.00000  Uiso   1.00
O889   O     0.43892   0.46179   0.50000   0.00000  Uiso   1.00
O890   O     0.50000   0.53821   0.42845   0.00000  Uiso   1.00
O891   O     0.50000   0.46179   0.57155   0.00000  Uiso   1.00
O892   O     0.50000   0.53821   0.57155   0.00000  Uiso   1.00
O893   O     0.50000   0.46179   0.42845   0.00000  Uiso   1.00
O894   O     0.37103   0.41891   0.49927   0.00000  Uiso   1.00
Zn895  Zn    0.50000   0.55104   0.50000   0.00000  Uiso   1.00
Zn896  Zn    0.50000   0.44896   0.50000   0.00000  Uiso   1.00
Br897  Br    0.88170   0.38618   0.59324   0.00000  Uiso   1.00
Br898  Br    0.77555   0.61101   0.41554   0.00000  Uiso   1.00
Br899  Br    0.78287   0.38665   0.40813   0.00000  Uiso   1.00
Br900  Br    0.89312   0.61164   0.58218   0.00000  Uiso   1.00
C901   C     0.75331   0.49998   0.49993   0.00000  Uiso   1.00
C902   C     0.68819   0.54190   0.50272   0.00000  Uiso   1.00
C903   C     0.95751   0.50177   0.50581   0.00000  Uiso   1.00
C904   C     0.70900   0.50059   0.50153   0.00000  Uiso   1.00
C905   C     0.85494   0.35692   0.53670   0.00000  Uiso   1.00
C906   C     0.81037   0.64256   0.46442   0.00000  Uiso   1.00
C907   C     0.81167   0.35688   0.46321   0.00000  Uiso   1.00
C908   C     0.85662   0.64275   0.53516   0.00000  Uiso   1.00
C909   C     0.68550   0.39745   0.45640   0.00000  Uiso   1.00
C910   C     0.69200   0.34743   0.46043   0.00000  Uiso   1.00
C911   C     0.95493   0.58635   0.43288   0.00000  Uiso   1.00
C912   C     0.91325   0.50037   0.50226   0.00000  Uiso   1.00
C913   C     0.92674   0.62551   0.41958   0.00000  Uiso   1.00
C914   C     0.97998   0.42205   0.59106   0.00000  Uiso   1.00
C915   C     0.99290   0.37374   0.59981   0.00000  Uiso   1.00
C916   C     0.70778   0.59408   0.56130   0.00000  Uiso   1.00
C917   C     0.74473   0.62360   0.57638   0.00000  Uiso   1.00
C918   C     0.83331   0.50003   0.40638   0.00000  Uiso   1.00
C919   C     0.83340   0.49999   0.59362   0.00000  Uiso   1.00
C920   C     0.83336   0.50006   0.35519   0.00000  Uiso   1.00
C921   C     0.83339   0.50000   0.64481   0.00000  Uiso   1.00
C922   C     0.68656   0.46042   0.50441   0.00000  Uiso   1.00
C923   C     0.97897   0.54186   0.49665   0.00000  Uiso   1.00
C924   C     0.97941   0.46293   0.51813   0.00000  Uiso   1.00
H925   H     0.69939   0.41032   0.42185   0.00000  Uiso   1.00
H926   H     0.89501   0.61785   0.43081   0.00000  Uiso   1.00
H927   H     0.95711   0.43117   0.61887   0.00000  Uiso   1.00
H928   H     0.67421   0.44377   0.59986   0.00000  Uiso   1.00
H929   H     0.68574   0.36583   0.57626   0.00000  Uiso   1.00
H930   H     0.66951   0.36875   0.64000   0.00000  Uiso   1.00
H931   H     0.96696   0.35056   0.58993   0.00000  Uiso   1.00
H932   H     0.70895   0.56459   0.58721   0.00000  Uiso   1.00
H933   H     0.67900   0.61281   0.56732   0.00000  Uiso   1.00
H934   H     0.74565   0.65367   0.55210   0.00000  Uiso   1.00
H935   H     0.74269   0.63448   0.61609   0.00000  Uiso   1.00
H936   H     0.98488   0.40255   0.45168   0.00000  Uiso   1.00
H937   H     0.77368   0.60462   0.57307   0.00000  Uiso   1.00
H938   H     0.67238   0.66655   0.48957   0.00000  Uiso   1.00
H939   H     0.68376   0.66487   0.42360   0.00000  Uiso   1.00
H940   H     0.72459   0.34022   0.47098   0.00000  Uiso   1.00
H941   H     0.94103   0.55592   0.41448   0.00000  Uiso   1.00
H942   H     0.98560   0.59277   0.41732   0.00000  Uiso   1.00
H943   H     0.93793   0.65625   0.43933   0.00000  Uiso   1.00
H944   H     0.92592   0.63154   0.37831   0.00000  Uiso   1.00
N945   N     0.83333   0.61907   0.50000   0.00000  Uiso   1.00
N946   N     0.83333   0.38093   0.50000   0.00000  Uiso   1.00
O947   O     0.77226   0.53821   0.50000   0.00000  Uiso   1.00
O948   O     0.95891   0.58162   0.48581   0.00000  Uiso   1.00
O949   O     0.96148   0.42694   0.54168   0.00000  Uiso   1.00
O950   O     0.70899   0.58213   0.50981   0.00000  Uiso   1.00
O951   O     0.89441   0.46179   0.50000   0.00000  Uiso   1.00
O952   O     0.89441   0.53821   0.50000   0.00000  Uiso   1.00
O953   O     0.77226   0.46179   0.50000   0.00000  Uiso   1.00
O954   O     0.83334   0.53821   0.42845   0.00000  Uiso   1.00
O955   O     0.83333   0.46179   0.57155   0.00000  Uiso   1.00
O956   O     0.83333   0.53821   0.57155   0.00000  Uiso   1.00
O957   O     0.83334   0.46179   0.42845   0.00000  Uiso   1.00
O958   O     0.70437   0.41891   0.49927   0.00000  Uiso   1.00
Zn959  Zn    0.83333   0.55104   0.50000   0.00000  Uiso   1.00
Zn960  Zn    0.83333   0.44896   0.50000   0.00000  Uiso   1.00
Br961  Br    0.21503   0.71952   0.59324   0.00000  Uiso   1.00
Br962  Br    0.10888   0.94434   0.41554   0.00000  Uiso   1.00
Br963  Br    0.11621   0.71998   0.40813   0.00000  Uiso   1.00
Br964  Br    0.22645   0.94497   0.58218   0.00000  Uiso   1.00
C965   C     0.08665   0.83332   0.49993   0.00000  Uiso   1.00
C966   C     0.02153   0.87523   0.50272   0.00000  Uiso   1.00
C967   C     0.29085   0.83510   0.50581   0.00000  Uiso   1.00
C968   C     0.04233   0.83392   0.50153   0.00000  Uiso   1.00
C969   C     0.18828   0.69026   0.53670   0.00000  Uiso   1.00
C970   C     0.14370   0.97589   0.46442   0.00000  Uiso   1.00
C971   C     0.14500   0.69021   0.46321   0.00000  Uiso   1.00
C972   C     0.18995   0.97608   0.53516   0.00000  Uiso   1.00
C973   C     0.01883   0.73079   0.45640   0.00000  Uiso   1.00
C974   C     0.02534   0.68076   0.46043   0.00000  Uiso   1.00
C975   C     0.28826   0.91968   0.43288   0.00000  Uiso   1.00
C976   C     0.24659   0.83370   0.50226   0.00000  Uiso   1.00
C977   C     0.26008   0.95884   0.41958   0.00000  Uiso   1.00
C978   C     0.31331   0.75538   0.59106   0.00000  Uiso   1.00
C979   C     0.32623   0.70707   0.59981   0.00000  Uiso   1.00
C980   C     0.04111   0.92742   0.56130   0.00000  Uiso   1.00
C981   C     0.07806   0.95693   0.57638   0.00000  Uiso   1.00
C982   C     0.16665   0.83336   0.40638   0.00000  Uiso   1.00
C983   C     0.16673   0.83332   0.59362   0.00000  Uiso   1.00
C984   C     0.16670   0.83339   0.35519   0.00000  Uiso   1.00
C985   C     0.16672   0.83333   0.64481   0.00000  Uiso   1.00
C986   C     0.01989   0.79375   0.50441   0.00000  Uiso   1.00
C987   C     0.31230   0.87519   0.49665   0.00000  Uiso   1.00
C988   C     0.31274   0.79627   0.51813   0.00000  Uiso   1.00
H989   H     0.03272   0.74365   0.42185   0.00000  Uiso   1.00
H990   H     0.22835   0.95118   0.43081   0.00000  Uiso   1.00
H991   H     0.29044   0.76450   0.61887   0.00000  Uiso   1.00
H992   H     0.00754   0.77710   0.59986   0.00000  Uiso   1.00
H993   H     0.01908   0.69916   0.57626   0.00000  Uiso   1.00
H994   H     0.00284   0.70209   0.64000   0.00000  Uiso   1.00
H995   H     0.30029   0.68389   0.58993   0.00000  Uiso   1.00
H996   H     0.04228   0.89792   0.58721   0.00000  Uiso   1.00
H997   H     0.01234   0.94614   0.56732   0.00000  Uiso   1.00
H998   H     0.07899   0.98700   0.55210   0.00000  Uiso   1.00
H999   H     0.07603   0.96781   0.61609   0.00000  Uiso   1.00
H1000  H     0.31821   0.73589   0.45168   0.00000  Uiso   1.00
H1001  H     0.10701   0.93795   0.57307   0.00000  Uiso   1.00
H1002  H     0.00571   0.99988   0.48957   0.00000  Uiso   1.00
H1003  H     0.01710   0.99820   0.42360   0.00000  Uiso   1.00
H1004  H     0.05792   0.67356   0.47098   0.00000  Uiso   1.00
H1005  H     0.27436   0.88925   0.41448   0.00000  Uiso   1.00
H1006  H     0.31893   0.92611   0.41732   0.00000  Uiso   1.00
H1007  H     0.27126   0.98958   0.43933   0.00000  Uiso   1.00
H1008  H     0.25926   0.96487   0.37831   0.00000  Uiso   1.00
N1009  N     0.16667   0.95240   0.50000   0.00000  Uiso   1.00
N1010  N     0.16667   0.71427   0.50000   0.00000  Uiso   1.00
O1011  O     0.10559   0.87154   0.50000   0.00000  Uiso   1.00
O1012  O     0.29225   0.91496   0.48581   0.00000  Uiso   1.00
O1013  O     0.29482   0.76028   0.54168   0.00000  Uiso   1.00
O1014  O     0.04232   0.91546   0.50981   0.00000  Uiso   1.00
O1015  O     0.22774   0.79513   0.50000   0.00000  Uiso   1.00
O1016  O     0.22774   0.87154   0.50000   0.00000  Uiso   1.00
O1017  O     0.10559   0.79513   0.50000   0.00000  Uiso   1.00
O1018  O     0.16667   0.87155   0.42845   0.00000  Uiso   1.00
O1019  O     0.16666   0.79512   0.57155   0.00000  Uiso   1.00
O1020  O     0.16666   0.87155   0.57155   0.00000  Uiso   1.00
O1021  O     0.16667   0.79512   0.42845   0.00000  Uiso   1.00
O1022  O     0.03770   0.75224   0.49927   0.00000  Uiso   1.00
Zn1023 Zn    0.16667   0.88437   0.50000   0.00000  Uiso   1.00
Zn1024 Zn    0.16667   0.78229   0.50000   0.00000  Uiso   1.00
Br1025 Br    0.54837   0.71952   0.59324   0.00000  Uiso   1.00
Br1026 Br    0.44221   0.94434   0.41554   0.00000  Uiso   1.00
Br1027 Br    0.44954   0.71998   0.40813   0.00000  Uiso   1.00
Br1028 Br    0.55978   0.94497   0.58218   0.00000  Uiso   1.00
C1029  C     0.41998   0.83332   0.49993   0.00000  Uiso   1.00
C1030  C     0.35486   0.87523   0.50272   0.00000  Uiso   1.00
C1031  C     0.62418   0.83510   0.50581   0.00000  Uiso   1.00
C1032  C     0.37567   0.83392   0.50153   0.00000  Uiso   1.00
C1033  C     0.52161   0.69026   0.53670   0.00000  Uiso   1.00
C1034  C     0.47703   0.97589   0.46442   0.00000  Uiso   1.00
C1035  C     0.47833   0.69021   0.46321   0.00000  Uiso   1.00
C1036  C     0.52328   0.97608   0.53516   0.00000  Uiso   1.00
C1037  C     0.35216   0.73079   0.45640   0.00000  Uiso   1.00
C1038  C     0.35867   0.68076   0.46043   0.00000  Uiso   1.00
C1039  C     0.62159   0.91968   0.43288   0.00000  Uiso   1.00
C1040  C     0.57992   0.83370   0.50226   0.00000  Uiso   1.00
C1041  C     0.59341   0.95884   0.41958   0.00000  Uiso   1.00
C1042  C     0.64664   0.75538   0.59106   0.00000  Uiso   1.00
C1043  C     0.65957   0.70707   0.59981   0.00000  Uiso   1.00
C1044  C     0.37444   0.92742   0.56130   0.00000  Uiso   1.00
C1045  C     0.41140   0.95693   0.57638   0.00000  Uiso   1.00
C1046  C     0.49998   0.83336   0.40638   0.00000  Uiso   1.00
C1047  C     0.50007   0.83332   0.59362   0.00000  Uiso   1.00
C1048  C     0.50003   0.83339   0.35519   0.00000  Uiso   1.00
C1049  C     0.50005   0.83333   0.64481   0.00000  Uiso   1.00
C1050  C     0.35323   0.79375   0.50441   0.00000  Uiso   1.00
C1051  C     0.64564   0.87519   0.49665   0.00000  Uiso   1.00
C1052  C     0.64607   0.79627   0.51813   0.00000  Uiso   1.00
H1053  H     0.36606   0.74365   0.42185   0.00000  Uiso   1.00
H1054  H     0.56168   0.95118   0.43081   0.00000  Uiso   1.00
H1055  H     0.62377   0.76450   0.61887   0.00000  Uiso   1.00
H1056  H     0.34088   0.77710   0.59986   0.00000  Uiso   1.00
H1057  H     0.35241   0.69916   0.57626   0.00000  Uiso   1.00
H1058  H     0.33618   0.70209   0.64000   0.00000  Uiso   1.00
H1059  H     0.63363   0.68389   0.58993   0.00000  Uiso   1.00
H1060  H     0.37561   0.89792   0.58721   0.00000  Uiso   1.00
H1061  H     0.34567   0.94614   0.56732   0.00000  Uiso   1.00
H1062  H     0.41232   0.98700   0.55210   0.00000  Uiso   1.00
H1063  H     0.40936   0.96781   0.61609   0.00000  Uiso   1.00
H1064  H     0.65154   0.73589   0.45168   0.00000  Uiso   1.00
H1065  H     0.44035   0.93795   0.57307   0.00000  Uiso   1.00
H1066  H     0.33904   0.99988   0.48957   0.00000  Uiso   1.00
H1067  H     0.35043   0.99820   0.42360   0.00000  Uiso   1.00
H1068  H     0.39125   0.67356   0.47098   0.00000  Uiso   1.00
H1069  H     0.60769   0.88925   0.41448   0.00000  Uiso   1.00
H1070  H     0.65226   0.92611   0.41732   0.00000  Uiso   1.00
H1071  H     0.60459   0.98958   0.43933   0.00000  Uiso   1.00
H1072  H     0.59259   0.96487   0.37831   0.00000  Uiso   1.00
N1073  N     0.50000   0.95240   0.50000   0.00000  Uiso   1.00
N1074  N     0.50000   0.71427   0.50000   0.00000  Uiso   1.00
O1075  O     0.43892   0.87154   0.50000   0.00000  Uiso   1.00
O1076  O     0.62558   0.91496   0.48581   0.00000  Uiso   1.00
O1077  O     0.62815   0.76028   0.54168   0.00000  Uiso   1.00
O1078  O     0.37566   0.91546   0.50981   0.00000  Uiso   1.00
O1079  O     0.56108   0.79513   0.50000   0.00000  Uiso   1.00
O1080  O     0.56108   0.87154   0.50000   0.00000  Uiso   1.00
O1081  O     0.43892   0.79513   0.50000   0.00000  Uiso   1.00
O1082  O     0.50000   0.87155   0.42845   0.00000  Uiso   1.00
O1083  O     0.50000   0.79512   0.57155   0.00000  Uiso   1.00
O1084  O     0.50000   0.87155   0.57155   0.00000  Uiso   1.00
O1085  O     0.50000   0.79512   0.42845   0.00000  Uiso   1.00
O1086  O     0.37103   0.75224   0.49927   0.00000  Uiso   1.00
Zn1087 Zn    0.50000   0.88437   0.50000   0.00000  Uiso   1.00
Zn1088 Zn    0.50000   0.78229   0.50000   0.00000  Uiso   1.00
Br1089 Br    0.88170   0.71952   0.59324   0.00000  Uiso   1.00
Br1090 Br    0.77555   0.94434   0.41554   0.00000  Uiso   1.00
Br1091 Br    0.78287   0.71998   0.40813   0.00000  Uiso   1.00
Br1092 Br    0.89312   0.94497   0.58218   0.00000  Uiso   1.00
C1093  C     0.75331   0.83332   0.49993   0.00000  Uiso   1.00
C1094  C     0.68819   0.87523   0.50272   0.00000  Uiso   1.00
C1095  C     0.95751   0.83510   0.50581   0.00000  Uiso   1.00
C1096  C     0.70900   0.83392   0.50153   0.00000  Uiso   1.00
C1097  C     0.85494   0.69026   0.53670   0.00000  Uiso   1.00
C1098  C     0.81037   0.97589   0.46442   0.00000  Uiso   1.00
C1099  C     0.81167   0.69021   0.46321   0.00000  Uiso   1.00
C1100  C     0.85662   0.97608   0.53516   0.00000  Uiso   1.00
C1101  C     0.68550   0.73079   0.45640   0.00000  Uiso   1.00
C1102  C     0.69200   0.68076   0.46043   0.00000  Uiso   1.00
C1103  C     0.95493   0.91968   0.43288   0.00000  Uiso   1.00
C1104  C     0.91325   0.83370   0.50226   0.00000  Uiso   1.00
C1105  C     0.92674   0.95884   0.41958   0.00000  Uiso   1.00
C1106  C     0.97998   0.75538   0.59106   0.00000  Uiso   1.00
C1107  C     0.99290   0.70707   0.59981   0.00000  Uiso   1.00
C1108  C     0.70778   0.92742   0.56130   0.00000  Uiso   1.00
C1109  C     0.74473   0.95693   0.57638   0.00000  Uiso   1.00
C1110  C     0.83331   0.83336   0.40638   0.00000  Uiso   1.00
C1111  C     0.83340   0.83332   0.59362   0.00000  Uiso   1.00
C1112  C     0.83336   0.83339   0.35519   0.00000  Uiso   1.00
C1113  C     0.83339   0.83333   0.64481   0.00000  Uiso   1.00
C1114  C     0.68656   0.79375   0.50441   0.00000  Uiso   1.00
C1115  C     0.97897   0.87519   0.49665   0.00000  Uiso   1.00
C1116  C     0.97941   0.79627   0.51813   0.00000  Uiso   1.00
H1117  H     0.69939   0.74365   0.42185   0.00000  Uiso   1.00
H1118  H     0.89501   0.95118   0.43081   0.00000  Uiso   1.00
H1119  H     0.95711   0.76450   0.61887   0.00000  Uiso   1.00
H1120  H     0.67421   0.77710   0.59986   0.00000  Uiso   1.00
H1121  H     0.68574   0.69916   0.57626   0.00000  Uiso   1.00
H1122  H     0.66951   0.70209   0.64000   0.00000  Uiso   1.00
H1123  H     0.96696   0.68389   0.58993   0.00000  Uiso   1.00
H1124  H     0.70895   0.89792   0.58721   0.00000  Uiso   1.00
H1125  H     0.67900   0.94614   0.56732   0.00000  Uiso   1.00
H1126  H     0.74565   0.98700   0.55210   0.00000  Uiso   1.00
H1127  H     0.74269   0.96781   0.61609   0.00000  Uiso   1.00
H1128  H     0.98488   0.73589   0.45168   0.00000  Uiso   1.00
H1129  H     0.77368   0.93795   0.57307   0.00000  Uiso   1.00
H1130  H     0.67238   0.99988   0.48957   0.00000  Uiso   1.00
H1131  H     0.68376   0.99820   0.42360   0.00000  Uiso   1.00
H1132  H     0.72459   0.67356   0.47098   0.00000  Uiso   1.00
H1133  H     0.94103   0.88925   0.41448   0.00000  Uiso   1.00
H1134  H     0.98560   0.92611   0.41732   0.00000  Uiso   1.00
H1135  H     0.93793   0.98958   0.43933   0.00000  Uiso   1.00
H1136  H     0.92592   0.96487   0.37831   0.00000  Uiso   1.00
N1137  N     0.83333   0.95240   0.50000   0.00000  Uiso   1.00
N1138  N     0.83333   0.71427   0.50000   0.00000  Uiso   1.00
O1139  O     0.77226   0.87154   0.50000   0.00000  Uiso   1.00
O1140  O     0.95891   0.91496   0.48581   0.00000  Uiso   1.00
O1141  O     0.96148   0.76028   0.54168   0.00000  Uiso   1.00
O1142  O     0.70899   0.91546   0.50981   0.00000  Uiso   1.00
O1143  O     0.89441   0.79513   0.50000   0.00000  Uiso   1.00
O1144  O     0.89441   0.87154   0.50000   0.00000  Uiso   1.00
O1145  O     0.77226   0.79513   0.50000   0.00000  Uiso   1.00
O1146  O     0.83334   0.87155   0.42845   0.00000  Uiso   1.00
O1147  O     0.83333   0.79512   0.57155   0.00000  Uiso   1.00
O1148  O     0.83333   0.87155   0.57155   0.00000  Uiso   1.00
O1149  O     0.83334   0.79512   0.42845   0.00000  Uiso   1.00
O1150  O     0.70437   0.75224   0.49927   0.00000  Uiso   1.00
Zn1151 Zn    0.83333   0.88437   0.50000   0.00000  Uiso   1.00
Zn1152 Zn    0.83333   0.78229   0.50000   0.00000  Uiso   1.00
Br1153 Br    0.21503   0.05285   0.92657   0.00000  Uiso   1.00
Br1154 Br    0.10888   0.27768   0.74887   0.00000  Uiso   1.00
Br1155 Br    0.11621   0.05331   0.74147   0.00000  Uiso   1.00
Br1156 Br    0.22645   0.27830   0.91551   0.00000  Uiso   1.00
C1157  C     0.08665   0.16665   0.83327   0.00000  Uiso   1.00
C1158  C     0.02153   0.20856   0.83605   0.00000  Uiso   1.00
C1159  C     0.29085   0.16843   0.83915   0.00000  Uiso   1.00
C1160  C     0.04233   0.16726   0.83486   0.00000  Uiso   1.00
C1161  C     0.18828   0.02359   0.87003   0.00000  Uiso   1.00
C1162  C     0.14370   0.30922   0.79775   0.00000  Uiso   1.00
C1163  C     0.14500   0.02354   0.79654   0.00000  Uiso   1.00
C1164  C     0.18995   0.30941   0.86850   0.00000  Uiso   1.00
C1165  C     0.01883   0.06412   0.78973   0.00000  Uiso   1.00
C1166  C     0.02534   0.01409   0.79377   0.00000  Uiso   1.00
C1167  C     0.28826   0.25302   0.76621   0.00000  Uiso   1.00
C1168  C     0.24659   0.16704   0.83560   0.00000  Uiso   1.00
C1169  C     0.26008   0.29217   0.75291   0.00000  Uiso   1.00
C1170  C     0.31331   0.08871   0.92440   0.00000  Uiso   1.00
C1171  C     0.32623   0.04040   0.93314   0.00000  Uiso   1.00
C1172  C     0.04111   0.26075   0.89464   0.00000  Uiso   1.00
C1173  C     0.07806   0.29026   0.90971   0.00000  Uiso   1.00
C1174  C     0.16665   0.16670   0.73972   0.00000  Uiso   1.00
C1175  C     0.16673   0.16665   0.92695   0.00000  Uiso   1.00
C1176  C     0.16670   0.16673   0.68853   0.00000  Uiso   1.00
C1177  C     0.16672   0.16666   0.97814   0.00000  Uiso   1.00
C1178  C     0.01989   0.12708   0.83775   0.00000  Uiso   1.00
C1179  C     0.31230   0.20852   0.82998   0.00000  Uiso   1.00
C1180  C     0.31274   0.12960   0.85147   0.00000  Uiso   1.00
H1181  H     0.03272   0.07699   0.75518   0.00000  Uiso   1.00
H1182  H     0.22835   0.28451   0.76414   0.00000  Uiso   1.00
H1183  H     0.29044   0.09784   0.95220   0.00000  Uiso   1.00
H1184  H     0.00754   0.11043   0.93319   0.00000  Uiso   1.00
H1185  H     0.01908   0.03250   0.90959   0.00000  Uiso   1.00
H1186  H     0.00284   0.03542   0.97333   0.00000  Uiso   1.00
H1187  H     0.30029   0.01723   0.92326   0.00000  Uiso   1.00
H1188  H     0.04228   0.23125   0.92054   0.00000  Uiso   1.00
H1189  H     0.01234   0.27947   0.90065   0.00000  Uiso   1.00
H1190  H     0.07899   0.32034   0.88543   0.00000  Uiso   1.00
H1191  H     0.07603   0.30114   0.94943   0.00000  Uiso   1.00
H1192  H     0.31821   0.06922   0.78501   0.00000  Uiso   1.00
H1193  H     0.10701   0.27128   0.90641   0.00000  Uiso   1.00
H1194  H     0.00571   0.33322   0.82291   0.00000  Uiso   1.00
H1195  H     0.01710   0.33153   0.75693   0.00000  Uiso   1.00
H1196  H     0.05792   0.00689   0.80431   0.00000  Uiso   1.00
H1197  H     0.27436   0.22258   0.74781   0.00000  Uiso   1.00
H1198  H     0.31893   0.25944   0.75066   0.00000  Uiso   1.00
H1199  H     0.27126   0.32291   0.77267   0.00000  Uiso   1.00
H1200  H     0.25926   0.29820   0.71164   0.00000  Uiso   1.00
N1201  N     0.16667   0.28573   0.83333   0.00000  Uiso   1.00
N1202  N     0.16667   0.04760   0.83333   0.00000  Uiso   1.00
O1203  O     0.10559   0.20487   0.83333   0.00000  Uiso   1.00
O1204  O     0.29225   0.24829   0.81914   0.00000  Uiso   1.00
O1205  O     0.29482   0.09361   0.87501   0.00000  Uiso   1.00
O1206  O     0.04232   0.24879   0.84314   0.00000  Uiso   1.00
O1207  O     0.22774   0.12846   0.83334   0.00000  Uiso   1.00
O1208  O     0.22774   0.20487   0.83334   0.00000  Uiso   1.00
O1209  O     0.10559   0.12846   0.83333   0.00000  Uiso   1.00
O1210  O     0.16667   0.20488   0.76178   0.00000  Uiso   1.00
O1211  O     0.16666   0.12845   0.90489   0.00000  Uiso   1.00
O1212  O     0.16666   0.20488   0.90489   0.00000  Uiso   1.00
O1213  O     0.16667   0.12845   0.76178   0.00000  Uiso   1.00
O1214  O     0.03770   0.08558   0.83261   0.00000  Uiso   1.00
Zn1215 Zn    0.16667   0.21771   0.83333   0.00000  Uiso   1.00
Zn1216 Zn    0.16667   0.11563   0.83333   0.00000  Uiso   1.00
Br1217 Br    0.54837   0.05285   0.92657   0.00000  Uiso   1.00
Br1218 Br    0.44221   0.27768   0.74887   0.00000  Uiso   1.00
Br1219 Br    0.44954   0.05331   0.74147   0.00000  Uiso   1.00
Br1220 Br    0.55978   0.27830   0.91551   0.00000  Uiso   1.00
C1221  C     0.41998   0.16665   0.83327   0.00000  Uiso   1.00
C1222  C     0.35486   0.20856   0.83605   0.00000  Uiso   1.00
C1223  C     0.62418   0.16843   0.83915   0.00000  Uiso   1.00
C1224  C     0.37567   0.16726   0.83486   0.00000  Uiso   1.00
C1225  C     0.52161   0.02359   0.87003   0.00000  Uiso   1.00
C1226  C     0.47703   0.30922   0.79775   0.00000  Uiso   1.00
C1227  C     0.47833   0.02354   0.79654   0.00000  Uiso   1.00
C1228  C     0.52328   0.30941   0.86850   0.00000  Uiso   1.00
C1229  C     0.35216   0.06412   0.78973   0.00000  Uiso   1.00
C1230  C     0.35867   0.01409   0.79377   0.00000  Uiso   1.00
C1231  C     0.62159   0.25302   0.76621   0.00000  Uiso   1.00
C1232  C     0.57992   0.16704   0.83560   0.00000  Uiso   1.00
C1233  C     0.59341   0.29217   0.75291   0.00000  Uiso   1.00
C1234  C     0.64664   0.08871   0.92440   0.00000  Uiso   1.00
C1235  C     0.65957   0.04040   0.93314   0.00000  Uiso   1.00
C1236  C     0.37444   0.26075   0.89464   0.00000  Uiso   1.00
C1237  C     0.41140   0.29026   0.90971   0.00000  Uiso   1.00
C1238  C     0.49998   0.16670   0.73972   0.00000  Uiso   1.00
C1239  C     0.50007   0.16665   0.92695   0.00000  Uiso   1.00
C1240  C     0.50003   0.16673   0.68853   0.00000  Uiso   1.00
C1241  C     0.50005   0.16666   0.97814   0.00000  Uiso   1.00
C1242  C     0.35323   0.12708   0.83775   0.00000  Uiso   1.00
C1243  C     0.64564   0.20852   0.82998   0.00000  Uiso   1.00
C1244  C     0.64607   0.12960   0.85147   0.00000  Uiso   1.00
H1245  H     0.36606   0.07699   0.75518   0.00000  Uiso   1.00
H1246  H     0.56168   0.28451   0.76414   0.00000  Uiso   1.00
H1247  H     0.62377   0.09784   0.95220   0.00000  Uiso   1.00
H1248  H     0.34088   0.11043   0.93319   0.00000  Uiso   1.00
H1249  H     0.35241   0.03250   0.90959   0.00000  Uiso   1.00
H1250  H     0.33618   0.03542   0.97333   0.00000  Uiso   1.00
H1251  H     0.63363   0.01723   0.92326   0.00000  Uiso   1.00
H1252  H     0.37561   0.23125   0.92054   0.00000  Uiso   1.00
H1253  H     0.34567   0.27947   0.90065   0.00000  Uiso   1.00
H1254  H     0.41232   0.32034   0.88543   0.00000  Uiso   1.00
H1255  H     0.40936   0.30114   0.94943   0.00000  Uiso   1.00
H1256  H     0.65154   0.06922   0.78501   0.00000  Uiso   1.00
H1257  H     0.44035   0.27128   0.90641   0.00000  Uiso   1.00
H1258  H     0.33904   0.33322   0.82291   0.00000  Uiso   1.00
H1259  H     0.35043   0.33153   0.75693   0.00000  Uiso   1.00
H1260  H     0.39125   0.00689   0.80431   0.00000  Uiso   1.00
H1261  H     0.60769   0.22258   0.74781   0.00000  Uiso   1.00
H1262  H     0.65226   0.25944   0.75066   0.00000  Uiso   1.00
H1263  H     0.60459   0.32291   0.77267   0.00000  Uiso   1.00
H1264  H     0.59259   0.29820   0.71164   0.00000  Uiso   1.00
N1265  N     0.50000   0.28573   0.83333   0.00000  Uiso   1.00
N1266  N     0.50000   0.04760   0.83333   0.00000  Uiso   1.00
O1267  O     0.43892   0.20487   0.83333   0.00000  Uiso   1.00
O1268  O     0.62558   0.24829   0.81914   0.00000  Uiso   1.00
O1269  O     0.62815   0.09361   0.87501   0.00000  Uiso   1.00
O1270  O     0.37566   0.24879   0.84314   0.00000  Uiso   1.00
O1271  O     0.56108   0.12846   0.83334   0.00000  Uiso   1.00
O1272  O     0.56108   0.20487   0.83334   0.00000  Uiso   1.00
O1273  O     0.43892   0.12846   0.83333   0.00000  Uiso   1.00
O1274  O     0.50000   0.20488   0.76178   0.00000  Uiso   1.00
O1275  O     0.50000   0.12845   0.90489   0.00000  Uiso   1.00
O1276  O     0.50000   0.20488   0.90489   0.00000  Uiso   1.00
O1277  O     0.50000   0.12845   0.76178   0.00000  Uiso   1.00
O1278  O     0.37103   0.08558   0.83261   0.00000  Uiso   1.00
Zn1279 Zn    0.50000   0.21771   0.83333   0.00000  Uiso   1.00
Zn1280 Zn    0.50000   0.11563   0.83333   0.00000  Uiso   1.00
Br1281 Br    0.88170   0.05285   0.92657   0.00000  Uiso   1.00
Br1282 Br    0.77555   0.27768   0.74887   0.00000  Uiso   1.00
Br1283 Br    0.78287   0.05331   0.74147   0.00000  Uiso   1.00
Br1284 Br    0.89312   0.27830   0.91551   0.00000  Uiso   1.00
C1285  C     0.75331   0.16665   0.83327   0.00000  Uiso   1.00
C1286  C     0.68819   0.20856   0.83605   0.00000  Uiso   1.00
C1287  C     0.95751   0.16843   0.83915   0.00000  Uiso   1.00
C1288  C     0.70900   0.16726   0.83486   0.00000  Uiso   1.00
C1289  C     0.85494   0.02359   0.87003   0.00000  Uiso   1.00
C1290  C     0.81037   0.30922   0.79775   0.00000  Uiso   1.00
C1291  C     0.81167   0.02354   0.79654   0.00000  Uiso   1.00
C1292  C     0.85662   0.30941   0.86850   0.00000  Uiso   1.00
C1293  C     0.68550   0.06412   0.78973   0.00000  Uiso   1.00
C1294  C     0.69200   0.01409   0.79377   0.00000  Uiso   1.00
C1295  C     0.95493   0.25302   0.76621   0.00000  Uiso   1.00
C1296  C     0.91325   0.16704   0.83560   0.00000  Uiso   1.00
C1297  C     0.92674   0.29217   0.75291   0.00000  Uiso   1.00
C1298  C     0.97998   0.08871   0.92440   0.00000  Uiso   1.00
C1299  C     0.99290   0.04040   0.93314   0.00000  Uiso   1.00
C1300  C     0.70778   0.26075   0.89464   0.00000  Uiso   1.00
C1301  C     0.74473   0.29026   0.90971   0.00000  Uiso   1.00
C1302  C     0.83331   0.16670   0.73972   0.00000  Uiso   1.00
C1303  C     0.83340   0.16665   0.92695   0.00000  Uiso   1.00
C1304  C     0.83336   0.16673   0.68853   0.00000  Uiso   1.00
C1305  C     0.83339   0.16666   0.97814   0.00000  Uiso   1.00
C1306  C     0.68656   0.12708   0.83775   0.00000  Uiso   1.00
C1307  C     0.97897   0.20852   0.82998   0.00000  Uiso   1.00
C1308  C     0.97941   0.12960   0.85147   0.00000  Uiso   1.00
H1309  H     0.69939   0.07699   0.75518   0.00000  Uiso   1.00
H1310  H     0.89501   0.28451   0.76414   0.00000  Uiso   1.00
H1311  H     0.95711   0.09784   0.95220   0.00000  Uiso   1.00
H1312  H     0.67421   0.11043   0.93319   0.00000  Uiso   1.00
H1313  H     0.68574   0.03250   0.90959   0.00000  Uiso   1.00
H1314  H     0.66951   0.03542   0.97333   0.00000  Uiso   1.00
H1315  H     0.96696   0.01723   0.92326   0.00000  Uiso   1.00
H1316  H     0.70895   0.23125   0.92054   0.00000  Uiso   1.00
H1317  H     0.67900   0.27947   0.90065   0.00000  Uiso   1.00
H1318  H     0.74565   0.32034   0.88543   0.00000  Uiso   1.00
H1319  H     0.74269   0.30114   0.94943   0.00000  Uiso   1.00
H1320  H     0.98488   0.06922   0.78501   0.00000  Uiso   1.00
H1321  H     0.77368   0.27128   0.90641   0.00000  Uiso   1.00
H1322  H     0.67238   0.33322   0.82291   0.00000  Uiso   1.00
H1323  H     0.68376   0.33153   0.75693   0.00000  Uiso   1.00
H1324  H     0.72459   0.00689   0.80431   0.00000  Uiso   1.00
H1325  H     0.94103   0.22258   0.74781   0.00000  Uiso   1.00
H1326  H     0.98560   0.25944   0.75066   0.00000  Uiso   1.00
H1327  H     0.93793   0.32291   0.77267   0.00000  Uiso   1.00
H1328  H     0.92592   0.29820   0.71164   0.00000  Uiso   1.00
N1329  N     0.83333   0.28573   0.83333   0.00000  Uiso   1.00
N1330  N     0.83333   0.04760   0.83333   0.00000  Uiso   1.00
O1331  O     0.77226   0.20487   0.83333   0.00000  Uiso   1.00
O1332  O     0.95891   0.24829   0.81914   0.00000  Uiso   1.00
O1333  O     0.96148   0.09361   0.87501   0.00000  Uiso   1.00
O1334  O     0.70899   0.24879   0.84314   0.00000  Uiso   1.00
O1335  O     0.89441   0.12846   0.83334   0.00000  Uiso   1.00
O1336  O     0.89441   0.20487   0.83334   0.00000  Uiso   1.00
O1337  O     0.77226   0.12846   0.83333   0.00000  Uiso   1.00
O1338  O     0.83334   0.20488   0.76178   0.00000  Uiso   1.00
O1339  O     0.83333   0.12845   0.90489   0.00000  Uiso   1.00
O1340  O     0.83333   0.20488   0.90489   0.00000  Uiso   1.00
O1341  O     0.83334   0.12845   0.76178   0.00000  Uiso   1.00
O1342  O     0.70437   0.08558   0.83261   0.00000  Uiso   1.00
Zn1343 Zn    0.83333   0.21771   0.83333   0.00000  Uiso   1.00
Zn1344 Zn    0.83333   0.11563   0.83333   0.00000  Uiso   1.00
Br1345 Br    0.21503   0.38618   0.92657   0.00000  Uiso   1.00
Br1346 Br    0.10888   0.61101   0.74887   0.00000  Uiso   1.00
Br1347 Br    0.11621   0.38665   0.74147   0.00000  Uiso   1.00
Br1348 Br    0.22645   0.61164   0.91551   0.00000  Uiso   1.00
C1349  C     0.08665   0.49998   0.83327   0.00000  Uiso   1.00
C1350  C     0.02153   0.54190   0.83605   0.00000  Uiso   1.00
C1351  C     0.29085   0.50177   0.83915   0.00000  Uiso   1.00
C1352  C     0.04233   0.50059   0.83486   0.00000  Uiso   1.00
C1353  C     0.18828   0.35692   0.87003   0.00000  Uiso   1.00
C1354  C     0.14370   0.64256   0.79775   0.00000  Uiso   1.00
C1355  C     0.14500   0.35688   0.79654   0.00000  Uiso   1.00
C1356  C     0.18995   0.64275   0.86850   0.00000  Uiso   1.00
C1357  C     0.01883   0.39745   0.78973   0.00000  Uiso   1.00
C1358  C     0.02534   0.34743   0.79377   0.00000  Uiso   1.00
C1359  C     0.28826   0.58635   0.76621   0.00000  Uiso   1.00
C1360  C     0.24659   0.50037   0.83560   0.00000  Uiso   1.00
C1361  C     0.26008   0.62551   0.75291   0.00000  Uiso   1.00
C1362  C     0.31331   0.42205   0.92440   0.00000  Uiso   1.00
C1363  C     0.32623   0.37374   0.93314   0.00000  Uiso   1.00
C1364  C     0.04111   0.59408   0.89464   0.00000  Uiso   1.00
C1365  C     0.07806   0.62360   0.90971   0.00000  Uiso   1.00
C1366  C     0.16665   0.50003   0.73972   0.00000  Uiso   1.00
C1367  C     0.16673   0.49999   0.92695   0.00000  Uiso   1.00
C1368  C     0.16670   0.50006   0.68853   0.00000  Uiso   1.00
C1369  C     0.16672   0.50000   0.97814   0.00000  Uiso   1.00
C1370  C     0.01989   0.46042   0.83775   0.00000  Uiso   1.00
C1371  C     0.31230   0.54186   0.82998   0.00000  Uiso   1.00
C1372  C     0.31274   0.46293   0.85147   0.00000  Uiso   1.00
H1373  H     0.03272   0.41032   0.75518   0.00000  Uiso   1.00
H1374  H     0.22835   0.61785   0.76414   0.00000  Uiso   1.00
H1375  H     0.29044   0.43117   0.95220   0.00000  Uiso   1.00
H1376  H     0.00754   0.44377   0.93319   0.00000  Uiso   1.00
H1377  H     0.01908   0.36583   0.90959   0.00000  Uiso   1.00
H1378  H     0.00284   0.36875   0.97333   0.00000  Uiso   1.00
H1379  H     0.30029   0.35056   0.92326   0.00000  Uiso   1.00
H1380  H     0.04228   0.56459   0.92054   0.00000  Uiso   1.00
H1381  H     0.01234   0.61281   0.90065   0.00000  Uiso   1.00
H1382  H     0.07899   0.65367   0.88543   0.00000  Uiso   1.00
H1383  H     0.07603   0.63448   0.94943   0.00000  Uiso   1.00
H1384  H     0.31821   0.40255   0.78501   0.00000  Uiso   1.00
H1385  H     0.10701   0.60462   0.90641   0.00000  Uiso   1.00
H1386  H     0.00571   0.66655   0.82291   0.00000  Uiso   1.00
H1387  H     0.01710   0.66487   0.75693   0.00000  Uiso   1.00
H1388  H     0.05792   0.34022   0.80431   0.00000  Uiso   1.00
H1389  H     0.27436   0.55592   0.74781   0.00000  Uiso   1.00
H1390  H     0.31893   0.59277   0.75066   0.00000  Uiso   1.00
H1391  H     0.27126   0.65625   0.77267   0.00000  Uiso   1.00
H1392  H     0.25926   0.63154   0.71164   0.00000  Uiso   1.00
N1393  N     0.16667   0.61907   0.83333   0.00000  Uiso   1.00
N1394  N     0.16667   0.38093   0.83333   0.00000  Uiso   1.00
O1395  O     0.10559   0.53821   0.83333   0.00000  Uiso   1.00
O1396  O     0.29225   0.58162   0.81914   0.00000  Uiso   1.00
O1397  O     0.29482   0.42694   0.87501   0.00000  Uiso   1.00
O1398  O     0.04232   0.58213   0.84314   0.00000  Uiso   1.00
O1399  O     0.22774   0.46179   0.83334   0.00000  Uiso   1.00
O1400  O     0.22774   0.53821   0.83334   0.00000  Uiso   1.00
O1401  O     0.10559   0.46179   0.83333   0.00000  Uiso   1.00
O1402  O     0.16667   0.53821   0.76178   0.00000  Uiso   1.00
O1403  O     0.16666   0.46179   0.90489   0.00000  Uiso   1.00
O1404  O     0.16666   0.53821   0.90489   0.00000  Uiso   1.00
O1405  O     0.16667   0.46179   0.76178   0.00000  Uiso   1.00
O1406  O     0.03770   0.41891   0.83261   0.00000  Uiso   1.00
Zn1407 Zn    0.16667   0.55104   0.83333   0.00000  Uiso   1.00
Zn1408 Zn    0.16667   0.44896   0.83333   0.00000  Uiso   1.00
Br1409 Br    0.54837   0.38618   0.92657   0.00000  Uiso   1.00
Br1410 Br    0.44221   0.61101   0.74887   0.00000  Uiso   1.00
Br1411 Br    0.44954   0.38665   0.74147   0.00000  Uiso   1.00
Br1412 Br    0.55978   0.61164   0.91551   0.00000  Uiso   1.00
C1413  C     0.41998   0.49998   0.83327   0.00000  Uiso   1.00
C1414  C     0.35486   0.54190   0.83605   0.00000  Uiso   1.00
C1415  C     0.62418   0.50177   0.83915   0.00000  Uiso   1.00
C1416  C     0.37567   0.50059   0.83486   0.00000  Uiso   1.00
C1417  C     0.52161   0.35692   0.87003   0.00000  Uiso   1.00
C1418  C     0.47703   0.64256   0.79775   0.00000  Uiso   1.00
C1419  C     0.47833   0.35688   0.79654   0.00000  Uiso   1.00
C1420  C     0.52328   0.64275   0.86850   0.00000  Uiso   1.00
C1421  C     0.35216   0.39745   0.78973   0.00000  Uiso   1.00
C1422  C     0.35867   0.34743   0.79377   0.00000  Uiso   1.00
C1423  C     0.62159   0.58635   0.76621   0.00000  Uiso   1.00
C1424  C     0.57992   0.50037   0.83560   0.00000  Uiso   1.00
C1425  C     0.59341   0.62551   0.75291   0.00000  Uiso   1.00
C1426  C     0.64664   0.42205   0.92440   0.00000  Uiso   1.00
C1427  C     0.65957   0.37374   0.93314   0.00000  Uiso   1.00
C1428  C     0.37444   0.59408   0.89464   0.00000  Uiso   1.00
C1429  C     0.41140   0.62360   0.90971   0.00000  Uiso   1.00
C1430  C     0.49998   0.50003   0.73972   0.00000  Uiso   1.00
C1431  C     0.50007   0.49999   0.92695   0.00000  Uiso   1.00
C1432  C     0.50003   0.50006   0.68853   0.00000  Uiso   1.00
C1433  C     0.50005   0.50000   0.97814   0.00000  Uiso   1.00
C1434  C     0.35323   0.46042   0.83775   0.00000  Uiso   1.00
C1435  C     0.64564   0.54186   0.82998   0.00000  Uiso   1.00
C1436  C     0.64607   0.46293   0.85147   0.00000  Uiso   1.00
H1437  H     0.36606   0.41032   0.75518   0.00000  Uiso   1.00
H1438  H     0.56168   0.61785   0.76414   0.00000  Uiso   1.00
H1439  H     0.62377   0.43117   0.95220   0.00000  Uiso   1.00
H1440  H     0.34088   0.44377   0.93319   0.00000  Uiso   1.00
H1441  H     0.35241   0.36583   0.90959   0.00000  Uiso   1.00
H1442  H     0.33618   0.36875   0.97333   0.00000  Uiso   1.00
H1443  H     0.63363   0.35056   0.92326   0.00000  Uiso   1.00
H1444  H     0.37561   0.56459   0.92054   0.00000  Uiso   1.00
H1445  H     0.34567   0.61281   0.90065   0.00000  Uiso   1.00
H1446  H     0.41232   0.65367   0.88543   0.00000  Uiso   1.00
H1447  H     0.40936   0.63448   0.94943   0.00000  Uiso   1.00
H1448  H     0.65154   0.40255   0.78501   0.00000  Uiso   1.00
H1449  H     0.44035   0.60462   0.90641   0.00000  Uiso   1.00
H1450  H     0.33904   0.66655   0.82291   0.00000  Uiso   1.00
H1451  H     0.35043   0.66487   0.75693   0.00000  Uiso   1.00
H1452  H     0.39125   0.34022   0.80431   0.00000  Uiso   1.00
H1453  H     0.60769   0.55592   0.74781   0.00000  Uiso   1.00
H1454  H     0.65226   0.59277   0.75066   0.00000  Uiso   1.00
H1455  H     0.60459   0.65625   0.77267   0.00000  Uiso   1.00
H1456  H     0.59259   0.63154   0.71164   0.00000  Uiso   1.00
N1457  N     0.50000   0.61907   0.83333   0.00000  Uiso   1.00
N1458  N     0.50000   0.38093   0.83333   0.00000  Uiso   1.00
O1459  O     0.43892   0.53821   0.83333   0.00000  Uiso   1.00
O1460  O     0.62558   0.58162   0.81914   0.00000  Uiso   1.00
O1461  O     0.62815   0.42694   0.87501   0.00000  Uiso   1.00
O1462  O     0.37566   0.58213   0.84314   0.00000  Uiso   1.00
O1463  O     0.56108   0.46179   0.83334   0.00000  Uiso   1.00
O1464  O     0.56108   0.53821   0.83334   0.00000  Uiso   1.00
O1465  O     0.43892   0.46179   0.83333   0.00000  Uiso   1.00
O1466  O     0.50000   0.53821   0.76178   0.00000  Uiso   1.00
O1467  O     0.50000   0.46179   0.90489   0.00000  Uiso   1.00
O1468  O     0.50000   0.53821   0.90489   0.00000  Uiso   1.00
O1469  O     0.50000   0.46179   0.76178   0.00000  Uiso   1.00
O1470  O     0.37103   0.41891   0.83261   0.00000  Uiso   1.00
Zn1471 Zn    0.50000   0.55104   0.83333   0.00000  Uiso   1.00
Zn1472 Zn    0.50000   0.44896   0.83333   0.00000  Uiso   1.00
Br1473 Br    0.88170   0.38618   0.92657   0.00000  Uiso   1.00
Br1474 Br    0.77555   0.61101   0.74887   0.00000  Uiso   1.00
Br1475 Br    0.78287   0.38665   0.74147   0.00000  Uiso   1.00
Br1476 Br    0.89312   0.61164   0.91551   0.00000  Uiso   1.00
C1477  C     0.75331   0.49998   0.83327   0.00000  Uiso   1.00
C1478  C     0.68819   0.54190   0.83605   0.00000  Uiso   1.00
C1479  C     0.95751   0.50177   0.83915   0.00000  Uiso   1.00
C1480  C     0.70900   0.50059   0.83486   0.00000  Uiso   1.00
C1481  C     0.85494   0.35692   0.87003   0.00000  Uiso   1.00
C1482  C     0.81037   0.64256   0.79775   0.00000  Uiso   1.00
C1483  C     0.81167   0.35688   0.79654   0.00000  Uiso   1.00
C1484  C     0.85662   0.64275   0.86850   0.00000  Uiso   1.00
C1485  C     0.68550   0.39745   0.78973   0.00000  Uiso   1.00
C1486  C     0.69200   0.34743   0.79377   0.00000  Uiso   1.00
C1487  C     0.95493   0.58635   0.76621   0.00000  Uiso   1.00
C1488  C     0.91325   0.50037   0.83560   0.00000  Uiso   1.00
C1489  C     0.92674   0.62551   0.75291   0.00000  Uiso   1.00
C1490  C     0.97998   0.42205   0.92440   0.00000  Uiso   1.00
C1491  C     0.99290   0.37374   0.93314   0.00000  Uiso   1.00
C1492  C     0.70778   0.59408   0.89464   0.00000  Uiso   1.00
C1493  C     0.74473   0.62360   0.90971   0.00000  Uiso   1.00
C1494  C     0.83331   0.50003   0.73972   0.00000  Uiso   1.00
C1495  C     0.83340   0.49999   0.92695   0.00000  Uiso   1.00
C1496  C     0.83336   0.50006   0.68853   0.00000  Uiso   1.00
C1497  C     0.83339   0.50000   0.97814   0.00000  Uiso   1.00
C1498  C     0.68656   0.46042   0.83775   0.00000  Uiso   1.00
C1499  C     0.97897   0.54186   0.82998   0.00000  Uiso   1.00
C1500  C     0.97941   0.46293   0.85147   0.00000  Uiso   1.00
H1501  H     0.69939   0.41032   0.75518   0.00000  Uiso   1.00
H1502  H     0.89501   0.61785   0.76414   0.00000  Uiso   1.00
H1503  H     0.95711   0.43117   0.95220   0.00000  Uiso   1.00
H1504  H     0.67421   0.44377   0.93319   0.00000  Uiso   1.00
H1505  H     0.68574   0.36583   0.90959   0.00000  Uiso   1.00
H1506  H     0.66951   0.36875   0.97333   0.00000  Uiso   1.00
H1507  H     0.96696   0.35056   0.92326   0.00000  Uiso   1.00
H1508  H     0.70895   0.56459   0.92054   0.00000  Uiso   1.00
H1509  H     0.67900   0.61281   0.90065   0.00000  Uiso   1.00
H1510  H     0.74565   0.65367   0.88543   0.00000  Uiso   1.00
H1511  H     0.74269   0.63448   0.94943   0.00000  Uiso   1.00
H1512  H     0.98488   0.40255   0.78501   0.00000  Uiso   1.00
H1513  H     0.77368   0.60462   0.90641   0.00000  Uiso   1.00
H1514  H     0.67238   0.66655   0.82291   0.00000  Uiso   1.00
H1515  H     0.68376   0.66487   0.75693   0.00000  Uiso   1.00
H1516  H     0.72459   0.34022   0.80431   0.00000  Uiso   1.00
H1517  H     0.94103   0.55592   0.74781   0.00000  Uiso   1.00
H1518  H     0.98560   0.59277   0.75066   0.00000  Uiso   1.00
H1519  H     0.93793   0.65625   0.77267   0.00000  Uiso   1.00
H1520  H     0.92592   0.63154   0.71164   0.00000  Uiso   1.00
N1521  N     0.83333   0.61907   0.83333   0.00000  Uiso   1.00
N1522  N     0.83333   0.38093   0.83333   0.00000  Uiso   1.00
O1523  O     0.77226   0.53821   0.83333   0.00000  Uiso   1.00
O1524  O     0.95891   0.58162   0.81914   0.00000  Uiso   1.00
O1525  O     0.96148   0.42694   0.87501   0.00000  Uiso   1.00
O1526  O     0.70899   0.58213   0.84314   0.00000  Uiso   1.00
O1527  O     0.89441   0.46179   0.83334   0.00000  Uiso   1.00
O1528  O     0.89441   0.53821   0.83334   0.00000  Uiso   1.00
O1529  O     0.77226   0.46179   0.83333   0.00000  Uiso   1.00
O1530  O     0.83334   0.53821   0.76178   0.00000  Uiso   1.00
O1531  O     0.83333   0.46179   0.90489   0.00000  Uiso   1.00
O1532  O     0.83333   0.53821   0.90489   0.00000  Uiso   1.00
O1533  O     0.83334   0.46179   0.76178   0.00000  Uiso   1.00
O1534  O     0.70437   0.41891   0.83261   0.00000  Uiso   1.00
Zn1535 Zn    0.83333   0.55104   0.83333   0.00000  Uiso   1.00
Zn1536 Zn    0.83333   0.44896   0.83333   0.00000  Uiso   1.00
Br1537 Br    0.21503   0.71952   0.92657   0.00000  Uiso   1.00
Br1538 Br    0.10888   0.94434   0.74887   0.00000  Uiso   1.00
Br1539 Br    0.11621   0.71998   0.74147   0.00000  Uiso   1.00
Br1540 Br    0.22645   0.94497   0.91551   0.00000  Uiso   1.00
C1541  C     0.08665   0.83332   0.83327   0.00000  Uiso   1.00
C1542  C     0.02153   0.87523   0.83605   0.00000  Uiso   1.00
C1543  C     0.29085   0.83510   0.83915   0.00000  Uiso   1.00
C1544  C     0.04233   0.83392   0.83486   0.00000  Uiso   1.00
C1545  C     0.18828   0.69026   0.87003   0.00000  Uiso   1.00
C1546  C     0.14370   0.97589   0.79775   0.00000  Uiso   1.00
C1547  C     0.14500   0.69021   0.79654   0.00000  Uiso   1.00
C1548  C     0.18995   0.97608   0.86850   0.00000  Uiso   1.00
C1549  C     0.01883   0.73079   0.78973   0.00000  Uiso   1.00
C1550  C     0.02534   0.68076   0.79377   0.00000  Uiso   1.00
C1551  C     0.28826   0.91968   0.76621   0.00000  Uiso   1.00
C1552  C     0.24659   0.83370   0.83560   0.00000  Uiso   1.00
C1553  C     0.26008   0.95884   0.75291   0.00000  Uiso   1.00
C1554  C     0.31331   0.75538   0.92440   0.00000  Uiso   1.00
C1555  C     0.32623   0.70707   0.93314   0.00000  Uiso   1.00
C1556  C     0.04111   0.92742   0.89464   0.00000  Uiso   1.00
C1557  C     0.07806   0.95693   0.90971   0.00000  Uiso   1.00
C1558  C     0.16665   0.83336   0.73972   0.00000  Uiso   1.00
C1559  C     0.16673   0.83332   0.92695   0.00000  Uiso   1.00
C1560  C     0.16670   0.83339   0.68853   0.00000  Uiso   1.00
C1561  C     0.16672   0.83333   0.97814   0.00000  Uiso   1.00
C1562  C     0.01989   0.79375   0.83775   0.00000  Uiso   1.00
C1563  C     0.31230   0.87519   0.82998   0.00000  Uiso   1.00
C1564  C     0.31274   0.79627   0.85147   0.00000  Uiso   1.00
H1565  H     0.03272   0.74365   0.75518   0.00000  Uiso   1.00
H1566  H     0.22835   0.95118   0.76414   0.00000  Uiso   1.00
H1567  H     0.29044   0.76450   0.95220   0.00000  Uiso   1.00
H1568  H     0.00754   0.77710   0.93319   0.00000  Uiso   1.00
H1569  H     0.01908   0.69916   0.90959   0.00000  Uiso   1.00
H1570  H     0.00284   0.70209   0.97333   0.00000  Uiso   1.00
H1571  H     0.30029   0.68389   0.92326   0.00000  Uiso   1.00
H1572  H     0.04228   0.89792   0.92054   0.00000  Uiso   1.00
H1573  H     0.01234   0.94614   0.90065   0.00000  Uiso   1.00
H1574  H     0.07899   0.98700   0.88543   0.00000  Uiso   1.00
H1575  H     0.07603   0.96781   0.94943   0.00000  Uiso   1.00
H1576  H     0.31821   0.73589   0.78501   0.00000  Uiso   1.00
H1577  H     0.10701   0.93795   0.90641   0.00000  Uiso   1.00
H1578  H     0.00571   0.99988   0.82291   0.00000  Uiso   1.00
H1579  H     0.01710   0.99820   0.75693   0.00000  Uiso   1.00
H1580  H     0.05792   0.67356   0.80431   0.00000  Uiso   1.00
H1581  H     0.27436   0.88925   0.74781   0.00000  Uiso   1.00
H1582  H     0.31893   0.92611   0.75066   0.00000  Uiso   1.00
H1583  H     0.27126   0.98958   0.77267   0.00000  Uiso   1.00
H1584  H     0.25926   0.96487   0.71164   0.00000  Uiso   1.00
N1585  N     0.16667   0.95240   0.83333   0.00000  Uiso   1.00
N1586  N     0.16667   0.71427   0.83333   0.00000  Uiso   1.00
O1587  O     0.10559   0.87154   0.83333   0.00000  Uiso   1.00
O1588  O     0.29225   0.91496   0.81914   0.00000  Uiso   1.00
O1589  O     0.29482   0.76028   0.87501   0.00000  Uiso   1.00
O1590  O     0.04232   0.91546   0.84314   0.00000  Uiso   1.00
O1591  O     0.22774   0.79513   0.83334   0.00000  Uiso   1.00
O1592  O     0.22774   0.87154   0.83334   0.00000  Uiso   1.00
O1593  O     0.10559   0.79513   0.83333   0.00000  Uiso   1.00
O1594  O     0.16667   0.87155   0.76178   0.00000  Uiso   1.00
O1595  O     0.16666   0.79512   0.90489   0.00000  Uiso   1.00
O1596  O     0.16666   0.87155   0.90489   0.00000  Uiso   1.00
O1597  O     0.16667   0.79512   0.76178   0.00000  Uiso   1.00
O1598  O     0.03770   0.75224   0.83261   0.00000  Uiso   1.00
Zn1599 Zn    0.16667   0.88437   0.83333   0.00000  Uiso   1.00
Zn1600 Zn    0.16667   0.78229   0.83333   0.00000  Uiso   1.00
Br1601 Br    0.54837   0.71952   0.92657   0.00000  Uiso   1.00
Br1602 Br    0.44221   0.94434   0.74887   0.00000  Uiso   1.00
Br1603 Br    0.44954   0.71998   0.74147   0.00000  Uiso   1.00
Br1604 Br    0.55978   0.94497   0.91551   0.00000  Uiso   1.00
C1605  C     0.41998   0.83332   0.83327   0.00000  Uiso   1.00
C1606  C     0.35486   0.87523   0.83605   0.00000  Uiso   1.00
C1607  C     0.62418   0.83510   0.83915   0.00000  Uiso   1.00
C1608  C     0.37567   0.83392   0.83486   0.00000  Uiso   1.00
C1609  C     0.52161   0.69026   0.87003   0.00000  Uiso   1.00
C1610  C     0.47703   0.97589   0.79775   0.00000  Uiso   1.00
C1611  C     0.47833   0.69021   0.79654   0.00000  Uiso   1.00
C1612  C     0.52328   0.97608   0.86850   0.00000  Uiso   1.00
C1613  C     0.35216   0.73079   0.78973   0.00000  Uiso   1.00
C1614  C     0.35867   0.68076   0.79377   0.00000  Uiso   1.00
C1615  C     0.62159   0.91968   0.76621   0.00000  Uiso   1.00
C1616  C     0.57992   0.83370   0.83560   0.00000  Uiso   1.00
C1617  C     0.59341   0.95884   0.75291   0.00000  Uiso   1.00
C1618  C     0.64664   0.75538   0.92440   0.00000  Uiso   1.00
C1619  C     0.65957   0.70707   0.93314   0.00000  Uiso   1.00
C1620  C     0.37444   0.92742   0.89464   0.00000  Uiso   1.00
C1621  C     0.41140   0.95693   0.90971   0.00000  Uiso   1.00
C1622  C     0.49998   0.83336   0.73972   0.00000  Uiso   1.00
C1623  C     0.50007   0.83332   0.92695   0.00000  Uiso   1.00
C1624  C     0.50003   0.83339   0.68853   0.00000  Uiso   1.00
C1625  C     0.50005   0.83333   0.97814   0.00000  Uiso   1.00
C1626  C     0.35323   0.79375   0.83775   0.00000  Uiso   1.00
C1627  C     0.64564   0.87519   0.82998   0.00000  Uiso   1.00
C1628  C     0.64607   0.79627   0.85147   0.00000  Uiso   1.00
H1629  H     0.36606   0.74365   0.75518   0.00000  Uiso   1.00
H1630  H     0.56168   0.95118   0.76414   0.00000  Uiso   1.00
H1631  H     0.62377   0.76450   0.95220   0.00000  Uiso   1.00
H1632  H     0.34088   0.77710   0.93319   0.00000  Uiso   1.00
H1633  H     0.35241   0.69916   0.90959   0.00000  Uiso   1.00
H1634  H     0.33618   0.70209   0.97333   0.00000  Uiso   1.00
H1635  H     0.63363   0.68389   0.92326   0.00000  Uiso   1.00
H1636  H     0.37561   0.89792   0.92054   0.00000  Uiso   1.00
H1637  H     0.34567   0.94614   0.90065   0.00000  Uiso   1.00
H1638  H     0.41232   0.98700   0.88543   0.00000  Uiso   1.00
H1639  H     0.40936   0.96781   0.94943   0.00000  Uiso   1.00
H1640  H     0.65154   0.73589   0.78501   0.00000  Uiso   1.00
H1641  H     0.44035   0.93795   0.90641   0.00000  Uiso   1.00
H1642  H     0.33904   0.99988   0.82291   0.00000  Uiso   1.00
H1643  H     0.35043   0.99820   0.75693   0.00000  Uiso   1.00
H1644  H     0.39125   0.67356   0.80431   0.00000  Uiso   1.00
H1645  H     0.60769   0.88925   0.74781   0.00000  Uiso   1.00
H1646  H     0.65226   0.92611   0.75066   0.00000  Uiso   1.00
H1647  H     0.60459   0.98958   0.77267   0.00000  Uiso   1.00
H1648  H     0.59259   0.96487   0.71164   0.00000  Uiso   1.00
N1649  N     0.50000   0.95240   0.83333   0.00000  Uiso   1.00
N1650  N     0.50000   0.71427   0.83333   0.00000  Uiso   1.00
O1651  O     0.43892   0.87154   0.83333   0.00000  Uiso   1.00
O1652  O     0.62558   0.91496   0.81914   0.00000  Uiso   1.00
O1653  O     0.62815   0.76028   0.87501   0.00000  Uiso   1.00
O1654  O     0.37566   0.91546   0.84314   0.00000  Uiso   1.00
O1655  O     0.56108   0.79513   0.83334   0.00000  Uiso   1.00
O1656  O     0.56108   0.87154   0.83334   0.00000  Uiso   1.00
O1657  O     0.43892   0.79513   0.83333   0.00000  Uiso   1.00
O1658  O     0.50000   0.87155   0.76178   0.00000  Uiso   1.00
O1659  O     0.50000   0.79512   0.90489   0.00000  Uiso   1.00
O1660  O     0.50000   0.87155   0.90489   0.00000  Uiso   1.00
O1661  O     0.50000   0.79512   0.76178   0.00000  Uiso   1.00
O1662  O     0.37103   0.75224   0.83261   0.00000  Uiso   1.00
Zn1663 Zn    0.50000   0.88437   0.83333   0.00000  Uiso   1.00
Zn1664 Zn    0.50000   0.78229   0.83333   0.00000  Uiso   1.00
Br1665 Br    0.88170   0.71952   0.92657   0.00000  Uiso   1.00
Br1666 Br    0.77555   0.94434   0.74887   0.00000  Uiso   1.00
Br1667 Br    0.78287   0.71998   0.74147   0.00000  Uiso   1.00
Br1668 Br    0.89312   0.94497   0.91551   0.00000  Uiso   1.00
C1669  C     0.75331   0.83332   0.83327   0.00000  Uiso   1.00
C1670  C     0.68819   0.87523   0.83605   0.00000  Uiso   1.00
C1671  C     0.95751   0.83510   0.83915   0.00000  Uiso   1.00
C1672  C     0.70900   0.83392   0.83486   0.00000  Uiso   1.00
C1673  C     0.85494   0.69026   0.87003   0.00000  Uiso   1.00
C1674  C     0.81037   0.97589   0.79775   0.00000  Uiso   1.00
C1675  C     0.81167   0.69021   0.79654   0.00000  Uiso   1.00
C1676  C     0.85662   0.97608   0.86850   0.00000  Uiso   1.00
C1677  C     0.68550   0.73079   0.78973   0.00000  Uiso   1.00
C1678  C     0.69200   0.68076   0.79377   0.00000  Uiso   1.00
C1679  C     0.95493   0.91968   0.76621   0.00000  Uiso   1.00
C1680  C     0.91325   0.83370   0.83560   0.00000  Uiso   1.00
C1681  C     0.92674   0.95884   0.75291   0.00000  Uiso   1.00
C1682  C     0.97998   0.75538   0.92440   0.00000  Uiso   1.00
C1683  C     0.99290   0.70707   0.93314   0.00000  Uiso   1.00
C1684  C     0.70778   0.92742   0.89464   0.00000  Uiso   1.00
C1685  C     0.74473   0.95693   0.90971   0.00000  Uiso   1.00
C1686  C     0.83331   0.83336   0.73972   0.00000  Uiso   1.00
C1687  C     0.83340   0.83332   0.92695   0.00000  Uiso   1.00
C1688  C     0.83336   0.83339   0.68853   0.00000  Uiso   1.00
C1689  C     0.83339   0.83333   0.97814   0.00000  Uiso   1.00
C1690  C     0.68656   0.79375   0.83775   0.00000  Uiso   1.00
C1691  C     0.97897   0.87519   0.82998   0.00000  Uiso   1.00
C1692  C     0.97941   0.79627   0.85147   0.00000  Uiso   1.00
H1693  H     0.69939   0.74365   0.75518   0.00000  Uiso   1.00
H1694  H     0.89501   0.95118   0.76414   0.00000  Uiso   1.00
H1695  H     0.95711   0.76450   0.95220   0.00000  Uiso   1.00
H1696  H     0.67421   0.77710   0.93319   0.00000  Uiso   1.00
H1697  H     0.68574   0.69916   0.90959   0.00000  Uiso   1.00
H1698  H     0.66951   0.70209   0.97333   0.00000  Uiso   1.00
H1699  H     0.96696   0.68389   0.92326   0.00000  Uiso   1.00
H1700  H     0.70895   0.89792   0.92054   0.00000  Uiso   1.00
H1701  H     0.67900   0.94614   0.90065   0.00000  Uiso   1.00
H1702  H     0.74565   0.98700   0.88543   0.00000  Uiso   1.00
H1703  H     0.74269   0.96781   0.94943   0.00000  Uiso   1.00
H1704  H     0.98488   0.73589   0.78501   0.00000  Uiso   1.00
H1705  H     0.77368   0.93795   0.90641   0.00000  Uiso   1.00
H1706  H     0.67238   0.99988   0.82291   0.00000  Uiso   1.00
H1707  H     0.68376   0.99820   0.75693   0.00000  Uiso   1.00
H1708  H     0.72459   0.67356   0.80431   0.00000  Uiso   1.00
H1709  H     0.94103   0.88925   0.74781   0.00000  Uiso   1.00
H1710  H     0.98560   0.92611   0.75066   0.00000  Uiso   1.00
H1711  H     0.93793   0.98958   0.77267   0.00000  Uiso   1.00
H1712  H     0.92592   0.96487   0.71164   0.00000  Uiso   1.00
N1713  N     0.83333   0.95240   0.83333   0.00000  Uiso   1.00
N1714  N     0.83333   0.71427   0.83333   0.00000  Uiso   1.00
O1715  O     0.77226   0.87154   0.83333   0.00000  Uiso   1.00
O1716  O     0.95891   0.91496   0.81914   0.00000  Uiso   1.00
O1717  O     0.96148   0.76028   0.87501   0.00000  Uiso   1.00
O1718  O     0.70899   0.91546   0.84314   0.00000  Uiso   1.00
O1719  O     0.89441   0.79513   0.83334   0.00000  Uiso   1.00
O1720  O     0.89441   0.87154   0.83334   0.00000  Uiso   1.00
O1721  O     0.77226   0.79513   0.83333   0.00000  Uiso   1.00
O1722  O     0.83334   0.87155   0.76178   0.00000  Uiso   1.00
O1723  O     0.83333   0.79512   0.90489   0.00000  Uiso   1.00
O1724  O     0.83333   0.87155   0.90489   0.00000  Uiso   1.00
O1725  O     0.83334   0.79512   0.76178   0.00000  Uiso   1.00
O1726  O     0.70437   0.75224   0.83261   0.00000  Uiso   1.00
Zn1727 Zn    0.83333   0.88437   0.83333   0.00000  Uiso   1.00
Zn1728 Zn    0.83333   0.78229   0.83333   0.00000  Uiso   1.00
loop_
_geom_bond_atom_site_label_1
_geom_bond_atom_site_label_2
_geom_bond_distance
_geom_bond_site_symmetry_2
_ccdc_geom_bond_type
Br1    C9      1.909   .     S
Br2    C10     1.924   .     S
Br3    C11     1.919   .     S
Br4    C12     1.923   .     S
C5     C8      1.442   .     S
C5     O57     1.301   .     A
C5     O51     1.295   .     A
C6     O54     1.384   .     S
C6     C8      1.414   .     A
C6     C155    1.383   1_455 S
C7     C16     1.436   .     S
C7     C28     1.396   .     A
C7     C27     1.410   .     A
C8     C26     1.405   .     A
C9     N50     1.377   .     A
C9     C396    1.424   1_545 S
C10    N49     1.371   .     A
C10    C203    1.426   .     S
C11    N50     1.377   .     A
C11    C394    1.426   1_545 S
C12    N49     1.368   .     A
C12    C201    1.424   .     S
C13    O62     1.419   .     S
C13    H29     1.110   .     S
C13    C14     1.516   .     S
C13    H168    1.115   1_455 S
C14    H44     1.104   .     S
C14    H426    1.110   1_545 S
C14    H427    1.109   1_545 S
C15    O52     1.414   .     S
C15    C17     1.522   .     S
C15    H45     1.116   .     S
C15    H46     1.113   .     S
C16    O56     1.291   .     A
C16    O55     1.303   .     A
C17    H48     1.111   .     S
C17    H30     1.109   .     S
C17    H47     1.110   .     S
C18    O53     1.424   .     S
C18    C19     1.522   .     S
C18    H31     1.109   .     S
C18    H96     1.118   .     S
C19    H35     1.109   .     S
C19    H97     1.108   .     S
C19    H98     1.111   .     S
C20    H36     1.118   .     S
C20    C21     1.523   .     S
C20    H37     1.111   .     S
C20    O54     1.418   .     S
C21    H41     1.109   .     S
C21    H38     1.107   .     S
C21    H39     1.111   .     S
C22    O58     1.285   .     A
C22    O61     1.285   .     A
C22    C24     1.361   .     S
C23    O59     1.285   .     A
C23    C25     1.361   .     S
C23    O60     1.284   .     A
C24    C1177   1.162   1_554 S
C25    C600    1.162   .     S
C26    O62     1.383   .     S
C26    C156    1.384   1_455 S
C27    O52     1.384   .     S
C27    C70     1.383   .     S
C28    O53     1.384   .     S
C28    C90     1.384   .     S
H32    C146    1.118   1_455 S
H33    C147    1.108   1_455 S
H34    C147    1.111   1_455 S
H40    C77     1.115   .     S
H42    C206    1.110   .     S
H43    C206    1.109   .     S
N49    Zn63    2.035   .     S
N50    Zn64    2.035   .     S
O51    Zn63    2.018   .     S
O55    Zn64    2.018   .     S
O56    Zn63    2.023   .     S
O57    Zn64    2.023   .     S
O58    Zn63    1.941   .     S
O59    Zn64    1.941   .     S
O60    Zn63    1.940   .     S
O61    Zn64    1.940   .     S
Br65   C73     1.909   .     S
Br66   C74     1.924   .     S
Br67   C75     1.919   .     S
Br68   C76     1.923   .     S
C69    C72     1.442   .     S
C69    O121    1.301   .     A
C69    O115    1.295   .     A
C70    O118    1.384   .     S
C70    C72     1.414   .     A
C71    C80     1.436   .     S
C71    C92     1.396   .     A
C71    C91     1.410   .     A
C72    C90     1.405   .     A
C73    N114    1.377   .     A
C73    C460    1.424   1_545 S
C74    N113    1.371   .     A
C74    C267    1.426   .     S
C75    N114    1.377   .     A
C75    C458    1.426   1_545 S
C76    N113    1.368   .     A
C76    C265    1.424   .     S
C77    O126    1.419   .     S
C77    H93     1.110   .     S
C77    C78     1.516   .     S
C78    H108    1.104   .     S
C78    H490    1.110   1_545 S
C78    H491    1.109   1_545 S
C79    O116    1.414   .     S
C79    C81     1.522   .     S
C79    H109    1.116   .     S
C79    H110    1.113   .     S
C80    O120    1.291   .     A
C80    O119    1.303   .     A
C81    H112    1.111   .     S
C81    H94     1.109   .     S
C81    H111    1.110   .     S
C82    O117    1.424   .     S
C82    C83     1.522   .     S
C82    H95     1.109   .     S
C82    H160    1.118   .     S
C83    H99     1.109   .     S
C83    H161    1.108   .     S
C83    H162    1.111   .     S
C84    H100    1.118   .     S
C84    C85     1.523   .     S
C84    H101    1.111   .     S
C84    O118    1.418   .     S
C85    H105    1.109   .     S
C85    H102    1.107   .     S
C85    H103    1.111   .     S
C86    O122    1.285   .     A
C86    O125    1.285   .     A
C86    C88     1.361   .     S
C87    O123    1.285   .     A
C87    C89     1.361   .     S
C87    O124    1.284   .     A
C88    C1241   1.162   1_554 S
C89    C664    1.162   .     S
C90    O126    1.383   .     S
C91    O116    1.384   .     S
C91    C134    1.383   .     S
C92    O117    1.384   .     S
C92    C154    1.384   .     S
H104   C141    1.115   .     S
H106   C270    1.110   .     S
H107   C270    1.109   .     S
N113   Zn127   2.035   .     S
N114   Zn128   2.035   .     S
O115   Zn127   2.018   .     S
O119   Zn128   2.018   .     S
O120   Zn127   2.023   .     S
O121   Zn128   2.023   .     S
O122   Zn127   1.941   .     S
O123   Zn128   1.941   .     S
O124   Zn127   1.940   .     S
O125   Zn128   1.940   .     S
Br129  C137    1.909   .     S
Br130  C138    1.924   .     S
Br131  C139    1.919   .     S
Br132  C140    1.923   .     S
C133   C136    1.442   .     S
C133   O185    1.301   .     A
C133   O179    1.295   .     A
C134   O182    1.384   .     S
C134   C136    1.414   .     A
C135   C144    1.436   .     S
C135   C156    1.396   .     A
C135   C155    1.410   .     A
C136   C154    1.405   .     A
C137   N178    1.377   .     A
C137   C524    1.424   1_545 S
C138   N177    1.371   .     A
C138   C331    1.426   .     S
C139   N178    1.377   .     A
C139   C522    1.426   1_545 S
C140   N177    1.368   .     A
C140   C329    1.424   .     S
C141   O190    1.419   .     S
C141   H157    1.110   .     S
C141   C142    1.516   .     S
C142   H172    1.104   .     S
C142   H554    1.110   1_545 S
C142   H555    1.109   1_545 S
C143   O180    1.414   .     S
C143   C145    1.522   .     S
C143   H173    1.116   .     S
C143   H174    1.113   .     S
C144   O184    1.291   .     A
C144   O183    1.303   .     A
C145   H176    1.111   .     S
C145   H158    1.109   .     S
C145   H175    1.110   .     S
C146   O181    1.424   .     S
C146   C147    1.522   .     S
C146   H159    1.109   .     S
C146   H32     1.118   1_655 S
C147   H163    1.109   .     S
C147   H33     1.108   1_655 S
C147   H34     1.111   1_655 S
C148   H164    1.118   .     S
C148   C149    1.523   .     S
C148   H165    1.111   .     S
C148   O182    1.418   .     S
C149   H169    1.109   .     S
C149   H166    1.107   .     S
C149   H167    1.111   .     S
C150   O186    1.285   .     A
C150   O189    1.285   .     A
C150   C152    1.361   .     S
C151   O187    1.285   .     A
C151   C153    1.361   .     S
C151   O188    1.284   .     A
C152   C1305   1.162   1_554 S
C153   C728    1.162   .     S
C154   O190    1.383   .     S
C155   O180    1.384   .     S
C155   C6      1.383   1_655 S
C156   O181    1.384   .     S
C156   C26     1.384   1_655 S
H168   C13     1.115   1_655 S
H170   C334    1.110   .     S
H171   C334    1.109   .     S
N177   Zn191   2.035   .     S
N178   Zn192   2.035   .     S
O179   Zn191   2.018   .     S
O183   Zn192   2.018   .     S
O184   Zn191   2.023   .     S
O185   Zn192   2.023   .     S
O186   Zn191   1.941   .     S
O187   Zn192   1.941   .     S
O188   Zn191   1.940   .     S
O189   Zn192   1.940   .     S
Br193  C201    1.909   .     S
Br194  C202    1.924   .     S
Br195  C203    1.919   .     S
Br196  C204    1.923   .     S
C197   C200    1.442   .     S
C197   O249    1.301   .     A
C197   O243    1.295   .     A
C198   O246    1.384   .     S
C198   C200    1.414   .     A
C198   C347    1.383   1_455 S
C199   C208    1.436   .     S
C199   C220    1.396   .     A
C199   C219    1.410   .     A
C200   C218    1.405   .     A
C201   N242    1.377   .     A
C202   N241    1.371   .     A
C202   C395    1.426   .     S
C203   N242    1.377   .     A
C204   N241    1.368   .     A
C204   C393    1.424   .     S
C205   O254    1.419   .     S
C205   H221    1.110   .     S
C205   C206    1.516   .     S
C205   H360    1.115   1_455 S
C206   H236    1.104   .     S
C207   O244    1.414   .     S
C207   C209    1.522   .     S
C207   H237    1.116   .     S
C207   H238    1.113   .     S
C208   O248    1.291   .     A
C208   O247    1.303   .     A
C209   H240    1.111   .     S
C209   H222    1.109   .     S
C209   H239    1.110   .     S
C210   O245    1.424   .     S
C210   C211    1.522   .     S
C210   H223    1.109   .     S
C210   H288    1.118   .     S
C211   H227    1.109   .     S
C211   H289    1.108   .     S
C211   H290    1.111   .     S
C212   H228    1.118   .     S
C212   C213    1.523   .     S
C212   H229    1.111   .     S
C212   O246    1.418   .     S
C213   H233    1.109   .     S
C213   H230    1.107   .     S
C213   H231    1.111   .     S
C214   O250    1.285   .     A
C214   O253    1.285   .     A
C214   C216    1.361   .     S
C215   O251    1.285   .     A
C215   C217    1.361   .     S
C215   O252    1.284   .     A
C216   C1369   1.162   1_554 S
C217   C792    1.162   .     S
C218   O254    1.383   .     S
C218   C348    1.384   1_455 S
C219   O244    1.384   .     S
C219   C262    1.383   .     S
C220   O245    1.384   .     S
C220   C282    1.384   .     S
H224   C338    1.118   1_455 S
H225   C339    1.108   1_455 S
H226   C339    1.111   1_455 S
H232   C269    1.115   .     S
H234   C398    1.110   .     S
H235   C398    1.109   .     S
N241   Zn255   2.035   .     S
N242   Zn256   2.035   .     S
O243   Zn255   2.018   .     S
O247   Zn256   2.018   .     S
O248   Zn255   2.023   .     S
O249   Zn256   2.023   .     S
O250   Zn255   1.941   .     S
O251   Zn256   1.941   .     S
O252   Zn255   1.940   .     S
O253   Zn256   1.940   .     S
Br257  C265    1.909   .     S
Br258  C266    1.924   .     S
Br259  C267    1.919   .     S
Br260  C268    1.923   .     S
C261   C264    1.442   .     S
C261   O313    1.301   .     A
C261   O307    1.295   .     A
C262   O310    1.384   .     S
C262   C264    1.414   .     A
C263   C272    1.436   .     S
C263   C284    1.396   .     A
C263   C283    1.410   .     A
C264   C282    1.405   .     A
C265   N306    1.377   .     A
C266   N305    1.371   .     A
C266   C459    1.426   .     S
C267   N306    1.377   .     A
C268   N305    1.368   .     A
C268   C457    1.424   .     S
C269   O318    1.419   .     S
C269   H285    1.110   .     S
C269   C270    1.516   .     S
C270   H300    1.104   .     S
C271   O308    1.414   .     S
C271   C273    1.522   .     S
C271   H301    1.116   .     S
C271   H302    1.113   .     S
C272   O312    1.291   .     A
C272   O311    1.303   .     A
C273   H304    1.111   .     S
C273   H286    1.109   .     S
C273   H303    1.110   .     S
C274   O309    1.424   .     S
C274   C275    1.522   .     S
C274   H287    1.109   .     S
C274   H352    1.118   .     S
C275   H291    1.109   .     S
C275   H353    1.108   .     S
C275   H354    1.111   .     S
C276   H292    1.118   .     S
C276   C277    1.523   .     S
C276   H293    1.111   .     S
C276   O310    1.418   .     S
C277   H297    1.109   .     S
C277   H294    1.107   .     S
C277   H295    1.111   .     S
C278   O314    1.285   .     A
C278   O317    1.285   .     A
C278   C280    1.361   .     S
C279   O315    1.285   .     A
C279   C281    1.361   .     S
C279   O316    1.284   .     A
C280   C1433   1.162   1_554 S
C281   C856    1.162   .     S
C282   O318    1.383   .     S
C283   O308    1.384   .     S
C283   C326    1.383   .     S
C284   O309    1.384   .     S
C284   C346    1.384   .     S
H296   C333    1.115   .     S
H298   C462    1.110   .     S
H299   C462    1.109   .     S
N305   Zn319   2.035   .     S
N306   Zn320   2.035   .     S
O307   Zn319   2.018   .     S
O311   Zn320   2.018   .     S
O312   Zn319   2.023   .     S
O313   Zn320   2.023   .     S
O314   Zn319   1.941   .     S
O315   Zn320   1.941   .     S
O316   Zn319   1.940   .     S
O317   Zn320   1.940   .     S
Br321  C329    1.909   .     S
Br322  C330    1.924   .     S
Br323  C331    1.919   .     S
Br324  C332    1.923   .     S
C325   C328    1.442   .     S
C325   O377    1.301   .     A
C325   O371    1.295   .     A
C326   O374    1.384   .     S
C326   C328    1.414   .     A
C327   C336    1.436   .     S
C327   C348    1.396   .     A
C327   C347    1.410   .     A
C328   C346    1.405   .     A
C329   N370    1.377   .     A
C330   N369    1.371   .     A
C330   C523    1.426   .     S
C331   N370    1.377   .     A
C332   N369    1.368   .     A
C332   C521    1.424   .     S
C333   O382    1.419   .     S
C333   H349    1.110   .     S
C333   C334    1.516   .     S
C334   H364    1.104   .     S
C335   O372    1.414   .     S
C335   C337    1.522   .     S
C335   H365    1.116   .     S
C335   H366    1.113   .     S
C336   O376    1.291   .     A
C336   O375    1.303   .     A
C337   H368    1.111   .     S
C337   H350    1.109   .     S
C337   H367    1.110   .     S
C338   O373    1.424   .     S
C338   C339    1.522   .     S
C338   H351    1.109   .     S
C338   H224    1.118   1_655 S
C339   H355    1.109   .     S
C339   H225    1.108   1_655 S
C339   H226    1.111   1_655 S
C340   H356    1.118   .     S
C340   C341    1.523   .     S
C340   H357    1.111   .     S
C340   O374    1.418   .     S
C341   H361    1.109   .     S
C341   H358    1.107   .     S
C341   H359    1.111   .     S
C342   O378    1.285   .     A
C342   O381    1.285   .     A
C342   C344    1.361   .     S
C343   O379    1.285   .     A
C343   C345    1.361   .     S
C343   O380    1.284   .     A
C344   C1497   1.162   1_554 S
C345   C920    1.162   .     S
C346   O382    1.383   .     S
C347   O372    1.384   .     S
C347   C198    1.383   1_655 S
C348   O373    1.384   .     S
C348   C218    1.384   1_655 S
H360   C205    1.115   1_655 S
H362   C526    1.110   .     S
H363   C526    1.109   .     S
N369   Zn383   2.035   .     S
N370   Zn384   2.035   .     S
O371   Zn383   2.018   .     S
O375   Zn384   2.018   .     S
O376   Zn383   2.023   .     S
O377   Zn384   2.023   .     S
O378   Zn383   1.941   .     S
O379   Zn384   1.941   .     S
O380   Zn383   1.940   .     S
O381   Zn384   1.940   .     S
Br385  C393    1.909   .     S
Br386  C394    1.924   .     S
Br387  C395    1.919   .     S
Br388  C396    1.923   .     S
C389   C392    1.442   .     S
C389   O441    1.301   .     A
C389   O435    1.295   .     A
C390   O438    1.384   .     S
C390   C392    1.414   .     A
C390   C539    1.383   1_455 S
C391   C400    1.436   .     S
C391   C412    1.396   .     A
C391   C411    1.410   .     A
C392   C410    1.405   .     A
C393   N434    1.377   .     A
C394   N433    1.371   .     A
C394   C11     1.426   1_565 S
C395   N434    1.377   .     A
C396   N433    1.368   .     A
C396   C9      1.424   1_565 S
C397   O446    1.419   .     S
C397   H413    1.110   .     S
C397   C398    1.516   .     S
C397   H552    1.115   1_455 S
C398   H428    1.104   .     S
C399   O436    1.414   .     S
C399   C401    1.522   .     S
C399   H429    1.116   .     S
C399   H430    1.113   .     S
C400   O440    1.291   .     A
C400   O439    1.303   .     A
C401   H432    1.111   .     S
C401   H414    1.109   .     S
C401   H431    1.110   .     S
C402   O437    1.424   .     S
C402   C403    1.522   .     S
C402   H415    1.109   .     S
C402   H480    1.118   .     S
C403   H419    1.109   .     S
C403   H481    1.108   .     S
C403   H482    1.111   .     S
C404   H420    1.118   .     S
C404   C405    1.523   .     S
C404   H421    1.111   .     S
C404   O438    1.418   .     S
C405   H425    1.109   .     S
C405   H422    1.107   .     S
C405   H423    1.111   .     S
C406   O442    1.285   .     A
C406   O445    1.285   .     A
C406   C408    1.361   .     S
C407   O443    1.285   .     A
C407   C409    1.361   .     S
C407   O444    1.284   .     A
C408   C1561   1.162   1_554 S
C409   C984    1.162   .     S
C410   O446    1.383   .     S
C410   C540    1.384   1_455 S
C411   O436    1.384   .     S
C411   C454    1.383   .     S
C412   O437    1.384   .     S
C412   C474    1.384   .     S
H416   C530    1.118   1_455 S
H417   C531    1.108   1_455 S
H418   C531    1.111   1_455 S
H424   C461    1.115   .     S
H426   C14     1.110   1_565 S
H427   C14     1.109   1_565 S
N433   Zn447   2.035   .     S
N434   Zn448   2.035   .     S
O435   Zn447   2.018   .     S
O439   Zn448   2.018   .     S
O440   Zn447   2.023   .     S
O441   Zn448   2.023   .     S
O442   Zn447   1.941   .     S
O443   Zn448   1.941   .     S
O444   Zn447   1.940   .     S
O445   Zn448   1.940   .     S
Br449  C457    1.909   .     S
Br450  C458    1.924   .     S
Br451  C459    1.919   .     S
Br452  C460    1.923   .     S
C453   C456    1.442   .     S
C453   O505    1.301   .     A
C453   O499    1.295   .     A
C454   O502    1.384   .     S
C454   C456    1.414   .     A
C455   C464    1.436   .     S
C455   C476    1.396   .     A
C455   C475    1.410   .     A
C456   C474    1.405   .     A
C457   N498    1.377   .     A
C458   N497    1.371   .     A
C458   C75     1.426   1_565 S
C459   N498    1.377   .     A
C460   N497    1.368   .     A
C460   C73     1.424   1_565 S
C461   O510    1.419   .     S
C461   H477    1.110   .     S
C461   C462    1.516   .     S
C462   H492    1.104   .     S
C463   O500    1.414   .     S
C463   C465    1.522   .     S
C463   H493    1.116   .     S
C463   H494    1.113   .     S
C464   O504    1.291   .     A
C464   O503    1.303   .     A
C465   H496    1.111   .     S
C465   H478    1.109   .     S
C465   H495    1.110   .     S
C466   O501    1.424   .     S
C466   C467    1.522   .     S
C466   H479    1.109   .     S
C466   H544    1.118   .     S
C467   H483    1.109   .     S
C467   H545    1.108   .     S
C467   H546    1.111   .     S
C468   H484    1.118   .     S
C468   C469    1.523   .     S
C468   H485    1.111   .     S
C468   O502    1.418   .     S
C469   H489    1.109   .     S
C469   H486    1.107   .     S
C469   H487    1.111   .     S
C470   O506    1.285   .     A
C470   O509    1.285   .     A
C470   C472    1.361   .     S
C471   O507    1.285   .     A
C471   C473    1.361   .     S
C471   O508    1.284   .     A
C472   C1625   1.162   1_554 S
C473   C1048   1.162   .     S
C474   O510    1.383   .     S
C475   O500    1.384   .     S
C475   C518    1.383   .     S
C476   O501    1.384   .     S
C476   C538    1.384   .     S
H488   C525    1.115   .     S
H490   C78     1.110   1_565 S
H491   C78     1.109   1_565 S
N497   Zn511   2.035   .     S
N498   Zn512   2.035   .     S
O499   Zn511   2.018   .     S
O503   Zn512   2.018   .     S
O504   Zn511   2.023   .     S
O505   Zn512   2.023   .     S
O506   Zn511   1.941   .     S
O507   Zn512   1.941   .     S
O508   Zn511   1.940   .     S
O509   Zn512   1.940   .     S
Br513  C521    1.909   .     S
Br514  C522    1.924   .     S
Br515  C523    1.919   .     S
Br516  C524    1.923   .     S
C517   C520    1.442   .     S
C517   O569    1.301   .     A
C517   O563    1.295   .     A
C518   O566    1.384   .     S
C518   C520    1.414   .     A
C519   C528    1.436   .     S
C519   C540    1.396   .     A
C519   C539    1.410   .     A
C520   C538    1.405   .     A
C521   N562    1.377   .     A
C522   N561    1.371   .     A
C522   C139    1.426   1_565 S
C523   N562    1.377   .     A
C524   N561    1.368   .     A
C524   C137    1.424   1_565 S
C525   O574    1.419   .     S
C525   H541    1.110   .     S
C525   C526    1.516   .     S
C526   H556    1.104   .     S
C527   O564    1.414   .     S
C527   C529    1.522   .     S
C527   H557    1.116   .     S
C527   H558    1.113   .     S
C528   O568    1.291   .     A
C528   O567    1.303   .     A
C529   H560    1.111   .     S
C529   H542    1.109   .     S
C529   H559    1.110   .     S
C530   O565    1.424   .     S
C530   C531    1.522   .     S
C530   H543    1.109   .     S
C530   H416    1.118   1_655 S
C531   H547    1.109   .     S
C531   H417    1.108   1_655 S
C531   H418    1.111   1_655 S
C532   H548    1.118   .     S
C532   C533    1.523   .     S
C532   H549    1.111   .     S
C532   O566    1.418   .     S
C533   H553    1.109   .     S
C533   H550    1.107   .     S
C533   H551    1.111   .     S
C534   O570    1.285   .     A
C534   O573    1.285   .     A
C534   C536    1.361   .     S
C535   O571    1.285   .     A
C535   C537    1.361   .     S
C535   O572    1.284   .     A
C536   C1689   1.162   1_554 S
C537   C1112   1.162   .     S
C538   O574    1.383   .     S
C539   O564    1.384   .     S
C539   C390    1.383   1_655 S
C540   O565    1.384   .     S
C540   C410    1.384   1_655 S
H552   C397    1.115   1_655 S
H554   C142    1.110   1_565 S
H555   C142    1.109   1_565 S
N561   Zn575   2.035   .     S
N562   Zn576   2.035   .     S
O563   Zn575   2.018   .     S
O567   Zn576   2.018   .     S
O568   Zn575   2.023   .     S
O569   Zn576   2.023   .     S
O570   Zn575   1.941   .     S
O571   Zn576   1.941   .     S
O572   Zn575   1.940   .     S
O573   Zn576   1.940   .     S
Br577  C585    1.909   .     S
Br578  C586    1.924   .     S
Br579  C587    1.919   .     S
Br580  C588    1.923   .     S
C581   C584    1.442   .     S
C581   O633    1.301   .     A
C581   O627    1.295   .     A
C582   O630    1.384   .     S
C582   C584    1.414   .     A
C582   C731    1.383   1_455 S
C583   C592    1.436   .     S
C583   C604    1.396   .     A
C583   C603    1.410   .     A
C584   C602    1.405   .     A
C585   N626    1.377   .     A
C585   C972    1.424   1_545 S
C586   N625    1.371   .     A
C586   C779    1.426   .     S
C587   N626    1.377   .     A
C587   C970    1.426   1_545 S
C588   N625    1.368   .     A
C588   C777    1.424   .     S
C589   O638    1.419   .     S
C589   H605    1.110   .     S
C589   C590    1.516   .     S
C589   H744    1.115   1_455 S
C590   H620    1.104   .     S
C590   H1002   1.110   1_545 S
C590   H1003   1.109   1_545 S
C591   O628    1.414   .     S
C591   C593    1.522   .     S
C591   H621    1.116   .     S
C591   H622    1.113   .     S
C592   O632    1.291   .     A
C592   O631    1.303   .     A
C593   H624    1.111   .     S
C593   H606    1.109   .     S
C593   H623    1.110   .     S
C594   O629    1.424   .     S
C594   C595    1.522   .     S
C594   H607    1.109   .     S
C594   H672    1.118   .     S
C595   H611    1.109   .     S
C595   H673    1.108   .     S
C595   H674    1.111   .     S
C596   H612    1.118   .     S
C596   C597    1.523   .     S
C596   H613    1.111   .     S
C596   O630    1.418   .     S
C597   H617    1.109   .     S
C597   H614    1.107   .     S
C597   H615    1.111   .     S
C598   O634    1.285   .     A
C598   O637    1.285   .     A
C598   C600    1.361   .     S
C599   O635    1.285   .     A
C599   C601    1.361   .     S
C599   O636    1.284   .     A
C601   C1176   1.162   .     S
C602   O638    1.383   .     S
C602   C732    1.384   1_455 S
C603   O628    1.384   .     S
C603   C646    1.383   .     S
C604   O629    1.384   .     S
C604   C666    1.384   .     S
H608   C722    1.118   1_455 S
H609   C723    1.108   1_455 S
H610   C723    1.111   1_455 S
H616   C653    1.115   .     S
H618   C782    1.110   .     S
H619   C782    1.109   .     S
N625   Zn639   2.035   .     S
N626   Zn640   2.035   .     S
O627   Zn639   2.018   .     S
O631   Zn640   2.018   .     S
O632   Zn639   2.023   .     S
O633   Zn640   2.023   .     S
O634   Zn639   1.941   .     S
O635   Zn640   1.941   .     S
O636   Zn639   1.940   .     S
O637   Zn640   1.940   .     S
Br641  C649    1.909   .     S
Br642  C650    1.924   .     S
Br643  C651    1.919   .     S
Br644  C652    1.923   .     S
C645   C648    1.442   .     S
C645   O697    1.301   .     A
C645   O691    1.295   .     A
C646   O694    1.384   .     S
C646   C648    1.414   .     A
C647   C656    1.436   .     S
C647   C668    1.396   .     A
C647   C667    1.410   .     A
C648   C666    1.405   .     A
C649   N690    1.377   .     A
C649   C1036   1.424   1_545 S
C650   N689    1.371   .     A
C650   C843    1.426   .     S
C651   N690    1.377   .     A
C651   C1034   1.426   1_545 S
C652   N689    1.368   .     A
C652   C841    1.424   .     S
C653   O702    1.419   .     S
C653   H669    1.110   .     S
C653   C654    1.516   .     S
C654   H684    1.104   .     S
C654   H1066   1.110   1_545 S
C654   H1067   1.109   1_545 S
C655   O692    1.414   .     S
C655   C657    1.522   .     S
C655   H685    1.116   .     S
C655   H686    1.113   .     S
C656   O696    1.291   .     A
C656   O695    1.303   .     A
C657   H688    1.111   .     S
C657   H670    1.109   .     S
C657   H687    1.110   .     S
C658   O693    1.424   .     S
C658   C659    1.522   .     S
C658   H671    1.109   .     S
C658   H736    1.118   .     S
C659   H675    1.109   .     S
C659   H737    1.108   .     S
C659   H738    1.111   .     S
C660   H676    1.118   .     S
C660   C661    1.523   .     S
C660   H677    1.111   .     S
C660   O694    1.418   .     S
C661   H681    1.109   .     S
C661   H678    1.107   .     S
C661   H679    1.111   .     S
C662   O698    1.285   .     A
C662   O701    1.285   .     A
C662   C664    1.361   .     S
C663   O699    1.285   .     A
C663   C665    1.361   .     S
C663   O700    1.284   .     A
C665   C1240   1.162   .     S
C666   O702    1.383   .     S
C667   O692    1.384   .     S
C667   C710    1.383   .     S
C668   O693    1.384   .     S
C668   C730    1.384   .     S
H680   C717    1.115   .     S
H682   C846    1.110   .     S
H683   C846    1.109   .     S
N689   Zn703   2.035   .     S
N690   Zn704   2.035   .     S
O691   Zn703   2.018   .     S
O695   Zn704   2.018   .     S
O696   Zn703   2.023   .     S
O697   Zn704   2.023   .     S
O698   Zn703   1.941   .     S
O699   Zn704   1.941   .     S
O700   Zn703   1.940   .     S
O701   Zn704   1.940   .     S
Br705  C713    1.909   .     S
Br706  C714    1.924   .     S
Br707  C715    1.919   .     S
Br708  C716    1.923   .     S
C709   C712    1.442   .     S
C709   O761    1.301   .     A
C709   O755    1.295   .     A
C710   O758    1.384   .     S
C710   C712    1.414   .     A
C711   C720    1.436   .     S
C711   C732    1.396   .     A
C711   C731    1.410   .     A
C712   C730    1.405   .     A
C713   N754    1.377   .     A
C713   C1100   1.424   1_545 S
C714   N753    1.371   .     A
C714   C907    1.426   .     S
C715   N754    1.377   .     A
C715   C1098   1.426   1_545 S
C716   N753    1.368   .     A
C716   C905    1.424   .     S
C717   O766    1.419   .     S
C717   H733    1.110   .     S
C717   C718    1.516   .     S
C718   H748    1.104   .     S
C718   H1130   1.110   1_545 S
C718   H1131   1.109   1_545 S
C719   O756    1.414   .     S
C719   C721    1.522   .     S
C719   H749    1.116   .     S
C719   H750    1.113   .     S
C720   O760    1.291   .     A
C720   O759    1.303   .     A
C721   H752    1.111   .     S
C721   H734    1.109   .     S
C721   H751    1.110   .     S
C722   O757    1.424   .     S
C722   C723    1.522   .     S
C722   H735    1.109   .     S
C722   H608    1.118   1_655 S
C723   H739    1.109   .     S
C723   H609    1.108   1_655 S
C723   H610    1.111   1_655 S
C724   H740    1.118   .     S
C724   C725    1.523   .     S
C724   H741    1.111   .     S
C724   O758    1.418   .     S
C725   H745    1.109   .     S
C725   H742    1.107   .     S
C725   H743    1.111   .     S
C726   O762    1.285   .     A
C726   O765    1.285   .     A
C726   C728    1.361   .     S
C727   O763    1.285   .     A
C727   C729    1.361   .     S
C727   O764    1.284   .     A
C729   C1304   1.162   .     S
C730   O766    1.383   .     S
C731   O756    1.384   .     S
C731   C582    1.383   1_655 S
C732   O757    1.384   .     S
C732   C602    1.384   1_655 S
H744   C589    1.115   1_655 S
H746   C910    1.110   .     S
H747   C910    1.109   .     S
N753   Zn767   2.035   .     S
N754   Zn768   2.035   .     S
O755   Zn767   2.018   .     S
O759   Zn768   2.018   .     S
O760   Zn767   2.023   .     S
O761   Zn768   2.023   .     S
O762   Zn767   1.941   .     S
O763   Zn768   1.941   .     S
O764   Zn767   1.940   .     S
O765   Zn768   1.940   .     S
Br769  C777    1.909   .     S
Br770  C778    1.924   .     S
Br771  C779    1.919   .     S
Br772  C780    1.923   .     S
C773   C776    1.442   .     S
C773   O825    1.301   .     A
C773   O819    1.295   .     A
C774   O822    1.384   .     S
C774   C776    1.414   .     A
C774   C923    1.383   1_455 S
C775   C784    1.436   .     S
C775   C796    1.396   .     A
C775   C795    1.410   .     A
C776   C794    1.405   .     A
C777   N818    1.377   .     A
C778   N817    1.371   .     A
C778   C971    1.426   .     S
C779   N818    1.377   .     A
C780   N817    1.368   .     A
C780   C969    1.424   .     S
C781   O830    1.419   .     S
C781   H797    1.110   .     S
C781   C782    1.516   .     S
C781   H936    1.115   1_455 S
C782   H812    1.104   .     S
C783   O820    1.414   .     S
C783   C785    1.522   .     S
C783   H813    1.116   .     S
C783   H814    1.113   .     S
C784   O824    1.291   .     A
C784   O823    1.303   .     A
C785   H816    1.111   .     S
C785   H798    1.109   .     S
C785   H815    1.110   .     S
C786   O821    1.424   .     S
C786   C787    1.522   .     S
C786   H799    1.109   .     S
C786   H864    1.118   .     S
C787   H803    1.109   .     S
C787   H865    1.108   .     S
C787   H866    1.111   .     S
C788   H804    1.118   .     S
C788   C789    1.523   .     S
C788   H805    1.111   .     S
C788   O822    1.418   .     S
C789   H809    1.109   .     S
C789   H806    1.107   .     S
C789   H807    1.111   .     S
C790   O826    1.285   .     A
C790   O829    1.285   .     A
C790   C792    1.361   .     S
C791   O827    1.285   .     A
C791   C793    1.361   .     S
C791   O828    1.284   .     A
C793   C1368   1.162   .     S
C794   O830    1.383   .     S
C794   C924    1.384   1_455 S
C795   O820    1.384   .     S
C795   C838    1.383   .     S
C796   O821    1.384   .     S
C796   C858    1.384   .     S
H800   C914    1.118   1_455 S
H801   C915    1.108   1_455 S
H802   C915    1.111   1_455 S
H808   C845    1.115   .     S
H810   C974    1.110   .     S
H811   C974    1.109   .     S
N817   Zn831   2.035   .     S
N818   Zn832   2.035   .     S
O819   Zn831   2.018   .     S
O823   Zn832   2.018   .     S
O824   Zn831   2.023   .     S
O825   Zn832   2.023   .     S
O826   Zn831   1.941   .     S
O827   Zn832   1.941   .     S
O828   Zn831   1.940   .     S
O829   Zn832   1.940   .     S
Br833  C841    1.909   .     S
Br834  C842    1.924   .     S
Br835  C843    1.919   .     S
Br836  C844    1.923   .     S
C837   C840    1.442   .     S
C837   O889    1.301   .     A
C837   O883    1.295   .     A
C838   O886    1.384   .     S
C838   C840    1.414   .     A
C839   C848    1.436   .     S
C839   C860    1.396   .     A
C839   C859    1.410   .     A
C840   C858    1.405   .     A
C841   N882    1.377   .     A
C842   N881    1.371   .     A
C842   C1035   1.426   .     S
C843   N882    1.377   .     A
C844   N881    1.368   .     A
C844   C1033   1.424   .     S
C845   O894    1.419   .     S
C845   H861    1.110   .     S
C845   C846    1.516   .     S
C846   H876    1.104   .     S
C847   O884    1.414   .     S
C847   C849    1.522   .     S
C847   H877    1.116   .     S
C847   H878    1.113   .     S
C848   O888    1.291   .     A
C848   O887    1.303   .     A
C849   H880    1.111   .     S
C849   H862    1.109   .     S
C849   H879    1.110   .     S
C850   O885    1.424   .     S
C850   C851    1.522   .     S
C850   H863    1.109   .     S
C850   H928    1.118   .     S
C851   H867    1.109   .     S
C851   H929    1.108   .     S
C851   H930    1.111   .     S
C852   H868    1.118   .     S
C852   C853    1.523   .     S
C852   H869    1.111   .     S
C852   O886    1.418   .     S
C853   H873    1.109   .     S
C853   H870    1.107   .     S
C853   H871    1.111   .     S
C854   O890    1.285   .     A
C854   O893    1.285   .     A
C854   C856    1.361   .     S
C855   O891    1.285   .     A
C855   C857    1.361   .     S
C855   O892    1.284   .     A
C857   C1432   1.162   .     S
C858   O894    1.383   .     S
C859   O884    1.384   .     S
C859   C902    1.383   .     S
C860   O885    1.384   .     S
C860   C922    1.384   .     S
H872   C909    1.115   .     S
H874   C1038   1.110   .     S
H875   C1038   1.109   .     S
N881   Zn895   2.035   .     S
N882   Zn896   2.035   .     S
O883   Zn895   2.018   .     S
O887   Zn896   2.018   .     S
O888   Zn895   2.023   .     S
O889   Zn896   2.023   .     S
O890   Zn895   1.941   .     S
O891   Zn896   1.941   .     S
O892   Zn895   1.940   .     S
O893   Zn896   1.940   .     S
Br897  C905    1.909   .     S
Br898  C906    1.924   .     S
Br899  C907    1.919   .     S
Br900  C908    1.923   .     S
C901   C904    1.442   .     S
C901   O953    1.301   .     A
C901   O947    1.295   .     A
C902   O950    1.384   .     S
C902   C904    1.414   .     A
C903   C912    1.436   .     S
C903   C924    1.396   .     A
C903   C923    1.410   .     A
C904   C922    1.405   .     A
C905   N946    1.377   .     A
C906   N945    1.371   .     A
C906   C1099   1.426   .     S
C907   N946    1.377   .     A
C908   N945    1.368   .     A
C908   C1097   1.424   .     S
C909   O958    1.419   .     S
C909   H925    1.110   .     S
C909   C910    1.516   .     S
C910   H940    1.104   .     S
C911   O948    1.414   .     S
C911   C913    1.522   .     S
C911   H941    1.116   .     S
C911   H942    1.113   .     S
C912   O952    1.291   .     A
C912   O951    1.303   .     A
C913   H944    1.111   .     S
C913   H926    1.109   .     S
C913   H943    1.110   .     S
C914   O949    1.424   .     S
C914   C915    1.522   .     S
C914   H927    1.109   .     S
C914   H800    1.118   1_655 S
C915   H931    1.109   .     S
C915   H801    1.108   1_655 S
C915   H802    1.111   1_655 S
C916   H932    1.118   .     S
C916   C917    1.523   .     S
C916   H933    1.111   .     S
C916   O950    1.418   .     S
C917   H937    1.109   .     S
C917   H934    1.107   .     S
C917   H935    1.111   .     S
C918   O954    1.285   .     A
C918   O957    1.285   .     A
C918   C920    1.361   .     S
C919   O955    1.285   .     A
C919   C921    1.361   .     S
C919   O956    1.284   .     A
C921   C1496   1.162   .     S
C922   O958    1.383   .     S
C923   O948    1.384   .     S
C923   C774    1.383   1_655 S
C924   O949    1.384   .     S
C924   C794    1.384   1_655 S
H936   C781    1.115   1_655 S
H938   C1102   1.110   .     S
H939   C1102   1.109   .     S
N945   Zn959   2.035   .     S
N946   Zn960   2.035   .     S
O947   Zn959   2.018   .     S
O951   Zn960   2.018   .     S
O952   Zn959   2.023   .     S
O953   Zn960   2.023   .     S
O954   Zn959   1.941   .     S
O955   Zn960   1.941   .     S
O956   Zn959   1.940   .     S
O957   Zn960   1.940   .     S
Br961  C969    1.909   .     S
Br962  C970    1.924   .     S
Br963  C971    1.919   .     S
Br964  C972    1.923   .     S
C965   C968    1.442   .     S
C965   O1017   1.301   .     A
C965   O1011   1.295   .     A
C966   O1014   1.384   .     S
C966   C968    1.414   .     A
C966   C1115   1.383   1_455 S
C967   C976    1.436   .     S
C967   C988    1.396   .     A
C967   C987    1.410   .     A
C968   C986    1.405   .     A
C969   N1010   1.377   .     A
C970   N1009   1.371   .     A
C970   C587    1.426   1_565 S
C971   N1010   1.377   .     A
C972   N1009   1.368   .     A
C972   C585    1.424   1_565 S
C973   O1022   1.419   .     S
C973   H989    1.110   .     S
C973   C974    1.516   .     S
C973   H1128   1.115   1_455 S
C974   H1004   1.104   .     S
C975   O1012   1.414   .     S
C975   C977    1.522   .     S
C975   H1005   1.116   .     S
C975   H1006   1.113   .     S
C976   O1016   1.291   .     A
C976   O1015   1.303   .     A
C977   H1008   1.111   .     S
C977   H990    1.109   .     S
C977   H1007   1.110   .     S
C978   O1013   1.424   .     S
C978   C979    1.522   .     S
C978   H991    1.109   .     S
C978   H1056   1.118   .     S
C979   H995    1.109   .     S
C979   H1057   1.108   .     S
C979   H1058   1.111   .     S
C980   H996    1.118   .     S
C980   C981    1.523   .     S
C980   H997    1.111   .     S
C980   O1014   1.418   .     S
C981   H1001   1.109   .     S
C981   H998    1.107   .     S
C981   H999    1.111   .     S
C982   O1018   1.285   .     A
C982   O1021   1.285   .     A
C982   C984    1.361   .     S
C983   O1019   1.285   .     A
C983   C985    1.361   .     S
C983   O1020   1.284   .     A
C985   C1560   1.162   .     S
C986   O1022   1.383   .     S
C986   C1116   1.384   1_455 S
C987   O1012   1.384   .     S
C987   C1030   1.383   .     S
C988   O1013   1.384   .     S
C988   C1050   1.384   .     S
H992   C1106   1.118   1_455 S
H993   C1107   1.108   1_455 S
H994   C1107   1.111   1_455 S
H1000  C1037   1.115   .     S
H1002  C590    1.110   1_565 S
H1003  C590    1.109   1_565 S
N1009  Zn1023  2.035   .     S
N1010  Zn1024  2.035   .     S
O1011  Zn1023  2.018   .     S
O1015  Zn1024  2.018   .     S
O1016  Zn1023  2.023   .     S
O1017  Zn1024  2.023   .     S
O1018  Zn1023  1.941   .     S
O1019  Zn1024  1.941   .     S
O1020  Zn1023  1.940   .     S
O1021  Zn1024  1.940   .     S
Br1025 C1033   1.909   .     S
Br1026 C1034   1.924   .     S
Br1027 C1035   1.919   .     S
Br1028 C1036   1.923   .     S
C1029  C1032   1.442   .     S
C1029  O1081   1.301   .     A
C1029  O1075   1.295   .     A
C1030  O1078   1.384   .     S
C1030  C1032   1.414   .     A
C1031  C1040   1.436   .     S
C1031  C1052   1.396   .     A
C1031  C1051   1.410   .     A
C1032  C1050   1.405   .     A
C1033  N1074   1.377   .     A
C1034  N1073   1.371   .     A
C1034  C651    1.426   1_565 S
C1035  N1074   1.377   .     A
C1036  N1073   1.368   .     A
C1036  C649    1.424   1_565 S
C1037  O1086   1.419   .     S
C1037  H1053   1.110   .     S
C1037  C1038   1.516   .     S
C1038  H1068   1.104   .     S
C1039  O1076   1.414   .     S
C1039  C1041   1.522   .     S
C1039  H1069   1.116   .     S
C1039  H1070   1.113   .     S
C1040  O1080   1.291   .     A
C1040  O1079   1.303   .     A
C1041  H1072   1.111   .     S
C1041  H1054   1.109   .     S
C1041  H1071   1.110   .     S
C1042  O1077   1.424   .     S
C1042  C1043   1.522   .     S
C1042  H1055   1.109   .     S
C1042  H1120   1.118   .     S
C1043  H1059   1.109   .     S
C1043  H1121   1.108   .     S
C1043  H1122   1.111   .     S
C1044  H1060   1.118   .     S
C1044  C1045   1.523   .     S
C1044  H1061   1.111   .     S
C1044  O1078   1.418   .     S
C1045  H1065   1.109   .     S
C1045  H1062   1.107   .     S
C1045  H1063   1.111   .     S
C1046  O1082   1.285   .     A
C1046  O1085   1.285   .     A
C1046  C1048   1.361   .     S
C1047  O1083   1.285   .     A
C1047  C1049   1.361   .     S
C1047  O1084   1.284   .     A
C1049  C1624   1.162   .     S
C1050  O1086   1.383   .     S
C1051  O1076   1.384   .     S
C1051  C1094   1.383   .     S
C1052  O1077   1.384   .     S
C1052  C1114   1.384   .     S
H1064  C1101   1.115   .     S
H1066  C654    1.110   1_565 S
H1067  C654    1.109   1_565 S
N1073  Zn1087  2.035   .     S
N1074  Zn1088  2.035   .     S
O1075  Zn1087  2.018   .     S
O1079  Zn1088  2.018   .     S
O1080  Zn1087  2.023   .     S
O1081  Zn1088  2.023   .     S
O1082  Zn1087  1.941   .     S
O1083  Zn1088  1.941   .     S
O1084  Zn1087  1.940   .     S
O1085  Zn1088  1.940   .     S
Br1089 C1097   1.909   .     S
Br1090 C1098   1.924   .     S
Br1091 C1099   1.919   .     S
Br1092 C1100   1.923   .     S
C1093  C1096   1.442   .     S
C1093  O1145   1.301   .     A
C1093  O1139   1.295   .     A
C1094  O1142   1.384   .     S
C1094  C1096   1.414   .     A
C1095  C1104   1.436   .     S
C1095  C1116   1.396   .     A
C1095  C1115   1.410   .     A
C1096  C1114   1.405   .     A
C1097  N1138   1.377   .     A
C1098  N1137   1.371   .     A
C1098  C715    1.426   1_565 S
C1099  N1138   1.377   .     A
C1100  N1137   1.368   .     A
C1100  C713    1.424   1_565 S
C1101  O1150   1.419   .     S
C1101  H1117   1.110   .     S
C1101  C1102   1.516   .     S
C1102  H1132   1.104   .     S
C1103  O1140   1.414   .     S
C1103  C1105   1.522   .     S
C1103  H1133   1.116   .     S
C1103  H1134   1.113   .     S
C1104  O1144   1.291   .     A
C1104  O1143   1.303   .     A
C1105  H1136   1.111   .     S
C1105  H1118   1.109   .     S
C1105  H1135   1.110   .     S
C1106  O1141   1.424   .     S
C1106  C1107   1.522   .     S
C1106  H1119   1.109   .     S
C1106  H992    1.118   1_655 S
C1107  H1123   1.109   .     S
C1107  H993    1.108   1_655 S
C1107  H994    1.111   1_655 S
C1108  H1124   1.118   .     S
C1108  C1109   1.523   .     S
C1108  H1125   1.111   .     S
C1108  O1142   1.418   .     S
C1109  H1129   1.109   .     S
C1109  H1126   1.107   .     S
C1109  H1127   1.111   .     S
C1110  O1146   1.285   .     A
C1110  O1149   1.285   .     A
C1110  C1112   1.361   .     S
C1111  O1147   1.285   .     A
C1111  C1113   1.361   .     S
C1111  O1148   1.284   .     A
C1113  C1688   1.162   .     S
C1114  O1150   1.383   .     S
C1115  O1140   1.384   .     S
C1115  C966    1.383   1_655 S
C1116  O1141   1.384   .     S
C1116  C986    1.384   1_655 S
H1128  C973    1.115   1_655 S
H1130  C718    1.110   1_565 S
H1131  C718    1.109   1_565 S
N1137  Zn1151  2.035   .     S
N1138  Zn1152  2.035   .     S
O1139  Zn1151  2.018   .     S
O1143  Zn1152  2.018   .     S
O1144  Zn1151  2.023   .     S
O1145  Zn1152  2.023   .     S
O1146  Zn1151  1.941   .     S
O1147  Zn1152  1.941   .     S
O1148  Zn1151  1.940   .     S
O1149  Zn1152  1.940   .     S
Br1153 C1161   1.909   .     S
Br1154 C1162   1.924   .     S
Br1155 C1163   1.919   .     S
Br1156 C1164   1.923   .     S
C1157  C1160   1.442   .     S
C1157  O1209   1.301   .     A
C1157  O1203   1.295   .     A
C1158  O1206   1.384   .     S
C1158  C1160   1.414   .     A
C1158  C1307   1.383   1_455 S
C1159  C1168   1.436   .     S
C1159  C1180   1.396   .     A
C1159  C1179   1.410   .     A
C1160  C1178   1.405   .     A
C1161  N1202   1.377   .     A
C1161  C1548   1.424   1_545 S
C1162  N1201   1.371   .     A
C1162  C1355   1.426   .     S
C1163  N1202   1.377   .     A
C1163  C1546   1.426   1_545 S
C1164  N1201   1.368   .     A
C1164  C1353   1.424   .     S
C1165  O1214   1.419   .     S
C1165  H1181   1.110   .     S
C1165  C1166   1.516   .     S
C1165  H1320   1.115   1_455 S
C1166  H1196   1.104   .     S
C1166  H1578   1.110   1_545 S
C1166  H1579   1.109   1_545 S
C1167  O1204   1.414   .     S
C1167  C1169   1.522   .     S
C1167  H1197   1.116   .     S
C1167  H1198   1.113   .     S
C1168  O1208   1.291   .     A
C1168  O1207   1.303   .     A
C1169  H1200   1.111   .     S
C1169  H1182   1.109   .     S
C1169  H1199   1.110   .     S
C1170  O1205   1.424   .     S
C1170  C1171   1.522   .     S
C1170  H1183   1.109   .     S
C1170  H1248   1.118   .     S
C1171  H1187   1.109   .     S
C1171  H1249   1.108   .     S
C1171  H1250   1.111   .     S
C1172  H1188   1.118   .     S
C1172  C1173   1.523   .     S
C1172  H1189   1.111   .     S
C1172  O1206   1.418   .     S
C1173  H1193   1.109   .     S
C1173  H1190   1.107   .     S
C1173  H1191   1.111   .     S
C1174  O1210   1.285   .     A
C1174  O1213   1.285   .     A
C1174  C1176   1.361   .     S
C1175  O1211   1.285   .     A
C1175  C1177   1.361   .     S
C1175  O1212   1.284   .     A
C1177  C24     1.162   1_556 S
C1178  O1214   1.383   .     S
C1178  C1308   1.384   1_455 S
C1179  O1204   1.384   .     S
C1179  C1222   1.383   .     S
C1180  O1205   1.384   .     S
C1180  C1242   1.384   .     S
H1184  C1298   1.118   1_455 S
H1185  C1299   1.108   1_455 S
H1186  C1299   1.111   1_455 S
H1192  C1229   1.115   .     S
H1194  C1358   1.110   .     S
H1195  C1358   1.109   .     S
N1201  Zn1215  2.035   .     S
N1202  Zn1216  2.035   .     S
O1203  Zn1215  2.018   .     S
O1207  Zn1216  2.018   .     S
O1208  Zn1215  2.023   .     S
O1209  Zn1216  2.023   .     S
O1210  Zn1215  1.941   .     S
O1211  Zn1216  1.941   .     S
O1212  Zn1215  1.940   .     S
O1213  Zn1216  1.940   .     S
Br1217 C1225   1.909   .     S
Br1218 C1226   1.924   .     S
Br1219 C1227   1.919   .     S
Br1220 C1228   1.923   .     S
C1221  C1224   1.442   .     S
C1221  O1273   1.301   .     A
C1221  O1267   1.295   .     A
C1222  O1270   1.384   .     S
C1222  C1224   1.414   .     A
C1223  C1232   1.436   .     S
C1223  C1244   1.396   .     A
C1223  C1243   1.410   .     A
C1224  C1242   1.405   .     A
C1225  N1266   1.377   .     A
C1225  C1612   1.424   1_545 S
C1226  N1265   1.371   .     A
C1226  C1419   1.426   .     S
C1227  N1266   1.377   .     A
C1227  C1610   1.426   1_545 S
C1228  N1265   1.368   .     A
C1228  C1417   1.424   .     S
C1229  O1278   1.419   .     S
C1229  H1245   1.110   .     S
C1229  C1230   1.516   .     S
C1230  H1260   1.104   .     S
C1230  H1642   1.110   1_545 S
C1230  H1643   1.109   1_545 S
C1231  O1268   1.414   .     S
C1231  C1233   1.522   .     S
C1231  H1261   1.116   .     S
C1231  H1262   1.113   .     S
C1232  O1272   1.291   .     A
C1232  O1271   1.303   .     A
C1233  H1264   1.111   .     S
C1233  H1246   1.109   .     S
C1233  H1263   1.110   .     S
C1234  O1269   1.424   .     S
C1234  C1235   1.522   .     S
C1234  H1247   1.109   .     S
C1234  H1312   1.118   .     S
C1235  H1251   1.109   .     S
C1235  H1313   1.108   .     S
C1235  H1314   1.111   .     S
C1236  H1252   1.118   .     S
C1236  C1237   1.523   .     S
C1236  H1253   1.111   .     S
C1236  O1270   1.418   .     S
C1237  H1257   1.109   .     S
C1237  H1254   1.107   .     S
C1237  H1255   1.111   .     S
C1238  O1274   1.285   .     A
C1238  O1277   1.285   .     A
C1238  C1240   1.361   .     S
C1239  O1275   1.285   .     A
C1239  C1241   1.361   .     S
C1239  O1276   1.284   .     A
C1241  C88     1.162   1_556 S
C1242  O1278   1.383   .     S
C1243  O1268   1.384   .     S
C1243  C1286   1.383   .     S
C1244  O1269   1.384   .     S
C1244  C1306   1.384   .     S
H1256  C1293   1.115   .     S
H1258  C1422   1.110   .     S
H1259  C1422   1.109   .     S
N1265  Zn1279  2.035   .     S
N1266  Zn1280  2.035   .     S
O1267  Zn1279  2.018   .     S
O1271  Zn1280  2.018   .     S
O1272  Zn1279  2.023   .     S
O1273  Zn1280  2.023   .     S
O1274  Zn1279  1.941   .     S
O1275  Zn1280  1.941   .     S
O1276  Zn1279  1.940   .     S
O1277  Zn1280  1.940   .     S
Br1281 C1289   1.909   .     S
Br1282 C1290   1.924   .     S
Br1283 C1291   1.919   .     S
Br1284 C1292   1.923   .     S
C1285  C1288   1.442   .     S
C1285  O1337   1.301   .     A
C1285  O1331   1.295   .     A
C1286  O1334   1.384   .     S
C1286  C1288   1.414   .     A
C1287  C1296   1.436   .     S
C1287  C1308   1.396   .     A
C1287  C1307   1.410   .     A
C1288  C1306   1.405   .     A
C1289  N1330   1.377   .     A
C1289  C1676   1.424   1_545 S
C1290  N1329   1.371   .     A
C1290  C1483   1.426   .     S
C1291  N1330   1.377   .     A
C1291  C1674   1.426   1_545 S
C1292  N1329   1.368   .     A
C1292  C1481   1.424   .     S
C1293  O1342   1.419   .     S
C1293  H1309   1.110   .     S
C1293  C1294   1.516   .     S
C1294  H1324   1.104   .     S
C1294  H1706   1.110   1_545 S
C1294  H1707   1.109   1_545 S
C1295  O1332   1.414   .     S
C1295  C1297   1.522   .     S
C1295  H1325   1.116   .     S
C1295  H1326   1.113   .     S
C1296  O1336   1.291   .     A
C1296  O1335   1.303   .     A
C1297  H1328   1.111   .     S
C1297  H1310   1.109   .     S
C1297  H1327   1.110   .     S
C1298  O1333   1.424   .     S
C1298  C1299   1.522   .     S
C1298  H1311   1.109   .     S
C1298  H1184   1.118   1_655 S
C1299  H1315   1.109   .     S
C1299  H1185   1.108   1_655 S
C1299  H1186   1.111   1_655 S
C1300  H1316   1.118   .     S
C1300  C1301   1.523   .     S
C1300  H1317   1.111   .     S
C1300  O1334   1.418   .     S
C1301  H1321   1.109   .     S
C1301  H1318   1.107   .     S
C1301  H1319   1.111   .     S
C1302  O1338   1.285   .     A
C1302  O1341   1.285   .     A
C1302  C1304   1.361   .     S
C1303  O1339   1.285   .     A
C1303  C1305   1.361   .     S
C1303  O1340   1.284   .     A
C1305  C152    1.162   1_556 S
C1306  O1342   1.383   .     S
C1307  O1332   1.384   .     S
C1307  C1158   1.383   1_655 S
C1308  O1333   1.384   .     S
C1308  C1178   1.384   1_655 S
H1320  C1165   1.115   1_655 S
H1322  C1486   1.110   .     S
H1323  C1486   1.109   .     S
N1329  Zn1343  2.035   .     S
N1330  Zn1344  2.035   .     S
O1331  Zn1343  2.018   .     S
O1335  Zn1344  2.018   .     S
O1336  Zn1343  2.023   .     S
O1337  Zn1344  2.023   .     S
O1338  Zn1343  1.941   .     S
O1339  Zn1344  1.941   .     S
O1340  Zn1343  1.940   .     S
O1341  Zn1344  1.940   .     S
Br1345 C1353   1.909   .     S
Br1346 C1354   1.924   .     S
Br1347 C1355   1.919   .     S
Br1348 C1356   1.923   .     S
C1349  C1352   1.442   .     S
C1349  O1401   1.301   .     A
C1349  O1395   1.295   .     A
C1350  O1398   1.384   .     S
C1350  C1352   1.414   .     A
C1350  C1499   1.383   1_455 S
C1351  C1360   1.436   .     S
C1351  C1372   1.396   .     A
C1351  C1371   1.410   .     A
C1352  C1370   1.405   .     A
C1353  N1394   1.377   .     A
C1354  N1393   1.371   .     A
C1354  C1547   1.426   .     S
C1355  N1394   1.377   .     A
C1356  N1393   1.368   .     A
C1356  C1545   1.424   .     S
C1357  O1406   1.419   .     S
C1357  H1373   1.110   .     S
C1357  C1358   1.516   .     S
C1357  H1512   1.115   1_455 S
C1358  H1388   1.104   .     S
C1359  O1396   1.414   .     S
C1359  C1361   1.522   .     S
C1359  H1389   1.116   .     S
C1359  H1390   1.113   .     S
C1360  O1400   1.291   .     A
C1360  O1399   1.303   .     A
C1361  H1392   1.111   .     S
C1361  H1374   1.109   .     S
C1361  H1391   1.110   .     S
C1362  O1397   1.424   .     S
C1362  C1363   1.522   .     S
C1362  H1375   1.109   .     S
C1362  H1440   1.118   .     S
C1363  H1379   1.109   .     S
C1363  H1441   1.108   .     S
C1363  H1442   1.111   .     S
C1364  H1380   1.118   .     S
C1364  C1365   1.523   .     S
C1364  H1381   1.111   .     S
C1364  O1398   1.418   .     S
C1365  H1385   1.109   .     S
C1365  H1382   1.107   .     S
C1365  H1383   1.111   .     S
C1366  O1402   1.285   .     A
C1366  O1405   1.285   .     A
C1366  C1368   1.361   .     S
C1367  O1403   1.285   .     A
C1367  C1369   1.361   .     S
C1367  O1404   1.284   .     A
C1369  C216    1.162   1_556 S
C1370  O1406   1.383   .     S
C1370  C1500   1.384   1_455 S
C1371  O1396   1.384   .     S
C1371  C1414   1.383   .     S
C1372  O1397   1.384   .     S
C1372  C1434   1.384   .     S
H1376  C1490   1.118   1_455 S
H1377  C1491   1.108   1_455 S
H1378  C1491   1.111   1_455 S
H1384  C1421   1.115   .     S
H1386  C1550   1.110   .     S
H1387  C1550   1.109   .     S
N1393  Zn1407  2.035   .     S
N1394  Zn1408  2.035   .     S
O1395  Zn1407  2.018   .     S
O1399  Zn1408  2.018   .     S
O1400  Zn1407  2.023   .     S
O1401  Zn1408  2.023   .     S
O1402  Zn1407  1.941   .     S
O1403  Zn1408  1.941   .     S
O1404  Zn1407  1.940   .     S
O1405  Zn1408  1.940   .     S
Br1409 C1417   1.909   .     S
Br1410 C1418   1.924   .     S
Br1411 C1419   1.919   .     S
Br1412 C1420   1.923   .     S
C1413  C1416   1.442   .     S
C1413  O1465   1.301   .     A
C1413  O1459   1.295   .     A
C1414  O1462   1.384   .     S
C1414  C1416   1.414   .     A
C1415  C1424   1.436   .     S
C1415  C1436   1.396   .     A
C1415  C1435   1.410   .     A
C1416  C1434   1.405   .     A
C1417  N1458   1.377   .     A
C1418  N1457   1.371   .     A
C1418  C1611   1.426   .     S
C1419  N1458   1.377   .     A
C1420  N1457   1.368   .     A
C1420  C1609   1.424   .     S
C1421  O1470   1.419   .     S
C1421  H1437   1.110   .     S
C1421  C1422   1.516   .     S
C1422  H1452   1.104   .     S
C1423  O1460   1.414   .     S
C1423  C1425   1.522   .     S
C1423  H1453   1.116   .     S
C1423  H1454   1.113   .     S
C1424  O1464   1.291   .     A
C1424  O1463   1.303   .     A
C1425  H1456   1.111   .     S
C1425  H1438   1.109   .     S
C1425  H1455   1.110   .     S
C1426  O1461   1.424   .     S
C1426  C1427   1.522   .     S
C1426  H1439   1.109   .     S
C1426  H1504   1.118   .     S
C1427  H1443   1.109   .     S
C1427  H1505   1.108   .     S
C1427  H1506   1.111   .     S
C1428  H1444   1.118   .     S
C1428  C1429   1.523   .     S
C1428  H1445   1.111   .     S
C1428  O1462   1.418   .     S
C1429  H1449   1.109   .     S
C1429  H1446   1.107   .     S
C1429  H1447   1.111   .     S
C1430  O1466   1.285   .     A
C1430  O1469   1.285   .     A
C1430  C1432   1.361   .     S
C1431  O1467   1.285   .     A
C1431  C1433   1.361   .     S
C1431  O1468   1.284   .     A
C1433  C280    1.162   1_556 S
C1434  O1470   1.383   .     S
C1435  O1460   1.384   .     S
C1435  C1478   1.383   .     S
C1436  O1461   1.384   .     S
C1436  C1498   1.384   .     S
H1448  C1485   1.115   .     S
H1450  C1614   1.110   .     S
H1451  C1614   1.109   .     S
N1457  Zn1471  2.035   .     S
N1458  Zn1472  2.035   .     S
O1459  Zn1471  2.018   .     S
O1463  Zn1472  2.018   .     S
O1464  Zn1471  2.023   .     S
O1465  Zn1472  2.023   .     S
O1466  Zn1471  1.941   .     S
O1467  Zn1472  1.941   .     S
O1468  Zn1471  1.940   .     S
O1469  Zn1472  1.940   .     S
Br1473 C1481   1.909   .     S
Br1474 C1482   1.924   .     S
Br1475 C1483   1.919   .     S
Br1476 C1484   1.923   .     S
C1477  C1480   1.442   .     S
C1477  O1529   1.301   .     A
C1477  O1523   1.295   .     A
C1478  O1526   1.384   .     S
C1478  C1480   1.414   .     A
C1479  C1488   1.436   .     S
C1479  C1500   1.396   .     A
C1479  C1499   1.410   .     A
C1480  C1498   1.405   .     A
C1481  N1522   1.377   .     A
C1482  N1521   1.371   .     A
C1482  C1675   1.426   .     S
C1483  N1522   1.377   .     A
C1484  N1521   1.368   .     A
C1484  C1673   1.424   .     S
C1485  O1534   1.419   .     S
C1485  H1501   1.110   .     S
C1485  C1486   1.516   .     S
C1486  H1516   1.104   .     S
C1487  O1524   1.414   .     S
C1487  C1489   1.522   .     S
C1487  H1517   1.116   .     S
C1487  H1518   1.113   .     S
C1488  O1528   1.291   .     A
C1488  O1527   1.303   .     A
C1489  H1520   1.111   .     S
C1489  H1502   1.109   .     S
C1489  H1519   1.110   .     S
C1490  O1525   1.424   .     S
C1490  C1491   1.522   .     S
C1490  H1503   1.109   .     S
C1490  H1376   1.118   1_655 S
C1491  H1507   1.109   .     S
C1491  H1377   1.108   1_655 S
C1491  H1378   1.111   1_655 S
C1492  H1508   1.118   .     S
C1492  C1493   1.523   .     S
C1492  H1509   1.111   .     S
C1492  O1526   1.418   .     S
C1493  H1513   1.109   .     S
C1493  H1510   1.107   .     S
C1493  H1511   1.111   .     S
C1494  O1530   1.285   .     A
C1494  O1533   1.285   .     A
C1494  C1496   1.361   .     S
C1495  O1531   1.285   .     A
C1495  C1497   1.361   .     S
C1495  O1532   1.284   .     A
C1497  C344    1.162   1_556 S
C1498  O1534   1.383   .     S
C1499  O1524   1.384   .     S
C1499  C1350   1.383   1_655 S
C1500  O1525   1.384   .     S
C1500  C1370   1.384   1_655 S
H1512  C1357   1.115   1_655 S
H1514  C1678   1.110   .     S
H1515  C1678   1.109   .     S
N1521  Zn1535  2.035   .     S
N1522  Zn1536  2.035   .     S
O1523  Zn1535  2.018   .     S
O1527  Zn1536  2.018   .     S
O1528  Zn1535  2.023   .     S
O1529  Zn1536  2.023   .     S
O1530  Zn1535  1.941   .     S
O1531  Zn1536  1.941   .     S
O1532  Zn1535  1.940   .     S
O1533  Zn1536  1.940   .     S
Br1537 C1545   1.909   .     S
Br1538 C1546   1.924   .     S
Br1539 C1547   1.919   .     S
Br1540 C1548   1.923   .     S
C1541  C1544   1.442   .     S
C1541  O1593   1.301   .     A
C1541  O1587   1.295   .     A
C1542  O1590   1.384   .     S
C1542  C1544   1.414   .     A
C1542  C1691   1.383   1_455 S
C1543  C1552   1.436   .     S
C1543  C1564   1.396   .     A
C1543  C1563   1.410   .     A
C1544  C1562   1.405   .     A
C1545  N1586   1.377   .     A
C1546  N1585   1.371   .     A
C1546  C1163   1.426   1_565 S
C1547  N1586   1.377   .     A
C1548  N1585   1.368   .     A
C1548  C1161   1.424   1_565 S
C1549  O1598   1.419   .     S
C1549  H1565   1.110   .     S
C1549  C1550   1.516   .     S
C1549  H1704   1.115   1_455 S
C1550  H1580   1.104   .     S
C1551  O1588   1.414   .     S
C1551  C1553   1.522   .     S
C1551  H1581   1.116   .     S
C1551  H1582   1.113   .     S
C1552  O1592   1.291   .     A
C1552  O1591   1.303   .     A
C1553  H1584   1.111   .     S
C1553  H1566   1.109   .     S
C1553  H1583   1.110   .     S
C1554  O1589   1.424   .     S
C1554  C1555   1.522   .     S
C1554  H1567   1.109   .     S
C1554  H1632   1.118   .     S
C1555  H1571   1.109   .     S
C1555  H1633   1.108   .     S
C1555  H1634   1.111   .     S
C1556  H1572   1.118   .     S
C1556  C1557   1.523   .     S
C1556  H1573   1.111   .     S
C1556  O1590   1.418   .     S
C1557  H1577   1.109   .     S
C1557  H1574   1.107   .     S
C1557  H1575   1.111   .     S
C1558  O1594   1.285   .     A
C1558  O1597   1.285   .     A
C1558  C1560   1.361   .     S
C1559  O1595   1.285   .     A
C1559  C1561   1.361   .     S
C1559  O1596   1.284   .     A
C1561  C408    1.162   1_556 S
C1562  O1598   1.383   .     S
C1562  C1692   1.384   1_455 S
C1563  O1588   1.384   .     S
C1563  C1606   1.383   .     S
C1564  O1589   1.384   .     S
C1564  C1626   1.384   .     S
H1568  C1682   1.118   1_455 S
H1569  C1683   1.108   1_455 S
H1570  C1683   1.111   1_455 S
H1576  C1613   1.115   .     S
H1578  C1166   1.110   1_565 S
H1579  C1166   1.109   1_565 S
N1585  Zn1599  2.035   .     S
N1586  Zn1600  2.035   .     S
O1587  Zn1599  2.018   .     S
O1591  Zn1600  2.018   .     S
O1592  Zn1599  2.023   .     S
O1593  Zn1600  2.023   .     S
O1594  Zn1599  1.941   .     S
O1595  Zn1600  1.941   .     S
O1596  Zn1599  1.940   .     S
O1597  Zn1600  1.940   .     S
Br1601 C1609   1.909   .     S
Br1602 C1610   1.924   .     S
Br1603 C1611   1.919   .     S
Br1604 C1612   1.923   .     S
C1605  C1608   1.442   .     S
C1605  O1657   1.301   .     A
C1605  O1651   1.295   .     A
C1606  O1654   1.384   .     S
C1606  C1608   1.414   .     A
C1607  C1616   1.436   .     S
C1607  C1628   1.396   .     A
C1607  C1627   1.410   .     A
C1608  C1626   1.405   .     A
C1609  N1650   1.377   .     A
C1610  N1649   1.371   .     A
C1610  C1227   1.426   1_565 S
C1611  N1650   1.377   .     A
C1612  N1649   1.368   .     A
C1612  C1225   1.424   1_565 S
C1613  O1662   1.419   .     S
C1613  H1629   1.110   .     S
C1613  C1614   1.516   .     S
C1614  H1644   1.104   .     S
C1615  O1652   1.414   .     S
C1615  C1617   1.522   .     S
C1615  H1645   1.116   .     S
C1615  H1646   1.113   .     S
C1616  O1656   1.291   .     A
C1616  O1655   1.303   .     A
C1617  H1648   1.111   .     S
C1617  H1630   1.109   .     S
C1617  H1647   1.110   .     S
C1618  O1653   1.424   .     S
C1618  C1619   1.522   .     S
C1618  H1631   1.109   .     S
C1618  H1696   1.118   .     S
C1619  H1635   1.109   .     S
C1619  H1697   1.108   .     S
C1619  H1698   1.111   .     S
C1620  H1636   1.118   .     S
C1620  C1621   1.523   .     S
C1620  H1637   1.111   .     S
C1620  O1654   1.418   .     S
C1621  H1641   1.109   .     S
C1621  H1638   1.107   .     S
C1621  H1639   1.111   .     S
C1622  O1658   1.285   .     A
C1622  O1661   1.285   .     A
C1622  C1624   1.361   .     S
C1623  O1659   1.285   .     A
C1623  C1625   1.361   .     S
C1623  O1660   1.284   .     A
C1625  C472    1.162   1_556 S
C1626  O1662   1.383   .     S
C1627  O1652   1.384   .     S
C1627  C1670   1.383   .     S
C1628  O1653   1.384   .     S
C1628  C1690   1.384   .     S
H1640  C1677   1.115   .     S
H1642  C1230   1.110   1_565 S
H1643  C1230   1.109   1_565 S
N1649  Zn1663  2.035   .     S
N1650  Zn1664  2.035   .     S
O1651  Zn1663  2.018   .     S
O1655  Zn1664  2.018   .     S
O1656  Zn1663  2.023   .     S
O1657  Zn1664  2.023   .     S
O1658  Zn1663  1.941   .     S
O1659  Zn1664  1.941   .     S
O1660  Zn1663  1.940   .     S
O1661  Zn1664  1.940   .     S
Br1665 C1673   1.909   .     S
Br1666 C1674   1.924   .     S
Br1667 C1675   1.919   .     S
Br1668 C1676   1.923   .     S
C1669  C1672   1.442   .     S
C1669  O1721   1.301   .     A
C1669  O1715   1.295   .     A
C1670  O1718   1.384   .     S
C1670  C1672   1.414   .     A
C1671  C1680   1.436   .     S
C1671  C1692   1.396   .     A
C1671  C1691   1.410   .     A
C1672  C1690   1.405   .     A
C1673  N1714   1.377   .     A
C1674  N1713   1.371   .     A
C1674  C1291   1.426   1_565 S
C1675  N1714   1.377   .     A
C1676  N1713   1.368   .     A
C1676  C1289   1.424   1_565 S
C1677  O1726   1.419   .     S
C1677  H1693   1.110   .     S
C1677  C1678   1.516   .     S
C1678  H1708   1.104   .     S
C1679  O1716   1.414   .     S
C1679  C1681   1.522   .     S
C1679  H1709   1.116   .     S
C1679  H1710   1.113   .     S
C1680  O1720   1.291   .     A
C1680  O1719   1.303   .     A
C1681  H1712   1.111   .     S
C1681  H1694   1.109   .     S
C1681  H1711   1.110   .     S
C1682  O1717   1.424   .     S
C1682  C1683   1.522   .     S
C1682  H1695   1.109   .     S
C1682  H1568   1.118   1_655 S
C1683  H1699   1.109   .     S
C1683  H1569   1.108   1_655 S
C1683  H1570   1.111   1_655 S
C1684  H1700   1.118   .     S
C1684  C1685   1.523   .     S
C1684  H1701   1.111   .     S
C1684  O1718   1.418   .     S
C1685  H1705   1.109   .     S
C1685  H1702   1.107   .     S
C1685  H1703   1.111   .     S
C1686  O1722   1.285   .     A
C1686  O1725   1.285   .     A
C1686  C1688   1.361   .     S
C1687  O1723   1.285   .     A
C1687  C1689   1.361   .     S
C1687  O1724   1.284   .     A
C1689  C536    1.162   1_556 S
C1690  O1726   1.383   .     S
C1691  O1716   1.384   .     S
C1691  C1542   1.383   1_655 S
C1692  O1717   1.384   .     S
C1692  C1562   1.384   1_655 S
H1704  C1549   1.115   1_655 S
H1706  C1294   1.110   1_565 S
H1707  C1294   1.109   1_565 S
N1713  Zn1727  2.035   .     S
N1714  Zn1728  2.035   .     S
O1715  Zn1727  2.018   .     S
O1719  Zn1728  2.018   .     S
O1720  Zn1727  2.023   .     S
O1721  Zn1728  2.023   .     S
O1722  Zn1727  1.941   .     S
O1723  Zn1728  1.941   .     S
O1724  Zn1727  1.940   .     S
O1725  Zn1728  1.940   .     S
