data_str_m3_o1_o18_pcu_sym.103
_audit_creation_date              2020-01-03
_audit_creation_method            'Materials Studio'
_symmetry_space_group_name_H-M    'P1'
_symmetry_Int_Tables_number       1
_symmetry_cell_setting            triclinic
loop_
_symmetry_equiv_pos_as_xyz
  x,y,z
_cell_length_a                    29.8305
_cell_length_b                    32.1657
_cell_length_c                    30.8373
_cell_angle_alpha                 89.3562
_cell_angle_beta                  65.4435
_cell_angle_gamma                 89.7846
loop_
_atom_site_label
_atom_site_type_symbol
_atom_site_fract_x
_atom_site_fract_y
_atom_site_fract_z
_atom_site_U_iso_or_equiv
_atom_site_adp_type
_atom_site_occupancy
C1     C     0.16746   0.24654   0.24839   0.00000  Uiso   1.00
C2     C     0.16587   0.08680   0.25161   0.00000  Uiso   1.00
C3     C     0.13754   0.21328   0.03642   0.00000  Uiso   1.00
C4     C     0.19580   0.12006   0.46358   0.00000  Uiso   1.00
C5     C     0.10785   0.22773   0.01497   0.00000  Uiso   1.00
C6     C     0.22548   0.10560   0.48503   0.00000  Uiso   1.00
C7     C     0.21252   0.31327   0.22715   0.00000  Uiso   1.00
C8     C     0.12081   0.02006   0.27285   0.00000  Uiso   1.00
C9     C     0.21031   0.02252   0.23003   0.00000  Uiso   1.00
C10    C     0.12303   0.31082   0.26997   0.00000  Uiso   1.00
C11    C     0.16521   0.04257   0.25250   0.00000  Uiso   1.00
C12    C     0.16812   0.29076   0.24750   0.00000  Uiso   1.00
C13    C     0.32575   0.14744   0.21454   0.00000  Uiso   1.00
C14    C     0.00759   0.18590   0.28546   0.00000  Uiso   1.00
C15    C     0.03967   0.14746   0.21510   0.00000  Uiso   1.00
C16    C     0.29366   0.18588   0.28490   0.00000  Uiso   1.00
C17    C     0.13549   0.16723   0.33825   0.00000  Uiso   1.00
C18    C     0.19785   0.16611   0.16175   0.00000  Uiso   1.00
C19    C     0.11586   0.17524   0.38896   0.00000  Uiso   1.00
C20    C     0.21747   0.15810   0.11104   0.00000  Uiso   1.00
C21    C     0.08208   0.22630   0.45075   0.00000  Uiso   1.00
C22    C     0.25125   0.10703   0.04925   0.00000  Uiso   1.00
C23    C     0.08802   0.21094   0.40678   0.00000  Uiso   1.00
C24    C     0.24532   0.12239   0.09322   0.00000  Uiso   1.00
C25    C     0.13785   0.15475   0.41507   0.00000  Uiso   1.00
C26    C     0.19548   0.17858   0.08493   0.00000  Uiso   1.00
C27    C     0.13670   0.17183   0.45731   0.00000  Uiso   1.00
C28    C     0.19664   0.16150   0.04269   0.00000  Uiso   1.00
C29    C     0.10782   0.20808   0.47514   0.00000  Uiso   1.00
C30    C     0.22552   0.12526   0.02485   0.00000  Uiso   1.00
C31    C     0.16625   0.15599   0.48004   0.00000  Uiso   1.00
C32    C     0.16708   0.17734   0.01995   0.00000  Uiso   1.00
H33    H     0.08646   0.25575   0.02840   0.00000  Uiso   1.00
H34    H     0.24688   0.07758   0.47160   0.00000  Uiso   1.00
H35    H     0.17346   0.20527   0.10160   0.00000  Uiso   1.00
H36    H     0.15987   0.12806   0.39840   0.00000  Uiso   1.00
H37    H     0.25844   0.10435   0.11534   0.00000  Uiso   1.00
H38    H     0.07490   0.22899   0.38466   0.00000  Uiso   1.00
H39    H     0.06105   0.25459   0.46354   0.00000  Uiso   1.00
H40    H     0.27229   0.07875   0.03646   0.00000  Uiso   1.00
H41    H     0.13711   0.23187   0.06530   0.00000  Uiso   1.00
H42    H     0.19622   0.10147   0.43470   0.00000  Uiso   1.00
H43    H     0.24383   0.04014   0.21307   0.00000  Uiso   1.00
H44    H     0.08950   0.29319   0.28693   0.00000  Uiso   1.00
H45    H     0.07026   0.13201   0.18721   0.00000  Uiso   1.00
H46    H     0.26307   0.20132   0.31279   0.00000  Uiso   1.00
N47    N     0.04759   0.16668   0.25001   0.00000  Uiso   1.00
N48    N     0.28574   0.16666   0.24999   0.00000  Uiso   1.00
O49    O     0.12846   0.22775   0.25000   0.00000  Uiso   1.00
O50    O     0.20488   0.10558   0.24999   0.00000  Uiso   1.00
O51    O     0.20490   0.22774   0.25000   0.00000  Uiso   1.00
O52    O     0.12843   0.10559   0.25000   0.00000  Uiso   1.00
O53    O     0.10661   0.16667   0.31612   0.00000  Uiso   1.00
O54    O     0.22672   0.16666   0.18387   0.00000  Uiso   1.00
O55    O     0.18305   0.16666   0.31612   0.00000  Uiso   1.00
O56    O     0.15028   0.16667   0.18388   0.00000  Uiso   1.00
Zn57   Zn    0.11562   0.16667   0.25000   0.00000  Uiso   1.00
Zn58   Zn    0.21771   0.16666   0.25000   0.00000  Uiso   1.00
C59    C     0.26142   0.29425   0.20083   0.00000  Uiso   1.00
C60    C     0.29703   0.29568   0.21956   0.00000  Uiso   1.00
C61    C     0.01108   0.28031   0.19320   0.00000  Uiso   1.00
C62    C     0.02333   0.26413   0.14785   0.00000  Uiso   1.00
C63    C     0.32145   0.26296   0.12890   0.00000  Uiso   1.00
C64    C     0.27378   0.27761   0.15546   0.00000  Uiso   1.00
H65    H     0.28811   0.30886   0.25434   0.00000  Uiso   1.00
H66    H     0.03846   0.28130   0.20769   0.00000  Uiso   1.00
H67    H     0.06006   0.25243   0.12747   0.00000  Uiso   1.00
H68    H     0.33103   0.25051   0.09369   0.00000  Uiso   1.00
H69    H     0.24684   0.27678   0.14039   0.00000  Uiso   1.00
C70    C     0.07191   0.03908   0.29917   0.00000  Uiso   1.00
C71    C     0.05956   0.05573   0.34454   0.00000  Uiso   1.00
C72    C     0.01188   0.07037   0.37110   0.00000  Uiso   1.00
C73    C     0.31000   0.06920   0.35215   0.00000  Uiso   1.00
C74    C     0.32225   0.05303   0.30679   0.00000  Uiso   1.00
C75    C     0.03631   0.03766   0.28044   0.00000  Uiso   1.00
H76    H     0.08649   0.05656   0.35961   0.00000  Uiso   1.00
H77    H     0.00230   0.08282   0.40630   0.00000  Uiso   1.00
H78    H     0.27327   0.08090   0.37253   0.00000  Uiso   1.00
H79    H     0.29487   0.05203   0.29231   0.00000  Uiso   1.00
H80    H     0.04523   0.02448   0.24566   0.00000  Uiso   1.00
C81    C     0.32364   0.12638   0.17337   0.00000  Uiso   1.00
C82    C     0.00522   0.14846   0.13007   0.00000  Uiso   1.00
C83    C     0.02097   0.12742   0.08679   0.00000  Uiso   1.00
C84    C     0.02132   0.08398   0.08640   0.00000  Uiso   1.00
C85    C     0.00640   0.06166   0.12926   0.00000  Uiso   1.00
C86    C     0.32544   0.08277   0.17236   0.00000  Uiso   1.00
H87    H     0.00782   0.18185   0.12956   0.00000  Uiso   1.00
H88    H     0.03325   0.14479   0.05358   0.00000  Uiso   1.00
H89    H     0.03338   0.06768   0.05294   0.00000  Uiso   1.00
H90    H     0.00770   0.02803   0.12892   0.00000  Uiso   1.00
H91    H     0.31877   0.06522   0.20462   0.00000  Uiso   1.00
C92    C     0.00970   0.20695   0.32663   0.00000  Uiso   1.00
C93    C     0.00790   0.25056   0.32764   0.00000  Uiso   1.00
C94    C     0.32694   0.27168   0.37074   0.00000  Uiso   1.00
C95    C     0.31201   0.24935   0.41360   0.00000  Uiso   1.00
C96    C     0.31236   0.20591   0.41321   0.00000  Uiso   1.00
C97    C     0.32812   0.18487   0.36993   0.00000  Uiso   1.00
H98    H     0.01456   0.26811   0.29538   0.00000  Uiso   1.00
H99    H     0.32563   0.30530   0.37107   0.00000  Uiso   1.00
H100   H     0.29995   0.26566   0.44705   0.00000  Uiso   1.00
H101   H     0.30009   0.18855   0.44642   0.00000  Uiso   1.00
H102   H     0.32552   0.15149   0.37044   0.00000  Uiso   1.00
C103   C     0.50080   0.24654   0.24839   0.00000  Uiso   1.00
C104   C     0.49920   0.08680   0.25161   0.00000  Uiso   1.00
C105   C     0.47087   0.21328   0.03642   0.00000  Uiso   1.00
C106   C     0.52913   0.12006   0.46358   0.00000  Uiso   1.00
C107   C     0.44118   0.22773   0.01497   0.00000  Uiso   1.00
C108   C     0.55882   0.10560   0.48503   0.00000  Uiso   1.00
C109   C     0.54585   0.31327   0.22715   0.00000  Uiso   1.00
C110   C     0.45415   0.02006   0.27285   0.00000  Uiso   1.00
C111   C     0.54364   0.02252   0.23003   0.00000  Uiso   1.00
C112   C     0.45636   0.31082   0.26997   0.00000  Uiso   1.00
C113   C     0.49855   0.04257   0.25250   0.00000  Uiso   1.00
C114   C     0.50145   0.29076   0.24750   0.00000  Uiso   1.00
C115   C     0.65908   0.14744   0.21454   0.00000  Uiso   1.00
C116   C     0.34092   0.18590   0.28546   0.00000  Uiso   1.00
C117   C     0.37301   0.14746   0.21510   0.00000  Uiso   1.00
C118   C     0.62699   0.18588   0.28490   0.00000  Uiso   1.00
C119   C     0.46882   0.16723   0.33825   0.00000  Uiso   1.00
C120   C     0.53118   0.16611   0.16175   0.00000  Uiso   1.00
C121   C     0.44920   0.17524   0.38896   0.00000  Uiso   1.00
C122   C     0.55080   0.15810   0.11104   0.00000  Uiso   1.00
C123   C     0.41542   0.22630   0.45075   0.00000  Uiso   1.00
C124   C     0.58459   0.10703   0.04925   0.00000  Uiso   1.00
C125   C     0.42135   0.21094   0.40678   0.00000  Uiso   1.00
C126   C     0.57865   0.12239   0.09322   0.00000  Uiso   1.00
C127   C     0.47118   0.15475   0.41507   0.00000  Uiso   1.00
C128   C     0.52882   0.17858   0.08493   0.00000  Uiso   1.00
C129   C     0.47003   0.17183   0.45731   0.00000  Uiso   1.00
C130   C     0.52997   0.16150   0.04269   0.00000  Uiso   1.00
C131   C     0.44115   0.20808   0.47514   0.00000  Uiso   1.00
C132   C     0.55885   0.12526   0.02485   0.00000  Uiso   1.00
C133   C     0.49959   0.15599   0.48004   0.00000  Uiso   1.00
C134   C     0.50041   0.17734   0.01995   0.00000  Uiso   1.00
H135   H     0.41979   0.25575   0.02840   0.00000  Uiso   1.00
H136   H     0.58021   0.07758   0.47160   0.00000  Uiso   1.00
H137   H     0.50680   0.20527   0.10160   0.00000  Uiso   1.00
H138   H     0.49320   0.12806   0.39840   0.00000  Uiso   1.00
H139   H     0.59177   0.10435   0.11534   0.00000  Uiso   1.00
H140   H     0.40823   0.22899   0.38466   0.00000  Uiso   1.00
H141   H     0.39438   0.25459   0.46354   0.00000  Uiso   1.00
H142   H     0.60562   0.07875   0.03646   0.00000  Uiso   1.00
H143   H     0.47045   0.23187   0.06530   0.00000  Uiso   1.00
H144   H     0.52956   0.10147   0.43470   0.00000  Uiso   1.00
H145   H     0.57716   0.04014   0.21307   0.00000  Uiso   1.00
H146   H     0.42284   0.29319   0.28693   0.00000  Uiso   1.00
H147   H     0.40360   0.13201   0.18721   0.00000  Uiso   1.00
H148   H     0.59640   0.20132   0.31279   0.00000  Uiso   1.00
N149   N     0.38093   0.16668   0.25001   0.00000  Uiso   1.00
N150   N     0.61907   0.16666   0.24999   0.00000  Uiso   1.00
O151   O     0.46179   0.22775   0.25000   0.00000  Uiso   1.00
O152   O     0.53821   0.10558   0.24999   0.00000  Uiso   1.00
O153   O     0.53823   0.22774   0.25000   0.00000  Uiso   1.00
O154   O     0.46177   0.10559   0.25000   0.00000  Uiso   1.00
O155   O     0.43994   0.16667   0.31612   0.00000  Uiso   1.00
O156   O     0.56006   0.16666   0.18387   0.00000  Uiso   1.00
O157   O     0.51639   0.16666   0.31612   0.00000  Uiso   1.00
O158   O     0.48361   0.16667   0.18388   0.00000  Uiso   1.00
Zn159  Zn    0.44896   0.16667   0.25000   0.00000  Uiso   1.00
Zn160  Zn    0.55104   0.16666   0.25000   0.00000  Uiso   1.00
C161   C     0.59476   0.29425   0.20083   0.00000  Uiso   1.00
C162   C     0.63036   0.29568   0.21956   0.00000  Uiso   1.00
C163   C     0.34442   0.28031   0.19320   0.00000  Uiso   1.00
C164   C     0.35666   0.26413   0.14785   0.00000  Uiso   1.00
C165   C     0.65479   0.26296   0.12890   0.00000  Uiso   1.00
C166   C     0.60711   0.27761   0.15546   0.00000  Uiso   1.00
H167   H     0.62144   0.30886   0.25434   0.00000  Uiso   1.00
H168   H     0.37180   0.28130   0.20769   0.00000  Uiso   1.00
H169   H     0.39339   0.25243   0.12747   0.00000  Uiso   1.00
H170   H     0.66437   0.25051   0.09369   0.00000  Uiso   1.00
H171   H     0.58017   0.27678   0.14039   0.00000  Uiso   1.00
C172   C     0.40524   0.03908   0.29917   0.00000  Uiso   1.00
C173   C     0.39289   0.05573   0.34454   0.00000  Uiso   1.00
C174   C     0.34521   0.07037   0.37110   0.00000  Uiso   1.00
C175   C     0.64334   0.06920   0.35215   0.00000  Uiso   1.00
C176   C     0.65558   0.05303   0.30679   0.00000  Uiso   1.00
C177   C     0.36964   0.03766   0.28044   0.00000  Uiso   1.00
H178   H     0.41983   0.05656   0.35961   0.00000  Uiso   1.00
H179   H     0.33563   0.08282   0.40630   0.00000  Uiso   1.00
H180   H     0.60661   0.08090   0.37253   0.00000  Uiso   1.00
H181   H     0.62820   0.05203   0.29231   0.00000  Uiso   1.00
H182   H     0.37856   0.02448   0.24566   0.00000  Uiso   1.00
C183   C     0.65697   0.12638   0.17337   0.00000  Uiso   1.00
C184   C     0.33855   0.14846   0.13007   0.00000  Uiso   1.00
C185   C     0.35431   0.12742   0.08679   0.00000  Uiso   1.00
C186   C     0.35466   0.08398   0.08640   0.00000  Uiso   1.00
C187   C     0.33973   0.06166   0.12926   0.00000  Uiso   1.00
C188   C     0.65877   0.08277   0.17236   0.00000  Uiso   1.00
H189   H     0.34115   0.18185   0.12956   0.00000  Uiso   1.00
H190   H     0.36658   0.14479   0.05358   0.00000  Uiso   1.00
H191   H     0.36671   0.06768   0.05294   0.00000  Uiso   1.00
H192   H     0.34104   0.02803   0.12892   0.00000  Uiso   1.00
H193   H     0.65210   0.06522   0.20462   0.00000  Uiso   1.00
C194   C     0.34303   0.20695   0.32663   0.00000  Uiso   1.00
C195   C     0.34123   0.25056   0.32764   0.00000  Uiso   1.00
C196   C     0.66027   0.27168   0.37074   0.00000  Uiso   1.00
C197   C     0.64535   0.24935   0.41360   0.00000  Uiso   1.00
C198   C     0.64569   0.20591   0.41321   0.00000  Uiso   1.00
C199   C     0.66145   0.18487   0.36993   0.00000  Uiso   1.00
H200   H     0.34790   0.26811   0.29538   0.00000  Uiso   1.00
H201   H     0.65896   0.30530   0.37107   0.00000  Uiso   1.00
H202   H     0.63329   0.26566   0.44705   0.00000  Uiso   1.00
H203   H     0.63342   0.18855   0.44642   0.00000  Uiso   1.00
H204   H     0.65885   0.15149   0.37044   0.00000  Uiso   1.00
C205   C     0.83413   0.24654   0.24839   0.00000  Uiso   1.00
C206   C     0.83254   0.08680   0.25161   0.00000  Uiso   1.00
C207   C     0.80421   0.21328   0.03642   0.00000  Uiso   1.00
C208   C     0.86246   0.12006   0.46358   0.00000  Uiso   1.00
C209   C     0.77452   0.22773   0.01497   0.00000  Uiso   1.00
C210   C     0.89215   0.10560   0.48503   0.00000  Uiso   1.00
C211   C     0.87919   0.31327   0.22715   0.00000  Uiso   1.00
C212   C     0.78748   0.02006   0.27285   0.00000  Uiso   1.00
C213   C     0.87697   0.02252   0.23003   0.00000  Uiso   1.00
C214   C     0.78969   0.31082   0.26997   0.00000  Uiso   1.00
C215   C     0.83188   0.04257   0.25250   0.00000  Uiso   1.00
C216   C     0.83479   0.29076   0.24750   0.00000  Uiso   1.00
C217   C     0.99241   0.14744   0.21454   0.00000  Uiso   1.00
C218   C     0.67425   0.18590   0.28546   0.00000  Uiso   1.00
C219   C     0.70634   0.14746   0.21510   0.00000  Uiso   1.00
C220   C     0.96033   0.18588   0.28490   0.00000  Uiso   1.00
C221   C     0.80215   0.16723   0.33825   0.00000  Uiso   1.00
C222   C     0.86451   0.16611   0.16175   0.00000  Uiso   1.00
C223   C     0.78253   0.17524   0.38896   0.00000  Uiso   1.00
C224   C     0.88414   0.15810   0.11104   0.00000  Uiso   1.00
C225   C     0.74875   0.22630   0.45075   0.00000  Uiso   1.00
C226   C     0.91792   0.10703   0.04925   0.00000  Uiso   1.00
C227   C     0.75468   0.21094   0.40678   0.00000  Uiso   1.00
C228   C     0.91198   0.12239   0.09322   0.00000  Uiso   1.00
C229   C     0.80452   0.15475   0.41507   0.00000  Uiso   1.00
C230   C     0.86215   0.17858   0.08493   0.00000  Uiso   1.00
C231   C     0.80336   0.17183   0.45731   0.00000  Uiso   1.00
C232   C     0.86331   0.16150   0.04269   0.00000  Uiso   1.00
C233   C     0.77448   0.20808   0.47514   0.00000  Uiso   1.00
C234   C     0.89218   0.12526   0.02485   0.00000  Uiso   1.00
C235   C     0.83292   0.15599   0.48004   0.00000  Uiso   1.00
C236   C     0.83375   0.17734   0.01995   0.00000  Uiso   1.00
H237   H     0.75312   0.25575   0.02840   0.00000  Uiso   1.00
H238   H     0.91355   0.07758   0.47160   0.00000  Uiso   1.00
H239   H     0.84013   0.20527   0.10160   0.00000  Uiso   1.00
H240   H     0.82653   0.12806   0.39840   0.00000  Uiso   1.00
H241   H     0.92510   0.10435   0.11534   0.00000  Uiso   1.00
H242   H     0.74156   0.22899   0.38466   0.00000  Uiso   1.00
H243   H     0.72772   0.25459   0.46354   0.00000  Uiso   1.00
H244   H     0.93895   0.07875   0.03646   0.00000  Uiso   1.00
H245   H     0.80378   0.23187   0.06530   0.00000  Uiso   1.00
H246   H     0.86289   0.10147   0.43470   0.00000  Uiso   1.00
H247   H     0.91049   0.04014   0.21307   0.00000  Uiso   1.00
H248   H     0.75617   0.29319   0.28693   0.00000  Uiso   1.00
H249   H     0.73693   0.13201   0.18721   0.00000  Uiso   1.00
H250   H     0.92974   0.20132   0.31279   0.00000  Uiso   1.00
N251   N     0.71426   0.16668   0.25001   0.00000  Uiso   1.00
N252   N     0.95241   0.16666   0.24999   0.00000  Uiso   1.00
O253   O     0.79512   0.22775   0.25000   0.00000  Uiso   1.00
O254   O     0.87154   0.10558   0.24999   0.00000  Uiso   1.00
O255   O     0.87157   0.22774   0.25000   0.00000  Uiso   1.00
O256   O     0.79510   0.10559   0.25000   0.00000  Uiso   1.00
O257   O     0.77328   0.16667   0.31612   0.00000  Uiso   1.00
O258   O     0.89339   0.16666   0.18387   0.00000  Uiso   1.00
O259   O     0.84972   0.16666   0.31612   0.00000  Uiso   1.00
O260   O     0.81695   0.16667   0.18388   0.00000  Uiso   1.00
Zn261  Zn    0.78229   0.16667   0.25000   0.00000  Uiso   1.00
Zn262  Zn    0.88438   0.16666   0.25000   0.00000  Uiso   1.00
C263   C     0.92809   0.29425   0.20083   0.00000  Uiso   1.00
C264   C     0.96369   0.29568   0.21956   0.00000  Uiso   1.00
C265   C     0.67775   0.28031   0.19320   0.00000  Uiso   1.00
C266   C     0.69000   0.26413   0.14785   0.00000  Uiso   1.00
C267   C     0.98812   0.26296   0.12890   0.00000  Uiso   1.00
C268   C     0.94044   0.27761   0.15546   0.00000  Uiso   1.00
H269   H     0.95477   0.30886   0.25434   0.00000  Uiso   1.00
H270   H     0.70513   0.28130   0.20769   0.00000  Uiso   1.00
H271   H     0.72673   0.25243   0.12747   0.00000  Uiso   1.00
H272   H     0.99770   0.25051   0.09369   0.00000  Uiso   1.00
H273   H     0.91351   0.27678   0.14039   0.00000  Uiso   1.00
C274   C     0.73858   0.03908   0.29917   0.00000  Uiso   1.00
C275   C     0.72622   0.05573   0.34454   0.00000  Uiso   1.00
C276   C     0.67855   0.07037   0.37110   0.00000  Uiso   1.00
C277   C     0.97667   0.06920   0.35215   0.00000  Uiso   1.00
C278   C     0.98892   0.05303   0.30679   0.00000  Uiso   1.00
C279   C     0.70297   0.03766   0.28044   0.00000  Uiso   1.00
H280   H     0.75316   0.05656   0.35961   0.00000  Uiso   1.00
H281   H     0.66897   0.08282   0.40630   0.00000  Uiso   1.00
H282   H     0.93994   0.08090   0.37253   0.00000  Uiso   1.00
H283   H     0.96154   0.05203   0.29231   0.00000  Uiso   1.00
H284   H     0.71189   0.02448   0.24566   0.00000  Uiso   1.00
C285   C     0.99030   0.12638   0.17337   0.00000  Uiso   1.00
C286   C     0.67188   0.14846   0.13007   0.00000  Uiso   1.00
C287   C     0.68764   0.12742   0.08679   0.00000  Uiso   1.00
C288   C     0.68799   0.08398   0.08640   0.00000  Uiso   1.00
C289   C     0.67306   0.06166   0.12926   0.00000  Uiso   1.00
C290   C     0.99210   0.08277   0.17236   0.00000  Uiso   1.00
H291   H     0.67448   0.18185   0.12956   0.00000  Uiso   1.00
H292   H     0.69991   0.14479   0.05358   0.00000  Uiso   1.00
H293   H     0.70005   0.06768   0.05294   0.00000  Uiso   1.00
H294   H     0.67437   0.02803   0.12892   0.00000  Uiso   1.00
H295   H     0.98543   0.06522   0.20462   0.00000  Uiso   1.00
C296   C     0.67636   0.20695   0.32663   0.00000  Uiso   1.00
C297   C     0.67456   0.25056   0.32764   0.00000  Uiso   1.00
C298   C     0.99360   0.27168   0.37074   0.00000  Uiso   1.00
C299   C     0.97868   0.24935   0.41360   0.00000  Uiso   1.00
C300   C     0.97903   0.20591   0.41321   0.00000  Uiso   1.00
C301   C     0.99478   0.18487   0.36993   0.00000  Uiso   1.00
H302   H     0.68123   0.26811   0.29538   0.00000  Uiso   1.00
H303   H     0.99229   0.30530   0.37107   0.00000  Uiso   1.00
H304   H     0.96662   0.26566   0.44705   0.00000  Uiso   1.00
H305   H     0.96676   0.18855   0.44642   0.00000  Uiso   1.00
H306   H     0.99219   0.15149   0.37044   0.00000  Uiso   1.00
C307   C     0.16746   0.57987   0.24839   0.00000  Uiso   1.00
C308   C     0.16587   0.42013   0.25161   0.00000  Uiso   1.00
C309   C     0.13754   0.54661   0.03642   0.00000  Uiso   1.00
C310   C     0.19580   0.45339   0.46358   0.00000  Uiso   1.00
C311   C     0.10785   0.56106   0.01497   0.00000  Uiso   1.00
C312   C     0.22548   0.43894   0.48503   0.00000  Uiso   1.00
C313   C     0.21252   0.64660   0.22715   0.00000  Uiso   1.00
C314   C     0.12081   0.35340   0.27285   0.00000  Uiso   1.00
C315   C     0.21031   0.35585   0.23003   0.00000  Uiso   1.00
C316   C     0.12303   0.64415   0.26997   0.00000  Uiso   1.00
C317   C     0.16521   0.37590   0.25250   0.00000  Uiso   1.00
C318   C     0.16812   0.62410   0.24750   0.00000  Uiso   1.00
C319   C     0.32575   0.48077   0.21454   0.00000  Uiso   1.00
C320   C     0.00759   0.51923   0.28546   0.00000  Uiso   1.00
C321   C     0.03967   0.48079   0.21510   0.00000  Uiso   1.00
C322   C     0.29366   0.51921   0.28490   0.00000  Uiso   1.00
C323   C     0.13549   0.50056   0.33825   0.00000  Uiso   1.00
C324   C     0.19785   0.49944   0.16175   0.00000  Uiso   1.00
C325   C     0.11586   0.50857   0.38896   0.00000  Uiso   1.00
C326   C     0.21747   0.49143   0.11104   0.00000  Uiso   1.00
C327   C     0.08208   0.55964   0.45075   0.00000  Uiso   1.00
C328   C     0.25125   0.44037   0.04925   0.00000  Uiso   1.00
C329   C     0.08802   0.54427   0.40678   0.00000  Uiso   1.00
C330   C     0.24532   0.45573   0.09322   0.00000  Uiso   1.00
C331   C     0.13785   0.48809   0.41507   0.00000  Uiso   1.00
C332   C     0.19548   0.51191   0.08493   0.00000  Uiso   1.00
C333   C     0.13670   0.50517   0.45731   0.00000  Uiso   1.00
C334   C     0.19664   0.49484   0.04269   0.00000  Uiso   1.00
C335   C     0.10782   0.54141   0.47514   0.00000  Uiso   1.00
C336   C     0.22552   0.45859   0.02485   0.00000  Uiso   1.00
C337   C     0.16625   0.48933   0.48004   0.00000  Uiso   1.00
C338   C     0.16708   0.51068   0.01995   0.00000  Uiso   1.00
H339   H     0.08646   0.58909   0.02840   0.00000  Uiso   1.00
H340   H     0.24688   0.41092   0.47160   0.00000  Uiso   1.00
H341   H     0.17346   0.53860   0.10160   0.00000  Uiso   1.00
H342   H     0.15987   0.46140   0.39840   0.00000  Uiso   1.00
H343   H     0.25844   0.43768   0.11534   0.00000  Uiso   1.00
H344   H     0.07490   0.56232   0.38466   0.00000  Uiso   1.00
H345   H     0.06105   0.58792   0.46354   0.00000  Uiso   1.00
H346   H     0.27229   0.41208   0.03646   0.00000  Uiso   1.00
H347   H     0.13711   0.56520   0.06530   0.00000  Uiso   1.00
H348   H     0.19622   0.43480   0.43470   0.00000  Uiso   1.00
H349   H     0.24383   0.37347   0.21307   0.00000  Uiso   1.00
H350   H     0.08950   0.62653   0.28693   0.00000  Uiso   1.00
H351   H     0.07026   0.46534   0.18721   0.00000  Uiso   1.00
H352   H     0.26307   0.53466   0.31279   0.00000  Uiso   1.00
N353   N     0.04759   0.50001   0.25001   0.00000  Uiso   1.00
N354   N     0.28574   0.49999   0.24999   0.00000  Uiso   1.00
O355   O     0.12846   0.56108   0.25000   0.00000  Uiso   1.00
O356   O     0.20488   0.43892   0.24999   0.00000  Uiso   1.00
O357   O     0.20490   0.56107   0.25000   0.00000  Uiso   1.00
O358   O     0.12843   0.43893   0.25000   0.00000  Uiso   1.00
O359   O     0.10661   0.50001   0.31612   0.00000  Uiso   1.00
O360   O     0.22672   0.49999   0.18387   0.00000  Uiso   1.00
O361   O     0.18305   0.50000   0.31612   0.00000  Uiso   1.00
O362   O     0.15028   0.50000   0.18388   0.00000  Uiso   1.00
Zn363  Zn    0.11562   0.50001   0.25000   0.00000  Uiso   1.00
Zn364  Zn    0.21771   0.49999   0.25000   0.00000  Uiso   1.00
C365   C     0.26142   0.62758   0.20083   0.00000  Uiso   1.00
C366   C     0.29703   0.62901   0.21956   0.00000  Uiso   1.00
C367   C     0.01108   0.61364   0.19320   0.00000  Uiso   1.00
C368   C     0.02333   0.59747   0.14785   0.00000  Uiso   1.00
C369   C     0.32145   0.59629   0.12890   0.00000  Uiso   1.00
C370   C     0.27378   0.61094   0.15546   0.00000  Uiso   1.00
H371   H     0.28811   0.64219   0.25434   0.00000  Uiso   1.00
H372   H     0.03846   0.61464   0.20769   0.00000  Uiso   1.00
H373   H     0.06006   0.58576   0.12747   0.00000  Uiso   1.00
H374   H     0.33103   0.58385   0.09369   0.00000  Uiso   1.00
H375   H     0.24684   0.61011   0.14039   0.00000  Uiso   1.00
C376   C     0.07191   0.37242   0.29917   0.00000  Uiso   1.00
C377   C     0.05956   0.38906   0.34454   0.00000  Uiso   1.00
C378   C     0.01188   0.40371   0.37110   0.00000  Uiso   1.00
C379   C     0.31000   0.40253   0.35215   0.00000  Uiso   1.00
C380   C     0.32225   0.38636   0.30679   0.00000  Uiso   1.00
C381   C     0.03631   0.37099   0.28044   0.00000  Uiso   1.00
H382   H     0.08649   0.38989   0.35961   0.00000  Uiso   1.00
H383   H     0.00230   0.41615   0.40630   0.00000  Uiso   1.00
H384   H     0.27327   0.41424   0.37253   0.00000  Uiso   1.00
H385   H     0.29487   0.38537   0.29231   0.00000  Uiso   1.00
H386   H     0.04523   0.35781   0.24566   0.00000  Uiso   1.00
C387   C     0.32364   0.45972   0.17337   0.00000  Uiso   1.00
C388   C     0.00522   0.48179   0.13007   0.00000  Uiso   1.00
C389   C     0.02097   0.46075   0.08679   0.00000  Uiso   1.00
C390   C     0.02132   0.41731   0.08640   0.00000  Uiso   1.00
C391   C     0.00640   0.39499   0.12926   0.00000  Uiso   1.00
C392   C     0.32544   0.41611   0.17236   0.00000  Uiso   1.00
H393   H     0.00782   0.51518   0.12956   0.00000  Uiso   1.00
H394   H     0.03325   0.47812   0.05358   0.00000  Uiso   1.00
H395   H     0.03338   0.40101   0.05294   0.00000  Uiso   1.00
H396   H     0.00770   0.36137   0.12892   0.00000  Uiso   1.00
H397   H     0.31877   0.39855   0.20462   0.00000  Uiso   1.00
C398   C     0.00970   0.54028   0.32663   0.00000  Uiso   1.00
C399   C     0.00790   0.58389   0.32764   0.00000  Uiso   1.00
C400   C     0.32694   0.60501   0.37074   0.00000  Uiso   1.00
C401   C     0.31201   0.58269   0.41360   0.00000  Uiso   1.00
C402   C     0.31236   0.53925   0.41321   0.00000  Uiso   1.00
C403   C     0.32812   0.51821   0.36993   0.00000  Uiso   1.00
H404   H     0.01456   0.60145   0.29538   0.00000  Uiso   1.00
H405   H     0.32563   0.63863   0.37107   0.00000  Uiso   1.00
H406   H     0.29995   0.59899   0.44705   0.00000  Uiso   1.00
H407   H     0.30009   0.52188   0.44642   0.00000  Uiso   1.00
H408   H     0.32552   0.48482   0.37044   0.00000  Uiso   1.00
C409   C     0.50080   0.57987   0.24839   0.00000  Uiso   1.00
C410   C     0.49920   0.42013   0.25161   0.00000  Uiso   1.00
C411   C     0.47087   0.54661   0.03642   0.00000  Uiso   1.00
C412   C     0.52913   0.45339   0.46358   0.00000  Uiso   1.00
C413   C     0.44118   0.56106   0.01497   0.00000  Uiso   1.00
C414   C     0.55882   0.43894   0.48503   0.00000  Uiso   1.00
C415   C     0.54585   0.64660   0.22715   0.00000  Uiso   1.00
C416   C     0.45415   0.35340   0.27285   0.00000  Uiso   1.00
C417   C     0.54364   0.35585   0.23003   0.00000  Uiso   1.00
C418   C     0.45636   0.64415   0.26997   0.00000  Uiso   1.00
C419   C     0.49855   0.37590   0.25250   0.00000  Uiso   1.00
C420   C     0.50145   0.62410   0.24750   0.00000  Uiso   1.00
C421   C     0.65908   0.48077   0.21454   0.00000  Uiso   1.00
C422   C     0.34092   0.51923   0.28546   0.00000  Uiso   1.00
C423   C     0.37301   0.48079   0.21510   0.00000  Uiso   1.00
C424   C     0.62699   0.51921   0.28490   0.00000  Uiso   1.00
C425   C     0.46882   0.50056   0.33825   0.00000  Uiso   1.00
C426   C     0.53118   0.49944   0.16175   0.00000  Uiso   1.00
C427   C     0.44920   0.50857   0.38896   0.00000  Uiso   1.00
C428   C     0.55080   0.49143   0.11104   0.00000  Uiso   1.00
C429   C     0.41542   0.55964   0.45075   0.00000  Uiso   1.00
C430   C     0.58459   0.44037   0.04925   0.00000  Uiso   1.00
C431   C     0.42135   0.54427   0.40678   0.00000  Uiso   1.00
C432   C     0.57865   0.45573   0.09322   0.00000  Uiso   1.00
C433   C     0.47118   0.48809   0.41507   0.00000  Uiso   1.00
C434   C     0.52882   0.51191   0.08493   0.00000  Uiso   1.00
C435   C     0.47003   0.50517   0.45731   0.00000  Uiso   1.00
C436   C     0.52997   0.49484   0.04269   0.00000  Uiso   1.00
C437   C     0.44115   0.54141   0.47514   0.00000  Uiso   1.00
C438   C     0.55885   0.45859   0.02485   0.00000  Uiso   1.00
C439   C     0.49959   0.48933   0.48004   0.00000  Uiso   1.00
C440   C     0.50041   0.51068   0.01995   0.00000  Uiso   1.00
H441   H     0.41979   0.58909   0.02840   0.00000  Uiso   1.00
H442   H     0.58021   0.41092   0.47160   0.00000  Uiso   1.00
H443   H     0.50680   0.53860   0.10160   0.00000  Uiso   1.00
H444   H     0.49320   0.46140   0.39840   0.00000  Uiso   1.00
H445   H     0.59177   0.43768   0.11534   0.00000  Uiso   1.00
H446   H     0.40823   0.56232   0.38466   0.00000  Uiso   1.00
H447   H     0.39438   0.58792   0.46354   0.00000  Uiso   1.00
H448   H     0.60562   0.41208   0.03646   0.00000  Uiso   1.00
H449   H     0.47045   0.56520   0.06530   0.00000  Uiso   1.00
H450   H     0.52956   0.43480   0.43470   0.00000  Uiso   1.00
H451   H     0.57716   0.37347   0.21307   0.00000  Uiso   1.00
H452   H     0.42284   0.62653   0.28693   0.00000  Uiso   1.00
H453   H     0.40360   0.46534   0.18721   0.00000  Uiso   1.00
H454   H     0.59640   0.53466   0.31279   0.00000  Uiso   1.00
N455   N     0.38093   0.50001   0.25001   0.00000  Uiso   1.00
N456   N     0.61907   0.49999   0.24999   0.00000  Uiso   1.00
O457   O     0.46179   0.56108   0.25000   0.00000  Uiso   1.00
O458   O     0.53821   0.43892   0.24999   0.00000  Uiso   1.00
O459   O     0.53823   0.56107   0.25000   0.00000  Uiso   1.00
O460   O     0.46177   0.43893   0.25000   0.00000  Uiso   1.00
O461   O     0.43994   0.50001   0.31612   0.00000  Uiso   1.00
O462   O     0.56006   0.49999   0.18387   0.00000  Uiso   1.00
O463   O     0.51639   0.50000   0.31612   0.00000  Uiso   1.00
O464   O     0.48361   0.50000   0.18388   0.00000  Uiso   1.00
Zn465  Zn    0.44896   0.50001   0.25000   0.00000  Uiso   1.00
Zn466  Zn    0.55104   0.49999   0.25000   0.00000  Uiso   1.00
C467   C     0.59476   0.62758   0.20083   0.00000  Uiso   1.00
C468   C     0.63036   0.62901   0.21956   0.00000  Uiso   1.00
C469   C     0.34442   0.61364   0.19320   0.00000  Uiso   1.00
C470   C     0.35666   0.59747   0.14785   0.00000  Uiso   1.00
C471   C     0.65479   0.59629   0.12890   0.00000  Uiso   1.00
C472   C     0.60711   0.61094   0.15546   0.00000  Uiso   1.00
H473   H     0.62144   0.64219   0.25434   0.00000  Uiso   1.00
H474   H     0.37180   0.61464   0.20769   0.00000  Uiso   1.00
H475   H     0.39339   0.58576   0.12747   0.00000  Uiso   1.00
H476   H     0.66437   0.58385   0.09369   0.00000  Uiso   1.00
H477   H     0.58017   0.61011   0.14039   0.00000  Uiso   1.00
C478   C     0.40524   0.37242   0.29917   0.00000  Uiso   1.00
C479   C     0.39289   0.38906   0.34454   0.00000  Uiso   1.00
C480   C     0.34521   0.40371   0.37110   0.00000  Uiso   1.00
C481   C     0.64334   0.40253   0.35215   0.00000  Uiso   1.00
C482   C     0.65558   0.38636   0.30679   0.00000  Uiso   1.00
C483   C     0.36964   0.37099   0.28044   0.00000  Uiso   1.00
H484   H     0.41983   0.38989   0.35961   0.00000  Uiso   1.00
H485   H     0.33563   0.41615   0.40630   0.00000  Uiso   1.00
H486   H     0.60661   0.41424   0.37253   0.00000  Uiso   1.00
H487   H     0.62820   0.38537   0.29231   0.00000  Uiso   1.00
H488   H     0.37856   0.35781   0.24566   0.00000  Uiso   1.00
C489   C     0.65697   0.45972   0.17337   0.00000  Uiso   1.00
C490   C     0.33855   0.48179   0.13007   0.00000  Uiso   1.00
C491   C     0.35431   0.46075   0.08679   0.00000  Uiso   1.00
C492   C     0.35466   0.41731   0.08640   0.00000  Uiso   1.00
C493   C     0.33973   0.39499   0.12926   0.00000  Uiso   1.00
C494   C     0.65877   0.41611   0.17236   0.00000  Uiso   1.00
H495   H     0.34115   0.51518   0.12956   0.00000  Uiso   1.00
H496   H     0.36658   0.47812   0.05358   0.00000  Uiso   1.00
H497   H     0.36671   0.40101   0.05294   0.00000  Uiso   1.00
H498   H     0.34104   0.36137   0.12892   0.00000  Uiso   1.00
H499   H     0.65210   0.39855   0.20462   0.00000  Uiso   1.00
C500   C     0.34303   0.54028   0.32663   0.00000  Uiso   1.00
C501   C     0.34123   0.58389   0.32764   0.00000  Uiso   1.00
C502   C     0.66027   0.60501   0.37074   0.00000  Uiso   1.00
C503   C     0.64535   0.58269   0.41360   0.00000  Uiso   1.00
C504   C     0.64569   0.53925   0.41321   0.00000  Uiso   1.00
C505   C     0.66145   0.51821   0.36993   0.00000  Uiso   1.00
H506   H     0.34790   0.60145   0.29538   0.00000  Uiso   1.00
H507   H     0.65896   0.63863   0.37107   0.00000  Uiso   1.00
H508   H     0.63329   0.59899   0.44705   0.00000  Uiso   1.00
H509   H     0.63342   0.52188   0.44642   0.00000  Uiso   1.00
H510   H     0.65885   0.48482   0.37044   0.00000  Uiso   1.00
C511   C     0.83413   0.57987   0.24839   0.00000  Uiso   1.00
C512   C     0.83254   0.42013   0.25161   0.00000  Uiso   1.00
C513   C     0.80421   0.54661   0.03642   0.00000  Uiso   1.00
C514   C     0.86246   0.45339   0.46358   0.00000  Uiso   1.00
C515   C     0.77452   0.56106   0.01497   0.00000  Uiso   1.00
C516   C     0.89215   0.43894   0.48503   0.00000  Uiso   1.00
C517   C     0.87919   0.64660   0.22715   0.00000  Uiso   1.00
C518   C     0.78748   0.35340   0.27285   0.00000  Uiso   1.00
C519   C     0.87697   0.35585   0.23003   0.00000  Uiso   1.00
C520   C     0.78969   0.64415   0.26997   0.00000  Uiso   1.00
C521   C     0.83188   0.37590   0.25250   0.00000  Uiso   1.00
C522   C     0.83479   0.62410   0.24750   0.00000  Uiso   1.00
C523   C     0.99241   0.48077   0.21454   0.00000  Uiso   1.00
C524   C     0.67425   0.51923   0.28546   0.00000  Uiso   1.00
C525   C     0.70634   0.48079   0.21510   0.00000  Uiso   1.00
C526   C     0.96033   0.51921   0.28490   0.00000  Uiso   1.00
C527   C     0.80215   0.50056   0.33825   0.00000  Uiso   1.00
C528   C     0.86451   0.49944   0.16175   0.00000  Uiso   1.00
C529   C     0.78253   0.50857   0.38896   0.00000  Uiso   1.00
C530   C     0.88414   0.49143   0.11104   0.00000  Uiso   1.00
C531   C     0.74875   0.55964   0.45075   0.00000  Uiso   1.00
C532   C     0.91792   0.44037   0.04925   0.00000  Uiso   1.00
C533   C     0.75468   0.54427   0.40678   0.00000  Uiso   1.00
C534   C     0.91198   0.45573   0.09322   0.00000  Uiso   1.00
C535   C     0.80452   0.48809   0.41507   0.00000  Uiso   1.00
C536   C     0.86215   0.51191   0.08493   0.00000  Uiso   1.00
C537   C     0.80336   0.50517   0.45731   0.00000  Uiso   1.00
C538   C     0.86331   0.49484   0.04269   0.00000  Uiso   1.00
C539   C     0.77448   0.54141   0.47514   0.00000  Uiso   1.00
C540   C     0.89218   0.45859   0.02485   0.00000  Uiso   1.00
C541   C     0.83292   0.48933   0.48004   0.00000  Uiso   1.00
C542   C     0.83375   0.51068   0.01995   0.00000  Uiso   1.00
H543   H     0.75312   0.58909   0.02840   0.00000  Uiso   1.00
H544   H     0.91355   0.41092   0.47160   0.00000  Uiso   1.00
H545   H     0.84013   0.53860   0.10160   0.00000  Uiso   1.00
H546   H     0.82653   0.46140   0.39840   0.00000  Uiso   1.00
H547   H     0.92510   0.43768   0.11534   0.00000  Uiso   1.00
H548   H     0.74156   0.56232   0.38466   0.00000  Uiso   1.00
H549   H     0.72772   0.58792   0.46354   0.00000  Uiso   1.00
H550   H     0.93895   0.41208   0.03646   0.00000  Uiso   1.00
H551   H     0.80378   0.56520   0.06530   0.00000  Uiso   1.00
H552   H     0.86289   0.43480   0.43470   0.00000  Uiso   1.00
H553   H     0.91049   0.37347   0.21307   0.00000  Uiso   1.00
H554   H     0.75617   0.62653   0.28693   0.00000  Uiso   1.00
H555   H     0.73693   0.46534   0.18721   0.00000  Uiso   1.00
H556   H     0.92974   0.53466   0.31279   0.00000  Uiso   1.00
N557   N     0.71426   0.50001   0.25001   0.00000  Uiso   1.00
N558   N     0.95241   0.49999   0.24999   0.00000  Uiso   1.00
O559   O     0.79512   0.56108   0.25000   0.00000  Uiso   1.00
O560   O     0.87154   0.43892   0.24999   0.00000  Uiso   1.00
O561   O     0.87157   0.56107   0.25000   0.00000  Uiso   1.00
O562   O     0.79510   0.43893   0.25000   0.00000  Uiso   1.00
O563   O     0.77328   0.50001   0.31612   0.00000  Uiso   1.00
O564   O     0.89339   0.49999   0.18387   0.00000  Uiso   1.00
O565   O     0.84972   0.50000   0.31612   0.00000  Uiso   1.00
O566   O     0.81695   0.50000   0.18388   0.00000  Uiso   1.00
Zn567  Zn    0.78229   0.50001   0.25000   0.00000  Uiso   1.00
Zn568  Zn    0.88438   0.49999   0.25000   0.00000  Uiso   1.00
C569   C     0.92809   0.62758   0.20083   0.00000  Uiso   1.00
C570   C     0.96369   0.62901   0.21956   0.00000  Uiso   1.00
C571   C     0.67775   0.61364   0.19320   0.00000  Uiso   1.00
C572   C     0.69000   0.59747   0.14785   0.00000  Uiso   1.00
C573   C     0.98812   0.59629   0.12890   0.00000  Uiso   1.00
C574   C     0.94044   0.61094   0.15546   0.00000  Uiso   1.00
H575   H     0.95477   0.64219   0.25434   0.00000  Uiso   1.00
H576   H     0.70513   0.61464   0.20769   0.00000  Uiso   1.00
H577   H     0.72673   0.58576   0.12747   0.00000  Uiso   1.00
H578   H     0.99770   0.58385   0.09369   0.00000  Uiso   1.00
H579   H     0.91351   0.61011   0.14039   0.00000  Uiso   1.00
C580   C     0.73858   0.37242   0.29917   0.00000  Uiso   1.00
C581   C     0.72622   0.38906   0.34454   0.00000  Uiso   1.00
C582   C     0.67855   0.40371   0.37110   0.00000  Uiso   1.00
C583   C     0.97667   0.40253   0.35215   0.00000  Uiso   1.00
C584   C     0.98892   0.38636   0.30679   0.00000  Uiso   1.00
C585   C     0.70297   0.37099   0.28044   0.00000  Uiso   1.00
H586   H     0.75316   0.38989   0.35961   0.00000  Uiso   1.00
H587   H     0.66897   0.41615   0.40630   0.00000  Uiso   1.00
H588   H     0.93994   0.41424   0.37253   0.00000  Uiso   1.00
H589   H     0.96154   0.38537   0.29231   0.00000  Uiso   1.00
H590   H     0.71189   0.35781   0.24566   0.00000  Uiso   1.00
C591   C     0.99030   0.45972   0.17337   0.00000  Uiso   1.00
C592   C     0.67188   0.48179   0.13007   0.00000  Uiso   1.00
C593   C     0.68764   0.46075   0.08679   0.00000  Uiso   1.00
C594   C     0.68799   0.41731   0.08640   0.00000  Uiso   1.00
C595   C     0.67306   0.39499   0.12926   0.00000  Uiso   1.00
C596   C     0.99210   0.41611   0.17236   0.00000  Uiso   1.00
H597   H     0.67448   0.51518   0.12956   0.00000  Uiso   1.00
H598   H     0.69991   0.47812   0.05358   0.00000  Uiso   1.00
H599   H     0.70005   0.40101   0.05294   0.00000  Uiso   1.00
H600   H     0.67437   0.36137   0.12892   0.00000  Uiso   1.00
H601   H     0.98543   0.39855   0.20462   0.00000  Uiso   1.00
C602   C     0.67636   0.54028   0.32663   0.00000  Uiso   1.00
C603   C     0.67456   0.58389   0.32764   0.00000  Uiso   1.00
C604   C     0.99360   0.60501   0.37074   0.00000  Uiso   1.00
C605   C     0.97868   0.58269   0.41360   0.00000  Uiso   1.00
C606   C     0.97903   0.53925   0.41321   0.00000  Uiso   1.00
C607   C     0.99478   0.51821   0.36993   0.00000  Uiso   1.00
H608   H     0.68123   0.60145   0.29538   0.00000  Uiso   1.00
H609   H     0.99229   0.63863   0.37107   0.00000  Uiso   1.00
H610   H     0.96662   0.59899   0.44705   0.00000  Uiso   1.00
H611   H     0.96676   0.52188   0.44642   0.00000  Uiso   1.00
H612   H     0.99219   0.48482   0.37044   0.00000  Uiso   1.00
C613   C     0.16746   0.91320   0.24839   0.00000  Uiso   1.00
C614   C     0.16587   0.75346   0.25161   0.00000  Uiso   1.00
C615   C     0.13754   0.87994   0.03642   0.00000  Uiso   1.00
C616   C     0.19580   0.78672   0.46358   0.00000  Uiso   1.00
C617   C     0.10785   0.89440   0.01497   0.00000  Uiso   1.00
C618   C     0.22548   0.77227   0.48503   0.00000  Uiso   1.00
C619   C     0.21252   0.97994   0.22715   0.00000  Uiso   1.00
C620   C     0.12081   0.68673   0.27285   0.00000  Uiso   1.00
C621   C     0.21031   0.68918   0.23003   0.00000  Uiso   1.00
C622   C     0.12303   0.97748   0.26997   0.00000  Uiso   1.00
C623   C     0.16521   0.70924   0.25250   0.00000  Uiso   1.00
C624   C     0.16812   0.95743   0.24750   0.00000  Uiso   1.00
C625   C     0.32575   0.81410   0.21454   0.00000  Uiso   1.00
C626   C     0.00759   0.85256   0.28546   0.00000  Uiso   1.00
C627   C     0.03967   0.81412   0.21510   0.00000  Uiso   1.00
C628   C     0.29366   0.85254   0.28490   0.00000  Uiso   1.00
C629   C     0.13549   0.83389   0.33825   0.00000  Uiso   1.00
C630   C     0.19785   0.83277   0.16175   0.00000  Uiso   1.00
C631   C     0.11586   0.84190   0.38896   0.00000  Uiso   1.00
C632   C     0.21747   0.82476   0.11104   0.00000  Uiso   1.00
C633   C     0.08208   0.89297   0.45075   0.00000  Uiso   1.00
C634   C     0.25125   0.77370   0.04925   0.00000  Uiso   1.00
C635   C     0.08802   0.87761   0.40678   0.00000  Uiso   1.00
C636   C     0.24532   0.78906   0.09322   0.00000  Uiso   1.00
C637   C     0.13785   0.82142   0.41507   0.00000  Uiso   1.00
C638   C     0.19548   0.84525   0.08493   0.00000  Uiso   1.00
C639   C     0.13670   0.83850   0.45731   0.00000  Uiso   1.00
C640   C     0.19664   0.82817   0.04269   0.00000  Uiso   1.00
C641   C     0.10782   0.87474   0.47514   0.00000  Uiso   1.00
C642   C     0.22552   0.79193   0.02485   0.00000  Uiso   1.00
C643   C     0.16625   0.82266   0.48004   0.00000  Uiso   1.00
C644   C     0.16708   0.84401   0.01995   0.00000  Uiso   1.00
H645   H     0.08646   0.92242   0.02840   0.00000  Uiso   1.00
H646   H     0.24688   0.74425   0.47160   0.00000  Uiso   1.00
H647   H     0.17346   0.87194   0.10160   0.00000  Uiso   1.00
H648   H     0.15987   0.79473   0.39840   0.00000  Uiso   1.00
H649   H     0.25844   0.77101   0.11534   0.00000  Uiso   1.00
H650   H     0.07490   0.89565   0.38466   0.00000  Uiso   1.00
H651   H     0.06105   0.92126   0.46354   0.00000  Uiso   1.00
H652   H     0.27229   0.74541   0.03646   0.00000  Uiso   1.00
H653   H     0.13711   0.89853   0.06530   0.00000  Uiso   1.00
H654   H     0.19622   0.76813   0.43470   0.00000  Uiso   1.00
H655   H     0.24383   0.70681   0.21307   0.00000  Uiso   1.00
H656   H     0.08950   0.95986   0.28693   0.00000  Uiso   1.00
H657   H     0.07026   0.79868   0.18721   0.00000  Uiso   1.00
H658   H     0.26307   0.86799   0.31279   0.00000  Uiso   1.00
N659   N     0.04759   0.83334   0.25001   0.00000  Uiso   1.00
N660   N     0.28574   0.83332   0.24999   0.00000  Uiso   1.00
O661   O     0.12846   0.89442   0.25000   0.00000  Uiso   1.00
O662   O     0.20488   0.77225   0.24999   0.00000  Uiso   1.00
O663   O     0.20490   0.89441   0.25000   0.00000  Uiso   1.00
O664   O     0.12843   0.77226   0.25000   0.00000  Uiso   1.00
O665   O     0.10661   0.83334   0.31612   0.00000  Uiso   1.00
O666   O     0.22672   0.83333   0.18387   0.00000  Uiso   1.00
O667   O     0.18305   0.83333   0.31612   0.00000  Uiso   1.00
O668   O     0.15028   0.83334   0.18388   0.00000  Uiso   1.00
Zn669  Zn    0.11562   0.83334   0.25000   0.00000  Uiso   1.00
Zn670  Zn    0.21771   0.83333   0.25000   0.00000  Uiso   1.00
C671   C     0.26142   0.96092   0.20083   0.00000  Uiso   1.00
C672   C     0.29703   0.96234   0.21956   0.00000  Uiso   1.00
C673   C     0.01108   0.94697   0.19320   0.00000  Uiso   1.00
C674   C     0.02333   0.93080   0.14785   0.00000  Uiso   1.00
C675   C     0.32145   0.92963   0.12890   0.00000  Uiso   1.00
C676   C     0.27378   0.94427   0.15546   0.00000  Uiso   1.00
H677   H     0.28811   0.97552   0.25434   0.00000  Uiso   1.00
H678   H     0.03846   0.94797   0.20769   0.00000  Uiso   1.00
H679   H     0.06006   0.91910   0.12747   0.00000  Uiso   1.00
H680   H     0.33103   0.91718   0.09369   0.00000  Uiso   1.00
H681   H     0.24684   0.94344   0.14039   0.00000  Uiso   1.00
C682   C     0.07191   0.70575   0.29917   0.00000  Uiso   1.00
C683   C     0.05956   0.72239   0.34454   0.00000  Uiso   1.00
C684   C     0.01188   0.73704   0.37110   0.00000  Uiso   1.00
C685   C     0.31000   0.73587   0.35215   0.00000  Uiso   1.00
C686   C     0.32225   0.71969   0.30679   0.00000  Uiso   1.00
C687   C     0.03631   0.70432   0.28044   0.00000  Uiso   1.00
H688   H     0.08649   0.72322   0.35961   0.00000  Uiso   1.00
H689   H     0.00230   0.74949   0.40630   0.00000  Uiso   1.00
H690   H     0.27327   0.74757   0.37253   0.00000  Uiso   1.00
H691   H     0.29487   0.71870   0.29231   0.00000  Uiso   1.00
H692   H     0.04523   0.69115   0.24566   0.00000  Uiso   1.00
C693   C     0.32364   0.79305   0.17337   0.00000  Uiso   1.00
C694   C     0.00522   0.81513   0.13007   0.00000  Uiso   1.00
C695   C     0.02097   0.79409   0.08679   0.00000  Uiso   1.00
C696   C     0.02132   0.75065   0.08640   0.00000  Uiso   1.00
C697   C     0.00640   0.72832   0.12926   0.00000  Uiso   1.00
C698   C     0.32544   0.74944   0.17236   0.00000  Uiso   1.00
H699   H     0.00782   0.84851   0.12956   0.00000  Uiso   1.00
H700   H     0.03325   0.81145   0.05358   0.00000  Uiso   1.00
H701   H     0.03338   0.73434   0.05294   0.00000  Uiso   1.00
H702   H     0.00770   0.69470   0.12892   0.00000  Uiso   1.00
H703   H     0.31877   0.73189   0.20462   0.00000  Uiso   1.00
C704   C     0.00970   0.87362   0.32663   0.00000  Uiso   1.00
C705   C     0.00790   0.91723   0.32764   0.00000  Uiso   1.00
C706   C     0.32694   0.93834   0.37074   0.00000  Uiso   1.00
C707   C     0.31201   0.91602   0.41360   0.00000  Uiso   1.00
C708   C     0.31236   0.87258   0.41321   0.00000  Uiso   1.00
C709   C     0.32812   0.85154   0.36993   0.00000  Uiso   1.00
H710   H     0.01456   0.93478   0.29538   0.00000  Uiso   1.00
H711   H     0.32563   0.97197   0.37107   0.00000  Uiso   1.00
H712   H     0.29995   0.93232   0.44705   0.00000  Uiso   1.00
H713   H     0.30009   0.85521   0.44642   0.00000  Uiso   1.00
H714   H     0.32552   0.81815   0.37044   0.00000  Uiso   1.00
C715   C     0.50080   0.91320   0.24839   0.00000  Uiso   1.00
C716   C     0.49920   0.75346   0.25161   0.00000  Uiso   1.00
C717   C     0.47087   0.87994   0.03642   0.00000  Uiso   1.00
C718   C     0.52913   0.78672   0.46358   0.00000  Uiso   1.00
C719   C     0.44118   0.89440   0.01497   0.00000  Uiso   1.00
C720   C     0.55882   0.77227   0.48503   0.00000  Uiso   1.00
C721   C     0.54585   0.97994   0.22715   0.00000  Uiso   1.00
C722   C     0.45415   0.68673   0.27285   0.00000  Uiso   1.00
C723   C     0.54364   0.68918   0.23003   0.00000  Uiso   1.00
C724   C     0.45636   0.97748   0.26997   0.00000  Uiso   1.00
C725   C     0.49855   0.70924   0.25250   0.00000  Uiso   1.00
C726   C     0.50145   0.95743   0.24750   0.00000  Uiso   1.00
C727   C     0.65908   0.81410   0.21454   0.00000  Uiso   1.00
C728   C     0.34092   0.85256   0.28546   0.00000  Uiso   1.00
C729   C     0.37301   0.81412   0.21510   0.00000  Uiso   1.00
C730   C     0.62699   0.85254   0.28490   0.00000  Uiso   1.00
C731   C     0.46882   0.83389   0.33825   0.00000  Uiso   1.00
C732   C     0.53118   0.83277   0.16175   0.00000  Uiso   1.00
C733   C     0.44920   0.84190   0.38896   0.00000  Uiso   1.00
C734   C     0.55080   0.82476   0.11104   0.00000  Uiso   1.00
C735   C     0.41542   0.89297   0.45075   0.00000  Uiso   1.00
C736   C     0.58459   0.77370   0.04925   0.00000  Uiso   1.00
C737   C     0.42135   0.87761   0.40678   0.00000  Uiso   1.00
C738   C     0.57865   0.78906   0.09322   0.00000  Uiso   1.00
C739   C     0.47118   0.82142   0.41507   0.00000  Uiso   1.00
C740   C     0.52882   0.84525   0.08493   0.00000  Uiso   1.00
C741   C     0.47003   0.83850   0.45731   0.00000  Uiso   1.00
C742   C     0.52997   0.82817   0.04269   0.00000  Uiso   1.00
C743   C     0.44115   0.87474   0.47514   0.00000  Uiso   1.00
C744   C     0.55885   0.79193   0.02485   0.00000  Uiso   1.00
C745   C     0.49959   0.82266   0.48004   0.00000  Uiso   1.00
C746   C     0.50041   0.84401   0.01995   0.00000  Uiso   1.00
H747   H     0.41979   0.92242   0.02840   0.00000  Uiso   1.00
H748   H     0.58021   0.74425   0.47160   0.00000  Uiso   1.00
H749   H     0.50680   0.87194   0.10160   0.00000  Uiso   1.00
H750   H     0.49320   0.79473   0.39840   0.00000  Uiso   1.00
H751   H     0.59177   0.77101   0.11534   0.00000  Uiso   1.00
H752   H     0.40823   0.89565   0.38466   0.00000  Uiso   1.00
H753   H     0.39438   0.92126   0.46354   0.00000  Uiso   1.00
H754   H     0.60562   0.74541   0.03646   0.00000  Uiso   1.00
H755   H     0.47045   0.89853   0.06530   0.00000  Uiso   1.00
H756   H     0.52956   0.76813   0.43470   0.00000  Uiso   1.00
H757   H     0.57716   0.70681   0.21307   0.00000  Uiso   1.00
H758   H     0.42284   0.95986   0.28693   0.00000  Uiso   1.00
H759   H     0.40360   0.79868   0.18721   0.00000  Uiso   1.00
H760   H     0.59640   0.86799   0.31279   0.00000  Uiso   1.00
N761   N     0.38093   0.83334   0.25001   0.00000  Uiso   1.00
N762   N     0.61907   0.83332   0.24999   0.00000  Uiso   1.00
O763   O     0.46179   0.89442   0.25000   0.00000  Uiso   1.00
O764   O     0.53821   0.77225   0.24999   0.00000  Uiso   1.00
O765   O     0.53823   0.89441   0.25000   0.00000  Uiso   1.00
O766   O     0.46177   0.77226   0.25000   0.00000  Uiso   1.00
O767   O     0.43994   0.83334   0.31612   0.00000  Uiso   1.00
O768   O     0.56006   0.83333   0.18387   0.00000  Uiso   1.00
O769   O     0.51639   0.83333   0.31612   0.00000  Uiso   1.00
O770   O     0.48361   0.83334   0.18388   0.00000  Uiso   1.00
Zn771  Zn    0.44896   0.83334   0.25000   0.00000  Uiso   1.00
Zn772  Zn    0.55104   0.83333   0.25000   0.00000  Uiso   1.00
C773   C     0.59476   0.96092   0.20083   0.00000  Uiso   1.00
C774   C     0.63036   0.96234   0.21956   0.00000  Uiso   1.00
C775   C     0.34442   0.94697   0.19320   0.00000  Uiso   1.00
C776   C     0.35666   0.93080   0.14785   0.00000  Uiso   1.00
C777   C     0.65479   0.92963   0.12890   0.00000  Uiso   1.00
C778   C     0.60711   0.94427   0.15546   0.00000  Uiso   1.00
H779   H     0.62144   0.97552   0.25434   0.00000  Uiso   1.00
H780   H     0.37180   0.94797   0.20769   0.00000  Uiso   1.00
H781   H     0.39339   0.91910   0.12747   0.00000  Uiso   1.00
H782   H     0.66437   0.91718   0.09369   0.00000  Uiso   1.00
H783   H     0.58017   0.94344   0.14039   0.00000  Uiso   1.00
C784   C     0.40524   0.70575   0.29917   0.00000  Uiso   1.00
C785   C     0.39289   0.72239   0.34454   0.00000  Uiso   1.00
C786   C     0.34521   0.73704   0.37110   0.00000  Uiso   1.00
C787   C     0.64334   0.73587   0.35215   0.00000  Uiso   1.00
C788   C     0.65558   0.71969   0.30679   0.00000  Uiso   1.00
C789   C     0.36964   0.70432   0.28044   0.00000  Uiso   1.00
H790   H     0.41983   0.72322   0.35961   0.00000  Uiso   1.00
H791   H     0.33563   0.74949   0.40630   0.00000  Uiso   1.00
H792   H     0.60661   0.74757   0.37253   0.00000  Uiso   1.00
H793   H     0.62820   0.71870   0.29231   0.00000  Uiso   1.00
H794   H     0.37856   0.69115   0.24566   0.00000  Uiso   1.00
C795   C     0.65697   0.79305   0.17337   0.00000  Uiso   1.00
C796   C     0.33855   0.81513   0.13007   0.00000  Uiso   1.00
C797   C     0.35431   0.79409   0.08679   0.00000  Uiso   1.00
C798   C     0.35466   0.75065   0.08640   0.00000  Uiso   1.00
C799   C     0.33973   0.72832   0.12926   0.00000  Uiso   1.00
C800   C     0.65877   0.74944   0.17236   0.00000  Uiso   1.00
H801   H     0.34115   0.84851   0.12956   0.00000  Uiso   1.00
H802   H     0.36658   0.81145   0.05358   0.00000  Uiso   1.00
H803   H     0.36671   0.73434   0.05294   0.00000  Uiso   1.00
H804   H     0.34104   0.69470   0.12892   0.00000  Uiso   1.00
H805   H     0.65210   0.73189   0.20462   0.00000  Uiso   1.00
C806   C     0.34303   0.87362   0.32663   0.00000  Uiso   1.00
C807   C     0.34123   0.91723   0.32764   0.00000  Uiso   1.00
C808   C     0.66027   0.93834   0.37074   0.00000  Uiso   1.00
C809   C     0.64535   0.91602   0.41360   0.00000  Uiso   1.00
C810   C     0.64569   0.87258   0.41321   0.00000  Uiso   1.00
C811   C     0.66145   0.85154   0.36993   0.00000  Uiso   1.00
H812   H     0.34790   0.93478   0.29538   0.00000  Uiso   1.00
H813   H     0.65896   0.97197   0.37107   0.00000  Uiso   1.00
H814   H     0.63329   0.93232   0.44705   0.00000  Uiso   1.00
H815   H     0.63342   0.85521   0.44642   0.00000  Uiso   1.00
H816   H     0.65885   0.81815   0.37044   0.00000  Uiso   1.00
C817   C     0.83413   0.91320   0.24839   0.00000  Uiso   1.00
C818   C     0.83254   0.75346   0.25161   0.00000  Uiso   1.00
C819   C     0.80421   0.87994   0.03642   0.00000  Uiso   1.00
C820   C     0.86246   0.78672   0.46358   0.00000  Uiso   1.00
C821   C     0.77452   0.89440   0.01497   0.00000  Uiso   1.00
C822   C     0.89215   0.77227   0.48503   0.00000  Uiso   1.00
C823   C     0.87919   0.97994   0.22715   0.00000  Uiso   1.00
C824   C     0.78748   0.68673   0.27285   0.00000  Uiso   1.00
C825   C     0.87697   0.68918   0.23003   0.00000  Uiso   1.00
C826   C     0.78969   0.97748   0.26997   0.00000  Uiso   1.00
C827   C     0.83188   0.70924   0.25250   0.00000  Uiso   1.00
C828   C     0.83479   0.95743   0.24750   0.00000  Uiso   1.00
C829   C     0.99241   0.81410   0.21454   0.00000  Uiso   1.00
C830   C     0.67425   0.85256   0.28546   0.00000  Uiso   1.00
C831   C     0.70634   0.81412   0.21510   0.00000  Uiso   1.00
C832   C     0.96033   0.85254   0.28490   0.00000  Uiso   1.00
C833   C     0.80215   0.83389   0.33825   0.00000  Uiso   1.00
C834   C     0.86451   0.83277   0.16175   0.00000  Uiso   1.00
C835   C     0.78253   0.84190   0.38896   0.00000  Uiso   1.00
C836   C     0.88414   0.82476   0.11104   0.00000  Uiso   1.00
C837   C     0.74875   0.89297   0.45075   0.00000  Uiso   1.00
C838   C     0.91792   0.77370   0.04925   0.00000  Uiso   1.00
C839   C     0.75468   0.87761   0.40678   0.00000  Uiso   1.00
C840   C     0.91198   0.78906   0.09322   0.00000  Uiso   1.00
C841   C     0.80452   0.82142   0.41507   0.00000  Uiso   1.00
C842   C     0.86215   0.84525   0.08493   0.00000  Uiso   1.00
C843   C     0.80336   0.83850   0.45731   0.00000  Uiso   1.00
C844   C     0.86331   0.82817   0.04269   0.00000  Uiso   1.00
C845   C     0.77448   0.87474   0.47514   0.00000  Uiso   1.00
C846   C     0.89218   0.79193   0.02485   0.00000  Uiso   1.00
C847   C     0.83292   0.82266   0.48004   0.00000  Uiso   1.00
C848   C     0.83375   0.84401   0.01995   0.00000  Uiso   1.00
H849   H     0.75312   0.92242   0.02840   0.00000  Uiso   1.00
H850   H     0.91355   0.74425   0.47160   0.00000  Uiso   1.00
H851   H     0.84013   0.87194   0.10160   0.00000  Uiso   1.00
H852   H     0.82653   0.79473   0.39840   0.00000  Uiso   1.00
H853   H     0.92510   0.77101   0.11534   0.00000  Uiso   1.00
H854   H     0.74156   0.89565   0.38466   0.00000  Uiso   1.00
H855   H     0.72772   0.92126   0.46354   0.00000  Uiso   1.00
H856   H     0.93895   0.74541   0.03646   0.00000  Uiso   1.00
H857   H     0.80378   0.89853   0.06530   0.00000  Uiso   1.00
H858   H     0.86289   0.76813   0.43470   0.00000  Uiso   1.00
H859   H     0.91049   0.70681   0.21307   0.00000  Uiso   1.00
H860   H     0.75617   0.95986   0.28693   0.00000  Uiso   1.00
H861   H     0.73693   0.79868   0.18721   0.00000  Uiso   1.00
H862   H     0.92974   0.86799   0.31279   0.00000  Uiso   1.00
N863   N     0.71426   0.83334   0.25001   0.00000  Uiso   1.00
N864   N     0.95241   0.83332   0.24999   0.00000  Uiso   1.00
O865   O     0.79512   0.89442   0.25000   0.00000  Uiso   1.00
O866   O     0.87154   0.77225   0.24999   0.00000  Uiso   1.00
O867   O     0.87157   0.89441   0.25000   0.00000  Uiso   1.00
O868   O     0.79510   0.77226   0.25000   0.00000  Uiso   1.00
O869   O     0.77328   0.83334   0.31612   0.00000  Uiso   1.00
O870   O     0.89339   0.83333   0.18387   0.00000  Uiso   1.00
O871   O     0.84972   0.83333   0.31612   0.00000  Uiso   1.00
O872   O     0.81695   0.83334   0.18388   0.00000  Uiso   1.00
Zn873  Zn    0.78229   0.83334   0.25000   0.00000  Uiso   1.00
Zn874  Zn    0.88438   0.83333   0.25000   0.00000  Uiso   1.00
C875   C     0.92809   0.96092   0.20083   0.00000  Uiso   1.00
C876   C     0.96369   0.96234   0.21956   0.00000  Uiso   1.00
C877   C     0.67775   0.94697   0.19320   0.00000  Uiso   1.00
C878   C     0.69000   0.93080   0.14785   0.00000  Uiso   1.00
C879   C     0.98812   0.92963   0.12890   0.00000  Uiso   1.00
C880   C     0.94044   0.94427   0.15546   0.00000  Uiso   1.00
H881   H     0.95477   0.97552   0.25434   0.00000  Uiso   1.00
H882   H     0.70513   0.94797   0.20769   0.00000  Uiso   1.00
H883   H     0.72673   0.91910   0.12747   0.00000  Uiso   1.00
H884   H     0.99770   0.91718   0.09369   0.00000  Uiso   1.00
H885   H     0.91351   0.94344   0.14039   0.00000  Uiso   1.00
C886   C     0.73858   0.70575   0.29917   0.00000  Uiso   1.00
C887   C     0.72622   0.72239   0.34454   0.00000  Uiso   1.00
C888   C     0.67855   0.73704   0.37110   0.00000  Uiso   1.00
C889   C     0.97667   0.73587   0.35215   0.00000  Uiso   1.00
C890   C     0.98892   0.71969   0.30679   0.00000  Uiso   1.00
C891   C     0.70297   0.70432   0.28044   0.00000  Uiso   1.00
H892   H     0.75316   0.72322   0.35961   0.00000  Uiso   1.00
H893   H     0.66897   0.74949   0.40630   0.00000  Uiso   1.00
H894   H     0.93994   0.74757   0.37253   0.00000  Uiso   1.00
H895   H     0.96154   0.71870   0.29231   0.00000  Uiso   1.00
H896   H     0.71189   0.69115   0.24566   0.00000  Uiso   1.00
C897   C     0.99030   0.79305   0.17337   0.00000  Uiso   1.00
C898   C     0.67188   0.81513   0.13007   0.00000  Uiso   1.00
C899   C     0.68764   0.79409   0.08679   0.00000  Uiso   1.00
C900   C     0.68799   0.75065   0.08640   0.00000  Uiso   1.00
C901   C     0.67306   0.72832   0.12926   0.00000  Uiso   1.00
C902   C     0.99210   0.74944   0.17236   0.00000  Uiso   1.00
H903   H     0.67448   0.84851   0.12956   0.00000  Uiso   1.00
H904   H     0.69991   0.81145   0.05358   0.00000  Uiso   1.00
H905   H     0.70005   0.73434   0.05294   0.00000  Uiso   1.00
H906   H     0.67437   0.69470   0.12892   0.00000  Uiso   1.00
H907   H     0.98543   0.73189   0.20462   0.00000  Uiso   1.00
C908   C     0.67636   0.87362   0.32663   0.00000  Uiso   1.00
C909   C     0.67456   0.91723   0.32764   0.00000  Uiso   1.00
C910   C     0.99360   0.93834   0.37074   0.00000  Uiso   1.00
C911   C     0.97868   0.91602   0.41360   0.00000  Uiso   1.00
C912   C     0.97903   0.87258   0.41321   0.00000  Uiso   1.00
C913   C     0.99478   0.85154   0.36993   0.00000  Uiso   1.00
H914   H     0.68123   0.93478   0.29538   0.00000  Uiso   1.00
H915   H     0.99229   0.97197   0.37107   0.00000  Uiso   1.00
H916   H     0.96662   0.93232   0.44705   0.00000  Uiso   1.00
H917   H     0.96676   0.85521   0.44642   0.00000  Uiso   1.00
H918   H     0.99219   0.81815   0.37044   0.00000  Uiso   1.00
C919   C     0.16746   0.24654   0.74839   0.00000  Uiso   1.00
C920   C     0.16587   0.08680   0.75161   0.00000  Uiso   1.00
C921   C     0.13754   0.21328   0.53642   0.00000  Uiso   1.00
C922   C     0.19580   0.12006   0.96358   0.00000  Uiso   1.00
C923   C     0.10785   0.22773   0.51497   0.00000  Uiso   1.00
C924   C     0.22548   0.10560   0.98503   0.00000  Uiso   1.00
C925   C     0.21252   0.31327   0.72715   0.00000  Uiso   1.00
C926   C     0.12081   0.02006   0.77285   0.00000  Uiso   1.00
C927   C     0.21031   0.02252   0.73003   0.00000  Uiso   1.00
C928   C     0.12303   0.31082   0.76997   0.00000  Uiso   1.00
C929   C     0.16521   0.04257   0.75250   0.00000  Uiso   1.00
C930   C     0.16812   0.29076   0.74750   0.00000  Uiso   1.00
C931   C     0.32575   0.14744   0.71454   0.00000  Uiso   1.00
C932   C     0.00759   0.18590   0.78546   0.00000  Uiso   1.00
C933   C     0.03967   0.14746   0.71510   0.00000  Uiso   1.00
C934   C     0.29366   0.18588   0.78490   0.00000  Uiso   1.00
C935   C     0.13549   0.16723   0.83825   0.00000  Uiso   1.00
C936   C     0.19785   0.16611   0.66175   0.00000  Uiso   1.00
C937   C     0.11586   0.17524   0.88896   0.00000  Uiso   1.00
C938   C     0.21747   0.15810   0.61104   0.00000  Uiso   1.00
C939   C     0.08208   0.22630   0.95075   0.00000  Uiso   1.00
C940   C     0.25125   0.10703   0.54925   0.00000  Uiso   1.00
C941   C     0.08802   0.21094   0.90678   0.00000  Uiso   1.00
C942   C     0.24532   0.12239   0.59322   0.00000  Uiso   1.00
C943   C     0.13785   0.15475   0.91507   0.00000  Uiso   1.00
C944   C     0.19548   0.17858   0.58493   0.00000  Uiso   1.00
C945   C     0.13670   0.17183   0.95731   0.00000  Uiso   1.00
C946   C     0.19664   0.16150   0.54269   0.00000  Uiso   1.00
C947   C     0.10782   0.20808   0.97514   0.00000  Uiso   1.00
C948   C     0.22552   0.12526   0.52485   0.00000  Uiso   1.00
C949   C     0.16625   0.15599   0.98004   0.00000  Uiso   1.00
C950   C     0.16708   0.17734   0.51995   0.00000  Uiso   1.00
H951   H     0.08646   0.25575   0.52840   0.00000  Uiso   1.00
H952   H     0.24688   0.07758   0.97160   0.00000  Uiso   1.00
H953   H     0.17346   0.20527   0.60160   0.00000  Uiso   1.00
H954   H     0.15987   0.12806   0.89840   0.00000  Uiso   1.00
H955   H     0.25844   0.10435   0.61534   0.00000  Uiso   1.00
H956   H     0.07490   0.22899   0.88466   0.00000  Uiso   1.00
H957   H     0.06105   0.25459   0.96354   0.00000  Uiso   1.00
H958   H     0.27229   0.07875   0.53646   0.00000  Uiso   1.00
H959   H     0.13711   0.23187   0.56530   0.00000  Uiso   1.00
H960   H     0.19622   0.10147   0.93470   0.00000  Uiso   1.00
H961   H     0.24383   0.04014   0.71307   0.00000  Uiso   1.00
H962   H     0.08950   0.29319   0.78693   0.00000  Uiso   1.00
H963   H     0.07026   0.13201   0.68721   0.00000  Uiso   1.00
H964   H     0.26307   0.20132   0.81279   0.00000  Uiso   1.00
N965   N     0.04759   0.16668   0.75001   0.00000  Uiso   1.00
N966   N     0.28574   0.16666   0.74999   0.00000  Uiso   1.00
O967   O     0.12846   0.22775   0.75000   0.00000  Uiso   1.00
O968   O     0.20488   0.10558   0.74999   0.00000  Uiso   1.00
O969   O     0.20490   0.22774   0.75000   0.00000  Uiso   1.00
O970   O     0.12843   0.10559   0.75000   0.00000  Uiso   1.00
O971   O     0.10661   0.16667   0.81612   0.00000  Uiso   1.00
O972   O     0.22672   0.16666   0.68387   0.00000  Uiso   1.00
O973   O     0.18305   0.16666   0.81612   0.00000  Uiso   1.00
O974   O     0.15028   0.16667   0.68388   0.00000  Uiso   1.00
Zn975  Zn    0.11562   0.16667   0.75000   0.00000  Uiso   1.00
Zn976  Zn    0.21771   0.16666   0.75000   0.00000  Uiso   1.00
C977   C     0.26142   0.29425   0.70083   0.00000  Uiso   1.00
C978   C     0.29703   0.29568   0.71956   0.00000  Uiso   1.00
C979   C     0.01108   0.28031   0.69320   0.00000  Uiso   1.00
C980   C     0.02333   0.26413   0.64785   0.00000  Uiso   1.00
C981   C     0.32145   0.26296   0.62890   0.00000  Uiso   1.00
C982   C     0.27378   0.27761   0.65546   0.00000  Uiso   1.00
H983   H     0.28811   0.30886   0.75434   0.00000  Uiso   1.00
H984   H     0.03846   0.28130   0.70769   0.00000  Uiso   1.00
H985   H     0.06006   0.25243   0.62747   0.00000  Uiso   1.00
H986   H     0.33103   0.25051   0.59369   0.00000  Uiso   1.00
H987   H     0.24684   0.27678   0.64039   0.00000  Uiso   1.00
C988   C     0.07191   0.03908   0.79917   0.00000  Uiso   1.00
C989   C     0.05956   0.05573   0.84454   0.00000  Uiso   1.00
C990   C     0.01188   0.07037   0.87110   0.00000  Uiso   1.00
C991   C     0.31000   0.06920   0.85215   0.00000  Uiso   1.00
C992   C     0.32225   0.05303   0.80679   0.00000  Uiso   1.00
C993   C     0.03631   0.03766   0.78044   0.00000  Uiso   1.00
H994   H     0.08649   0.05656   0.85961   0.00000  Uiso   1.00
H995   H     0.00230   0.08282   0.90630   0.00000  Uiso   1.00
H996   H     0.27327   0.08090   0.87253   0.00000  Uiso   1.00
H997   H     0.29487   0.05203   0.79231   0.00000  Uiso   1.00
H998   H     0.04523   0.02448   0.74566   0.00000  Uiso   1.00
C999   C     0.32364   0.12638   0.67337   0.00000  Uiso   1.00
C1000  C     0.00522   0.14846   0.63007   0.00000  Uiso   1.00
C1001  C     0.02097   0.12742   0.58679   0.00000  Uiso   1.00
C1002  C     0.02132   0.08398   0.58640   0.00000  Uiso   1.00
C1003  C     0.00640   0.06166   0.62926   0.00000  Uiso   1.00
C1004  C     0.32544   0.08277   0.67236   0.00000  Uiso   1.00
H1005  H     0.00782   0.18185   0.62956   0.00000  Uiso   1.00
H1006  H     0.03325   0.14479   0.55358   0.00000  Uiso   1.00
H1007  H     0.03338   0.06768   0.55294   0.00000  Uiso   1.00
H1008  H     0.00770   0.02803   0.62892   0.00000  Uiso   1.00
H1009  H     0.31877   0.06522   0.70462   0.00000  Uiso   1.00
C1010  C     0.00970   0.20695   0.82663   0.00000  Uiso   1.00
C1011  C     0.00790   0.25056   0.82764   0.00000  Uiso   1.00
C1012  C     0.32694   0.27168   0.87074   0.00000  Uiso   1.00
C1013  C     0.31201   0.24935   0.91360   0.00000  Uiso   1.00
C1014  C     0.31236   0.20591   0.91321   0.00000  Uiso   1.00
C1015  C     0.32812   0.18487   0.86993   0.00000  Uiso   1.00
H1016  H     0.01456   0.26811   0.79538   0.00000  Uiso   1.00
H1017  H     0.32563   0.30530   0.87107   0.00000  Uiso   1.00
H1018  H     0.29995   0.26566   0.94705   0.00000  Uiso   1.00
H1019  H     0.30009   0.18855   0.94642   0.00000  Uiso   1.00
H1020  H     0.32552   0.15149   0.87044   0.00000  Uiso   1.00
C1021  C     0.50080   0.24654   0.74839   0.00000  Uiso   1.00
C1022  C     0.49920   0.08680   0.75161   0.00000  Uiso   1.00
C1023  C     0.47087   0.21328   0.53642   0.00000  Uiso   1.00
C1024  C     0.52913   0.12006   0.96358   0.00000  Uiso   1.00
C1025  C     0.44118   0.22773   0.51497   0.00000  Uiso   1.00
C1026  C     0.55882   0.10560   0.98503   0.00000  Uiso   1.00
C1027  C     0.54585   0.31327   0.72715   0.00000  Uiso   1.00
C1028  C     0.45415   0.02006   0.77285   0.00000  Uiso   1.00
C1029  C     0.54364   0.02252   0.73003   0.00000  Uiso   1.00
C1030  C     0.45636   0.31082   0.76997   0.00000  Uiso   1.00
C1031  C     0.49855   0.04257   0.75250   0.00000  Uiso   1.00
C1032  C     0.50145   0.29076   0.74750   0.00000  Uiso   1.00
C1033  C     0.65908   0.14744   0.71454   0.00000  Uiso   1.00
C1034  C     0.34092   0.18590   0.78546   0.00000  Uiso   1.00
C1035  C     0.37301   0.14746   0.71510   0.00000  Uiso   1.00
C1036  C     0.62699   0.18588   0.78490   0.00000  Uiso   1.00
C1037  C     0.46882   0.16723   0.83825   0.00000  Uiso   1.00
C1038  C     0.53118   0.16611   0.66175   0.00000  Uiso   1.00
C1039  C     0.44920   0.17524   0.88896   0.00000  Uiso   1.00
C1040  C     0.55080   0.15810   0.61104   0.00000  Uiso   1.00
C1041  C     0.41542   0.22630   0.95075   0.00000  Uiso   1.00
C1042  C     0.58459   0.10703   0.54925   0.00000  Uiso   1.00
C1043  C     0.42135   0.21094   0.90678   0.00000  Uiso   1.00
C1044  C     0.57865   0.12239   0.59322   0.00000  Uiso   1.00
C1045  C     0.47118   0.15475   0.91507   0.00000  Uiso   1.00
C1046  C     0.52882   0.17858   0.58493   0.00000  Uiso   1.00
C1047  C     0.47003   0.17183   0.95731   0.00000  Uiso   1.00
C1048  C     0.52997   0.16150   0.54269   0.00000  Uiso   1.00
C1049  C     0.44115   0.20808   0.97514   0.00000  Uiso   1.00
C1050  C     0.55885   0.12526   0.52485   0.00000  Uiso   1.00
C1051  C     0.49959   0.15599   0.98004   0.00000  Uiso   1.00
C1052  C     0.50041   0.17734   0.51995   0.00000  Uiso   1.00
H1053  H     0.41979   0.25575   0.52840   0.00000  Uiso   1.00
H1054  H     0.58021   0.07758   0.97160   0.00000  Uiso   1.00
H1055  H     0.50680   0.20527   0.60160   0.00000  Uiso   1.00
H1056  H     0.49320   0.12806   0.89840   0.00000  Uiso   1.00
H1057  H     0.59177   0.10435   0.61534   0.00000  Uiso   1.00
H1058  H     0.40823   0.22899   0.88466   0.00000  Uiso   1.00
H1059  H     0.39438   0.25459   0.96354   0.00000  Uiso   1.00
H1060  H     0.60562   0.07875   0.53646   0.00000  Uiso   1.00
H1061  H     0.47045   0.23187   0.56530   0.00000  Uiso   1.00
H1062  H     0.52956   0.10147   0.93470   0.00000  Uiso   1.00
H1063  H     0.57716   0.04014   0.71307   0.00000  Uiso   1.00
H1064  H     0.42284   0.29319   0.78693   0.00000  Uiso   1.00
H1065  H     0.40360   0.13201   0.68721   0.00000  Uiso   1.00
H1066  H     0.59640   0.20132   0.81279   0.00000  Uiso   1.00
N1067  N     0.38093   0.16668   0.75001   0.00000  Uiso   1.00
N1068  N     0.61907   0.16666   0.74999   0.00000  Uiso   1.00
O1069  O     0.46179   0.22775   0.75000   0.00000  Uiso   1.00
O1070  O     0.53821   0.10558   0.74999   0.00000  Uiso   1.00
O1071  O     0.53823   0.22774   0.75000   0.00000  Uiso   1.00
O1072  O     0.46177   0.10559   0.75000   0.00000  Uiso   1.00
O1073  O     0.43994   0.16667   0.81612   0.00000  Uiso   1.00
O1074  O     0.56006   0.16666   0.68387   0.00000  Uiso   1.00
O1075  O     0.51639   0.16666   0.81612   0.00000  Uiso   1.00
O1076  O     0.48361   0.16667   0.68388   0.00000  Uiso   1.00
Zn1077 Zn    0.44896   0.16667   0.75000   0.00000  Uiso   1.00
Zn1078 Zn    0.55104   0.16666   0.75000   0.00000  Uiso   1.00
C1079  C     0.59476   0.29425   0.70083   0.00000  Uiso   1.00
C1080  C     0.63036   0.29568   0.71956   0.00000  Uiso   1.00
C1081  C     0.34442   0.28031   0.69320   0.00000  Uiso   1.00
C1082  C     0.35666   0.26413   0.64785   0.00000  Uiso   1.00
C1083  C     0.65479   0.26296   0.62890   0.00000  Uiso   1.00
C1084  C     0.60711   0.27761   0.65546   0.00000  Uiso   1.00
H1085  H     0.62144   0.30886   0.75434   0.00000  Uiso   1.00
H1086  H     0.37180   0.28130   0.70769   0.00000  Uiso   1.00
H1087  H     0.39339   0.25243   0.62747   0.00000  Uiso   1.00
H1088  H     0.66437   0.25051   0.59369   0.00000  Uiso   1.00
H1089  H     0.58017   0.27678   0.64039   0.00000  Uiso   1.00
C1090  C     0.40524   0.03908   0.79917   0.00000  Uiso   1.00
C1091  C     0.39289   0.05573   0.84454   0.00000  Uiso   1.00
C1092  C     0.34521   0.07037   0.87110   0.00000  Uiso   1.00
C1093  C     0.64334   0.06920   0.85215   0.00000  Uiso   1.00
C1094  C     0.65558   0.05303   0.80679   0.00000  Uiso   1.00
C1095  C     0.36964   0.03766   0.78044   0.00000  Uiso   1.00
H1096  H     0.41983   0.05656   0.85961   0.00000  Uiso   1.00
H1097  H     0.33563   0.08282   0.90630   0.00000  Uiso   1.00
H1098  H     0.60661   0.08090   0.87253   0.00000  Uiso   1.00
H1099  H     0.62820   0.05203   0.79231   0.00000  Uiso   1.00
H1100  H     0.37856   0.02448   0.74566   0.00000  Uiso   1.00
C1101  C     0.65697   0.12638   0.67337   0.00000  Uiso   1.00
C1102  C     0.33855   0.14846   0.63007   0.00000  Uiso   1.00
C1103  C     0.35431   0.12742   0.58679   0.00000  Uiso   1.00
C1104  C     0.35466   0.08398   0.58640   0.00000  Uiso   1.00
C1105  C     0.33973   0.06166   0.62926   0.00000  Uiso   1.00
C1106  C     0.65877   0.08277   0.67236   0.00000  Uiso   1.00
H1107  H     0.34115   0.18185   0.62956   0.00000  Uiso   1.00
H1108  H     0.36658   0.14479   0.55358   0.00000  Uiso   1.00
H1109  H     0.36671   0.06768   0.55294   0.00000  Uiso   1.00
H1110  H     0.34104   0.02803   0.62892   0.00000  Uiso   1.00
H1111  H     0.65210   0.06522   0.70462   0.00000  Uiso   1.00
C1112  C     0.34303   0.20695   0.82663   0.00000  Uiso   1.00
C1113  C     0.34123   0.25056   0.82764   0.00000  Uiso   1.00
C1114  C     0.66027   0.27168   0.87074   0.00000  Uiso   1.00
C1115  C     0.64535   0.24935   0.91360   0.00000  Uiso   1.00
C1116  C     0.64569   0.20591   0.91321   0.00000  Uiso   1.00
C1117  C     0.66145   0.18487   0.86993   0.00000  Uiso   1.00
H1118  H     0.34790   0.26811   0.79538   0.00000  Uiso   1.00
H1119  H     0.65896   0.30530   0.87107   0.00000  Uiso   1.00
H1120  H     0.63329   0.26566   0.94705   0.00000  Uiso   1.00
H1121  H     0.63342   0.18855   0.94642   0.00000  Uiso   1.00
H1122  H     0.65885   0.15149   0.87044   0.00000  Uiso   1.00
C1123  C     0.83413   0.24654   0.74839   0.00000  Uiso   1.00
C1124  C     0.83254   0.08680   0.75161   0.00000  Uiso   1.00
C1125  C     0.80421   0.21328   0.53642   0.00000  Uiso   1.00
C1126  C     0.86246   0.12006   0.96358   0.00000  Uiso   1.00
C1127  C     0.77452   0.22773   0.51497   0.00000  Uiso   1.00
C1128  C     0.89215   0.10560   0.98503   0.00000  Uiso   1.00
C1129  C     0.87919   0.31327   0.72715   0.00000  Uiso   1.00
C1130  C     0.78748   0.02006   0.77285   0.00000  Uiso   1.00
C1131  C     0.87697   0.02252   0.73003   0.00000  Uiso   1.00
C1132  C     0.78969   0.31082   0.76997   0.00000  Uiso   1.00
C1133  C     0.83188   0.04257   0.75250   0.00000  Uiso   1.00
C1134  C     0.83479   0.29076   0.74750   0.00000  Uiso   1.00
C1135  C     0.99241   0.14744   0.71454   0.00000  Uiso   1.00
C1136  C     0.67425   0.18590   0.78546   0.00000  Uiso   1.00
C1137  C     0.70634   0.14746   0.71510   0.00000  Uiso   1.00
C1138  C     0.96033   0.18588   0.78490   0.00000  Uiso   1.00
C1139  C     0.80215   0.16723   0.83825   0.00000  Uiso   1.00
C1140  C     0.86451   0.16611   0.66175   0.00000  Uiso   1.00
C1141  C     0.78253   0.17524   0.88896   0.00000  Uiso   1.00
C1142  C     0.88414   0.15810   0.61104   0.00000  Uiso   1.00
C1143  C     0.74875   0.22630   0.95075   0.00000  Uiso   1.00
C1144  C     0.91792   0.10703   0.54925   0.00000  Uiso   1.00
C1145  C     0.75468   0.21094   0.90678   0.00000  Uiso   1.00
C1146  C     0.91198   0.12239   0.59322   0.00000  Uiso   1.00
C1147  C     0.80452   0.15475   0.91507   0.00000  Uiso   1.00
C1148  C     0.86215   0.17858   0.58493   0.00000  Uiso   1.00
C1149  C     0.80336   0.17183   0.95731   0.00000  Uiso   1.00
C1150  C     0.86331   0.16150   0.54269   0.00000  Uiso   1.00
C1151  C     0.77448   0.20808   0.97514   0.00000  Uiso   1.00
C1152  C     0.89218   0.12526   0.52485   0.00000  Uiso   1.00
C1153  C     0.83292   0.15599   0.98004   0.00000  Uiso   1.00
C1154  C     0.83375   0.17734   0.51995   0.00000  Uiso   1.00
H1155  H     0.75312   0.25575   0.52840   0.00000  Uiso   1.00
H1156  H     0.91355   0.07758   0.97160   0.00000  Uiso   1.00
H1157  H     0.84013   0.20527   0.60160   0.00000  Uiso   1.00
H1158  H     0.82653   0.12806   0.89840   0.00000  Uiso   1.00
H1159  H     0.92510   0.10435   0.61534   0.00000  Uiso   1.00
H1160  H     0.74156   0.22899   0.88466   0.00000  Uiso   1.00
H1161  H     0.72772   0.25459   0.96354   0.00000  Uiso   1.00
H1162  H     0.93895   0.07875   0.53646   0.00000  Uiso   1.00
H1163  H     0.80378   0.23187   0.56530   0.00000  Uiso   1.00
H1164  H     0.86289   0.10147   0.93470   0.00000  Uiso   1.00
H1165  H     0.91049   0.04014   0.71307   0.00000  Uiso   1.00
H1166  H     0.75617   0.29319   0.78693   0.00000  Uiso   1.00
H1167  H     0.73693   0.13201   0.68721   0.00000  Uiso   1.00
H1168  H     0.92974   0.20132   0.81279   0.00000  Uiso   1.00
N1169  N     0.71426   0.16668   0.75001   0.00000  Uiso   1.00
N1170  N     0.95241   0.16666   0.74999   0.00000  Uiso   1.00
O1171  O     0.79512   0.22775   0.75000   0.00000  Uiso   1.00
O1172  O     0.87154   0.10558   0.74999   0.00000  Uiso   1.00
O1173  O     0.87157   0.22774   0.75000   0.00000  Uiso   1.00
O1174  O     0.79510   0.10559   0.75000   0.00000  Uiso   1.00
O1175  O     0.77328   0.16667   0.81612   0.00000  Uiso   1.00
O1176  O     0.89339   0.16666   0.68387   0.00000  Uiso   1.00
O1177  O     0.84972   0.16666   0.81612   0.00000  Uiso   1.00
O1178  O     0.81695   0.16667   0.68388   0.00000  Uiso   1.00
Zn1179 Zn    0.78229   0.16667   0.75000   0.00000  Uiso   1.00
Zn1180 Zn    0.88438   0.16666   0.75000   0.00000  Uiso   1.00
C1181  C     0.92809   0.29425   0.70083   0.00000  Uiso   1.00
C1182  C     0.96369   0.29568   0.71956   0.00000  Uiso   1.00
C1183  C     0.67775   0.28031   0.69320   0.00000  Uiso   1.00
C1184  C     0.69000   0.26413   0.64785   0.00000  Uiso   1.00
C1185  C     0.98812   0.26296   0.62890   0.00000  Uiso   1.00
C1186  C     0.94044   0.27761   0.65546   0.00000  Uiso   1.00
H1187  H     0.95477   0.30886   0.75434   0.00000  Uiso   1.00
H1188  H     0.70513   0.28130   0.70769   0.00000  Uiso   1.00
H1189  H     0.72673   0.25243   0.62747   0.00000  Uiso   1.00
H1190  H     0.99770   0.25051   0.59369   0.00000  Uiso   1.00
H1191  H     0.91351   0.27678   0.64039   0.00000  Uiso   1.00
C1192  C     0.73858   0.03908   0.79917   0.00000  Uiso   1.00
C1193  C     0.72622   0.05573   0.84454   0.00000  Uiso   1.00
C1194  C     0.67855   0.07037   0.87110   0.00000  Uiso   1.00
C1195  C     0.97667   0.06920   0.85215   0.00000  Uiso   1.00
C1196  C     0.98892   0.05303   0.80679   0.00000  Uiso   1.00
C1197  C     0.70297   0.03766   0.78044   0.00000  Uiso   1.00
H1198  H     0.75316   0.05656   0.85961   0.00000  Uiso   1.00
H1199  H     0.66897   0.08282   0.90630   0.00000  Uiso   1.00
H1200  H     0.93994   0.08090   0.87253   0.00000  Uiso   1.00
H1201  H     0.96154   0.05203   0.79231   0.00000  Uiso   1.00
H1202  H     0.71189   0.02448   0.74566   0.00000  Uiso   1.00
C1203  C     0.99030   0.12638   0.67337   0.00000  Uiso   1.00
C1204  C     0.67188   0.14846   0.63007   0.00000  Uiso   1.00
C1205  C     0.68764   0.12742   0.58679   0.00000  Uiso   1.00
C1206  C     0.68799   0.08398   0.58640   0.00000  Uiso   1.00
C1207  C     0.67306   0.06166   0.62926   0.00000  Uiso   1.00
C1208  C     0.99210   0.08277   0.67236   0.00000  Uiso   1.00
H1209  H     0.67448   0.18185   0.62956   0.00000  Uiso   1.00
H1210  H     0.69991   0.14479   0.55358   0.00000  Uiso   1.00
H1211  H     0.70005   0.06768   0.55294   0.00000  Uiso   1.00
H1212  H     0.67437   0.02803   0.62892   0.00000  Uiso   1.00
H1213  H     0.98543   0.06522   0.70462   0.00000  Uiso   1.00
C1214  C     0.67636   0.20695   0.82663   0.00000  Uiso   1.00
C1215  C     0.67456   0.25056   0.82764   0.00000  Uiso   1.00
C1216  C     0.99360   0.27168   0.87074   0.00000  Uiso   1.00
C1217  C     0.97868   0.24935   0.91360   0.00000  Uiso   1.00
C1218  C     0.97903   0.20591   0.91321   0.00000  Uiso   1.00
C1219  C     0.99478   0.18487   0.86993   0.00000  Uiso   1.00
H1220  H     0.68123   0.26811   0.79538   0.00000  Uiso   1.00
H1221  H     0.99229   0.30530   0.87107   0.00000  Uiso   1.00
H1222  H     0.96662   0.26566   0.94705   0.00000  Uiso   1.00
H1223  H     0.96676   0.18855   0.94642   0.00000  Uiso   1.00
H1224  H     0.99219   0.15149   0.87044   0.00000  Uiso   1.00
C1225  C     0.16746   0.57987   0.74839   0.00000  Uiso   1.00
C1226  C     0.16587   0.42013   0.75161   0.00000  Uiso   1.00
C1227  C     0.13754   0.54661   0.53642   0.00000  Uiso   1.00
C1228  C     0.19580   0.45339   0.96358   0.00000  Uiso   1.00
C1229  C     0.10785   0.56106   0.51497   0.00000  Uiso   1.00
C1230  C     0.22548   0.43894   0.98503   0.00000  Uiso   1.00
C1231  C     0.21252   0.64660   0.72715   0.00000  Uiso   1.00
C1232  C     0.12081   0.35340   0.77285   0.00000  Uiso   1.00
C1233  C     0.21031   0.35585   0.73003   0.00000  Uiso   1.00
C1234  C     0.12303   0.64415   0.76997   0.00000  Uiso   1.00
C1235  C     0.16521   0.37590   0.75250   0.00000  Uiso   1.00
C1236  C     0.16812   0.62410   0.74750   0.00000  Uiso   1.00
C1237  C     0.32575   0.48077   0.71454   0.00000  Uiso   1.00
C1238  C     0.00759   0.51923   0.78546   0.00000  Uiso   1.00
C1239  C     0.03967   0.48079   0.71510   0.00000  Uiso   1.00
C1240  C     0.29366   0.51921   0.78490   0.00000  Uiso   1.00
C1241  C     0.13549   0.50056   0.83825   0.00000  Uiso   1.00
C1242  C     0.19785   0.49944   0.66175   0.00000  Uiso   1.00
C1243  C     0.11586   0.50857   0.88896   0.00000  Uiso   1.00
C1244  C     0.21747   0.49143   0.61104   0.00000  Uiso   1.00
C1245  C     0.08208   0.55964   0.95075   0.00000  Uiso   1.00
C1246  C     0.25125   0.44037   0.54925   0.00000  Uiso   1.00
C1247  C     0.08802   0.54427   0.90678   0.00000  Uiso   1.00
C1248  C     0.24532   0.45573   0.59322   0.00000  Uiso   1.00
C1249  C     0.13785   0.48809   0.91507   0.00000  Uiso   1.00
C1250  C     0.19548   0.51191   0.58493   0.00000  Uiso   1.00
C1251  C     0.13670   0.50517   0.95731   0.00000  Uiso   1.00
C1252  C     0.19664   0.49484   0.54269   0.00000  Uiso   1.00
C1253  C     0.10782   0.54141   0.97514   0.00000  Uiso   1.00
C1254  C     0.22552   0.45859   0.52485   0.00000  Uiso   1.00
C1255  C     0.16625   0.48933   0.98004   0.00000  Uiso   1.00
C1256  C     0.16708   0.51068   0.51995   0.00000  Uiso   1.00
H1257  H     0.08646   0.58909   0.52840   0.00000  Uiso   1.00
H1258  H     0.24688   0.41092   0.97160   0.00000  Uiso   1.00
H1259  H     0.17346   0.53860   0.60160   0.00000  Uiso   1.00
H1260  H     0.15987   0.46140   0.89840   0.00000  Uiso   1.00
H1261  H     0.25844   0.43768   0.61534   0.00000  Uiso   1.00
H1262  H     0.07490   0.56232   0.88466   0.00000  Uiso   1.00
H1263  H     0.06105   0.58792   0.96354   0.00000  Uiso   1.00
H1264  H     0.27229   0.41208   0.53646   0.00000  Uiso   1.00
H1265  H     0.13711   0.56520   0.56530   0.00000  Uiso   1.00
H1266  H     0.19622   0.43480   0.93470   0.00000  Uiso   1.00
H1267  H     0.24383   0.37347   0.71307   0.00000  Uiso   1.00
H1268  H     0.08950   0.62653   0.78693   0.00000  Uiso   1.00
H1269  H     0.07026   0.46534   0.68721   0.00000  Uiso   1.00
H1270  H     0.26307   0.53466   0.81279   0.00000  Uiso   1.00
N1271  N     0.04759   0.50001   0.75001   0.00000  Uiso   1.00
N1272  N     0.28574   0.49999   0.74999   0.00000  Uiso   1.00
O1273  O     0.12846   0.56108   0.75000   0.00000  Uiso   1.00
O1274  O     0.20488   0.43892   0.74999   0.00000  Uiso   1.00
O1275  O     0.20490   0.56107   0.75000   0.00000  Uiso   1.00
O1276  O     0.12843   0.43893   0.75000   0.00000  Uiso   1.00
O1277  O     0.10661   0.50001   0.81612   0.00000  Uiso   1.00
O1278  O     0.22672   0.49999   0.68387   0.00000  Uiso   1.00
O1279  O     0.18305   0.50000   0.81612   0.00000  Uiso   1.00
O1280  O     0.15028   0.50000   0.68388   0.00000  Uiso   1.00
Zn1281 Zn    0.11562   0.50001   0.75000   0.00000  Uiso   1.00
Zn1282 Zn    0.21771   0.49999   0.75000   0.00000  Uiso   1.00
C1283  C     0.26142   0.62758   0.70083   0.00000  Uiso   1.00
C1284  C     0.29703   0.62901   0.71956   0.00000  Uiso   1.00
C1285  C     0.01108   0.61364   0.69320   0.00000  Uiso   1.00
C1286  C     0.02333   0.59747   0.64785   0.00000  Uiso   1.00
C1287  C     0.32145   0.59629   0.62890   0.00000  Uiso   1.00
C1288  C     0.27378   0.61094   0.65546   0.00000  Uiso   1.00
H1289  H     0.28811   0.64219   0.75434   0.00000  Uiso   1.00
H1290  H     0.03846   0.61464   0.70769   0.00000  Uiso   1.00
H1291  H     0.06006   0.58576   0.62747   0.00000  Uiso   1.00
H1292  H     0.33103   0.58385   0.59369   0.00000  Uiso   1.00
H1293  H     0.24684   0.61011   0.64039   0.00000  Uiso   1.00
C1294  C     0.07191   0.37242   0.79917   0.00000  Uiso   1.00
C1295  C     0.05956   0.38906   0.84454   0.00000  Uiso   1.00
C1296  C     0.01188   0.40371   0.87110   0.00000  Uiso   1.00
C1297  C     0.31000   0.40253   0.85215   0.00000  Uiso   1.00
C1298  C     0.32225   0.38636   0.80679   0.00000  Uiso   1.00
C1299  C     0.03631   0.37099   0.78044   0.00000  Uiso   1.00
H1300  H     0.08649   0.38989   0.85961   0.00000  Uiso   1.00
H1301  H     0.00230   0.41615   0.90630   0.00000  Uiso   1.00
H1302  H     0.27327   0.41424   0.87253   0.00000  Uiso   1.00
H1303  H     0.29487   0.38537   0.79231   0.00000  Uiso   1.00
H1304  H     0.04523   0.35781   0.74566   0.00000  Uiso   1.00
C1305  C     0.32364   0.45972   0.67337   0.00000  Uiso   1.00
C1306  C     0.00522   0.48179   0.63007   0.00000  Uiso   1.00
C1307  C     0.02097   0.46075   0.58679   0.00000  Uiso   1.00
C1308  C     0.02132   0.41731   0.58640   0.00000  Uiso   1.00
C1309  C     0.00640   0.39499   0.62926   0.00000  Uiso   1.00
C1310  C     0.32544   0.41611   0.67236   0.00000  Uiso   1.00
H1311  H     0.00782   0.51518   0.62956   0.00000  Uiso   1.00
H1312  H     0.03325   0.47812   0.55358   0.00000  Uiso   1.00
H1313  H     0.03338   0.40101   0.55294   0.00000  Uiso   1.00
H1314  H     0.00770   0.36137   0.62892   0.00000  Uiso   1.00
H1315  H     0.31877   0.39855   0.70462   0.00000  Uiso   1.00
C1316  C     0.00970   0.54028   0.82663   0.00000  Uiso   1.00
C1317  C     0.00790   0.58389   0.82764   0.00000  Uiso   1.00
C1318  C     0.32694   0.60501   0.87074   0.00000  Uiso   1.00
C1319  C     0.31201   0.58269   0.91360   0.00000  Uiso   1.00
C1320  C     0.31236   0.53925   0.91321   0.00000  Uiso   1.00
C1321  C     0.32812   0.51821   0.86993   0.00000  Uiso   1.00
H1322  H     0.01456   0.60145   0.79538   0.00000  Uiso   1.00
H1323  H     0.32563   0.63863   0.87107   0.00000  Uiso   1.00
H1324  H     0.29995   0.59899   0.94705   0.00000  Uiso   1.00
H1325  H     0.30009   0.52188   0.94642   0.00000  Uiso   1.00
H1326  H     0.32552   0.48482   0.87044   0.00000  Uiso   1.00
C1327  C     0.50080   0.57987   0.74839   0.00000  Uiso   1.00
C1328  C     0.49920   0.42013   0.75161   0.00000  Uiso   1.00
C1329  C     0.47087   0.54661   0.53642   0.00000  Uiso   1.00
C1330  C     0.52913   0.45339   0.96358   0.00000  Uiso   1.00
C1331  C     0.44118   0.56106   0.51497   0.00000  Uiso   1.00
C1332  C     0.55882   0.43894   0.98503   0.00000  Uiso   1.00
C1333  C     0.54585   0.64660   0.72715   0.00000  Uiso   1.00
C1334  C     0.45415   0.35340   0.77285   0.00000  Uiso   1.00
C1335  C     0.54364   0.35585   0.73003   0.00000  Uiso   1.00
C1336  C     0.45636   0.64415   0.76997   0.00000  Uiso   1.00
C1337  C     0.49855   0.37590   0.75250   0.00000  Uiso   1.00
C1338  C     0.50145   0.62410   0.74750   0.00000  Uiso   1.00
C1339  C     0.65908   0.48077   0.71454   0.00000  Uiso   1.00
C1340  C     0.34092   0.51923   0.78546   0.00000  Uiso   1.00
C1341  C     0.37301   0.48079   0.71510   0.00000  Uiso   1.00
C1342  C     0.62699   0.51921   0.78490   0.00000  Uiso   1.00
C1343  C     0.46882   0.50056   0.83825   0.00000  Uiso   1.00
C1344  C     0.53118   0.49944   0.66175   0.00000  Uiso   1.00
C1345  C     0.44920   0.50857   0.88896   0.00000  Uiso   1.00
C1346  C     0.55080   0.49143   0.61104   0.00000  Uiso   1.00
C1347  C     0.41542   0.55964   0.95075   0.00000  Uiso   1.00
C1348  C     0.58459   0.44037   0.54925   0.00000  Uiso   1.00
C1349  C     0.42135   0.54427   0.90678   0.00000  Uiso   1.00
C1350  C     0.57865   0.45573   0.59322   0.00000  Uiso   1.00
C1351  C     0.47118   0.48809   0.91507   0.00000  Uiso   1.00
C1352  C     0.52882   0.51191   0.58493   0.00000  Uiso   1.00
C1353  C     0.47003   0.50517   0.95731   0.00000  Uiso   1.00
C1354  C     0.52997   0.49484   0.54269   0.00000  Uiso   1.00
C1355  C     0.44115   0.54141   0.97514   0.00000  Uiso   1.00
C1356  C     0.55885   0.45859   0.52485   0.00000  Uiso   1.00
C1357  C     0.49959   0.48933   0.98004   0.00000  Uiso   1.00
C1358  C     0.50041   0.51068   0.51995   0.00000  Uiso   1.00
H1359  H     0.41979   0.58909   0.52840   0.00000  Uiso   1.00
H1360  H     0.58021   0.41092   0.97160   0.00000  Uiso   1.00
H1361  H     0.50680   0.53860   0.60160   0.00000  Uiso   1.00
H1362  H     0.49320   0.46140   0.89840   0.00000  Uiso   1.00
H1363  H     0.59177   0.43768   0.61534   0.00000  Uiso   1.00
H1364  H     0.40823   0.56232   0.88466   0.00000  Uiso   1.00
H1365  H     0.39438   0.58792   0.96354   0.00000  Uiso   1.00
H1366  H     0.60562   0.41208   0.53646   0.00000  Uiso   1.00
H1367  H     0.47045   0.56520   0.56530   0.00000  Uiso   1.00
H1368  H     0.52956   0.43480   0.93470   0.00000  Uiso   1.00
H1369  H     0.57716   0.37347   0.71307   0.00000  Uiso   1.00
H1370  H     0.42284   0.62653   0.78693   0.00000  Uiso   1.00
H1371  H     0.40360   0.46534   0.68721   0.00000  Uiso   1.00
H1372  H     0.59640   0.53466   0.81279   0.00000  Uiso   1.00
N1373  N     0.38093   0.50001   0.75001   0.00000  Uiso   1.00
N1374  N     0.61907   0.49999   0.74999   0.00000  Uiso   1.00
O1375  O     0.46179   0.56108   0.75000   0.00000  Uiso   1.00
O1376  O     0.53821   0.43892   0.74999   0.00000  Uiso   1.00
O1377  O     0.53823   0.56107   0.75000   0.00000  Uiso   1.00
O1378  O     0.46177   0.43893   0.75000   0.00000  Uiso   1.00
O1379  O     0.43994   0.50001   0.81612   0.00000  Uiso   1.00
O1380  O     0.56006   0.49999   0.68387   0.00000  Uiso   1.00
O1381  O     0.51639   0.50000   0.81612   0.00000  Uiso   1.00
O1382  O     0.48361   0.50000   0.68388   0.00000  Uiso   1.00
Zn1383 Zn    0.44896   0.50001   0.75000   0.00000  Uiso   1.00
Zn1384 Zn    0.55104   0.49999   0.75000   0.00000  Uiso   1.00
C1385  C     0.59476   0.62758   0.70083   0.00000  Uiso   1.00
C1386  C     0.63036   0.62901   0.71956   0.00000  Uiso   1.00
C1387  C     0.34442   0.61364   0.69320   0.00000  Uiso   1.00
C1388  C     0.35666   0.59747   0.64785   0.00000  Uiso   1.00
C1389  C     0.65479   0.59629   0.62890   0.00000  Uiso   1.00
C1390  C     0.60711   0.61094   0.65546   0.00000  Uiso   1.00
H1391  H     0.62144   0.64219   0.75434   0.00000  Uiso   1.00
H1392  H     0.37180   0.61464   0.70769   0.00000  Uiso   1.00
H1393  H     0.39339   0.58576   0.62747   0.00000  Uiso   1.00
H1394  H     0.66437   0.58385   0.59369   0.00000  Uiso   1.00
H1395  H     0.58017   0.61011   0.64039   0.00000  Uiso   1.00
C1396  C     0.40524   0.37242   0.79917   0.00000  Uiso   1.00
C1397  C     0.39289   0.38906   0.84454   0.00000  Uiso   1.00
C1398  C     0.34521   0.40371   0.87110   0.00000  Uiso   1.00
C1399  C     0.64334   0.40253   0.85215   0.00000  Uiso   1.00
C1400  C     0.65558   0.38636   0.80679   0.00000  Uiso   1.00
C1401  C     0.36964   0.37099   0.78044   0.00000  Uiso   1.00
H1402  H     0.41983   0.38989   0.85961   0.00000  Uiso   1.00
H1403  H     0.33563   0.41615   0.90630   0.00000  Uiso   1.00
H1404  H     0.60661   0.41424   0.87253   0.00000  Uiso   1.00
H1405  H     0.62820   0.38537   0.79231   0.00000  Uiso   1.00
H1406  H     0.37856   0.35781   0.74566   0.00000  Uiso   1.00
C1407  C     0.65697   0.45972   0.67337   0.00000  Uiso   1.00
C1408  C     0.33855   0.48179   0.63007   0.00000  Uiso   1.00
C1409  C     0.35431   0.46075   0.58679   0.00000  Uiso   1.00
C1410  C     0.35466   0.41731   0.58640   0.00000  Uiso   1.00
C1411  C     0.33973   0.39499   0.62926   0.00000  Uiso   1.00
C1412  C     0.65877   0.41611   0.67236   0.00000  Uiso   1.00
H1413  H     0.34115   0.51518   0.62956   0.00000  Uiso   1.00
H1414  H     0.36658   0.47812   0.55358   0.00000  Uiso   1.00
H1415  H     0.36671   0.40101   0.55294   0.00000  Uiso   1.00
H1416  H     0.34104   0.36137   0.62892   0.00000  Uiso   1.00
H1417  H     0.65210   0.39855   0.70462   0.00000  Uiso   1.00
C1418  C     0.34303   0.54028   0.82663   0.00000  Uiso   1.00
C1419  C     0.34123   0.58389   0.82764   0.00000  Uiso   1.00
C1420  C     0.66027   0.60501   0.87074   0.00000  Uiso   1.00
C1421  C     0.64535   0.58269   0.91360   0.00000  Uiso   1.00
C1422  C     0.64569   0.53925   0.91321   0.00000  Uiso   1.00
C1423  C     0.66145   0.51821   0.86993   0.00000  Uiso   1.00
H1424  H     0.34790   0.60145   0.79538   0.00000  Uiso   1.00
H1425  H     0.65896   0.63863   0.87107   0.00000  Uiso   1.00
H1426  H     0.63329   0.59899   0.94705   0.00000  Uiso   1.00
H1427  H     0.63342   0.52188   0.94642   0.00000  Uiso   1.00
H1428  H     0.65885   0.48482   0.87044   0.00000  Uiso   1.00
C1429  C     0.83413   0.57987   0.74839   0.00000  Uiso   1.00
C1430  C     0.83254   0.42013   0.75161   0.00000  Uiso   1.00
C1431  C     0.80421   0.54661   0.53642   0.00000  Uiso   1.00
C1432  C     0.86246   0.45339   0.96358   0.00000  Uiso   1.00
C1433  C     0.77452   0.56106   0.51497   0.00000  Uiso   1.00
C1434  C     0.89215   0.43894   0.98503   0.00000  Uiso   1.00
C1435  C     0.87919   0.64660   0.72715   0.00000  Uiso   1.00
C1436  C     0.78748   0.35340   0.77285   0.00000  Uiso   1.00
C1437  C     0.87697   0.35585   0.73003   0.00000  Uiso   1.00
C1438  C     0.78969   0.64415   0.76997   0.00000  Uiso   1.00
C1439  C     0.83188   0.37590   0.75250   0.00000  Uiso   1.00
C1440  C     0.83479   0.62410   0.74750   0.00000  Uiso   1.00
C1441  C     0.99241   0.48077   0.71454   0.00000  Uiso   1.00
C1442  C     0.67425   0.51923   0.78546   0.00000  Uiso   1.00
C1443  C     0.70634   0.48079   0.71510   0.00000  Uiso   1.00
C1444  C     0.96033   0.51921   0.78490   0.00000  Uiso   1.00
C1445  C     0.80215   0.50056   0.83825   0.00000  Uiso   1.00
C1446  C     0.86451   0.49944   0.66175   0.00000  Uiso   1.00
C1447  C     0.78253   0.50857   0.88896   0.00000  Uiso   1.00
C1448  C     0.88414   0.49143   0.61104   0.00000  Uiso   1.00
C1449  C     0.74875   0.55964   0.95075   0.00000  Uiso   1.00
C1450  C     0.91792   0.44037   0.54925   0.00000  Uiso   1.00
C1451  C     0.75468   0.54427   0.90678   0.00000  Uiso   1.00
C1452  C     0.91198   0.45573   0.59322   0.00000  Uiso   1.00
C1453  C     0.80452   0.48809   0.91507   0.00000  Uiso   1.00
C1454  C     0.86215   0.51191   0.58493   0.00000  Uiso   1.00
C1455  C     0.80336   0.50517   0.95731   0.00000  Uiso   1.00
C1456  C     0.86331   0.49484   0.54269   0.00000  Uiso   1.00
C1457  C     0.77448   0.54141   0.97514   0.00000  Uiso   1.00
C1458  C     0.89218   0.45859   0.52485   0.00000  Uiso   1.00
C1459  C     0.83292   0.48933   0.98004   0.00000  Uiso   1.00
C1460  C     0.83375   0.51068   0.51995   0.00000  Uiso   1.00
H1461  H     0.75312   0.58909   0.52840   0.00000  Uiso   1.00
H1462  H     0.91355   0.41092   0.97160   0.00000  Uiso   1.00
H1463  H     0.84013   0.53860   0.60160   0.00000  Uiso   1.00
H1464  H     0.82653   0.46140   0.89840   0.00000  Uiso   1.00
H1465  H     0.92510   0.43768   0.61534   0.00000  Uiso   1.00
H1466  H     0.74156   0.56232   0.88466   0.00000  Uiso   1.00
H1467  H     0.72772   0.58792   0.96354   0.00000  Uiso   1.00
H1468  H     0.93895   0.41208   0.53646   0.00000  Uiso   1.00
H1469  H     0.80378   0.56520   0.56530   0.00000  Uiso   1.00
H1470  H     0.86289   0.43480   0.93470   0.00000  Uiso   1.00
H1471  H     0.91049   0.37347   0.71307   0.00000  Uiso   1.00
H1472  H     0.75617   0.62653   0.78693   0.00000  Uiso   1.00
H1473  H     0.73693   0.46534   0.68721   0.00000  Uiso   1.00
H1474  H     0.92974   0.53466   0.81279   0.00000  Uiso   1.00
N1475  N     0.71426   0.50001   0.75001   0.00000  Uiso   1.00
N1476  N     0.95241   0.49999   0.74999   0.00000  Uiso   1.00
O1477  O     0.79512   0.56108   0.75000   0.00000  Uiso   1.00
O1478  O     0.87154   0.43892   0.74999   0.00000  Uiso   1.00
O1479  O     0.87157   0.56107   0.75000   0.00000  Uiso   1.00
O1480  O     0.79510   0.43893   0.75000   0.00000  Uiso   1.00
O1481  O     0.77328   0.50001   0.81612   0.00000  Uiso   1.00
O1482  O     0.89339   0.49999   0.68387   0.00000  Uiso   1.00
O1483  O     0.84972   0.50000   0.81612   0.00000  Uiso   1.00
O1484  O     0.81695   0.50000   0.68388   0.00000  Uiso   1.00
Zn1485 Zn    0.78229   0.50001   0.75000   0.00000  Uiso   1.00
Zn1486 Zn    0.88438   0.49999   0.75000   0.00000  Uiso   1.00
C1487  C     0.92809   0.62758   0.70083   0.00000  Uiso   1.00
C1488  C     0.96369   0.62901   0.71956   0.00000  Uiso   1.00
C1489  C     0.67775   0.61364   0.69320   0.00000  Uiso   1.00
C1490  C     0.69000   0.59747   0.64785   0.00000  Uiso   1.00
C1491  C     0.98812   0.59629   0.62890   0.00000  Uiso   1.00
C1492  C     0.94044   0.61094   0.65546   0.00000  Uiso   1.00
H1493  H     0.95477   0.64219   0.75434   0.00000  Uiso   1.00
H1494  H     0.70513   0.61464   0.70769   0.00000  Uiso   1.00
H1495  H     0.72673   0.58576   0.62747   0.00000  Uiso   1.00
H1496  H     0.99770   0.58385   0.59369   0.00000  Uiso   1.00
H1497  H     0.91351   0.61011   0.64039   0.00000  Uiso   1.00
C1498  C     0.73858   0.37242   0.79917   0.00000  Uiso   1.00
C1499  C     0.72622   0.38906   0.84454   0.00000  Uiso   1.00
C1500  C     0.67855   0.40371   0.87110   0.00000  Uiso   1.00
C1501  C     0.97667   0.40253   0.85215   0.00000  Uiso   1.00
C1502  C     0.98892   0.38636   0.80679   0.00000  Uiso   1.00
C1503  C     0.70297   0.37099   0.78044   0.00000  Uiso   1.00
H1504  H     0.75316   0.38989   0.85961   0.00000  Uiso   1.00
H1505  H     0.66897   0.41615   0.90630   0.00000  Uiso   1.00
H1506  H     0.93994   0.41424   0.87253   0.00000  Uiso   1.00
H1507  H     0.96154   0.38537   0.79231   0.00000  Uiso   1.00
H1508  H     0.71189   0.35781   0.74566   0.00000  Uiso   1.00
C1509  C     0.99030   0.45972   0.67337   0.00000  Uiso   1.00
C1510  C     0.67188   0.48179   0.63007   0.00000  Uiso   1.00
C1511  C     0.68764   0.46075   0.58679   0.00000  Uiso   1.00
C1512  C     0.68799   0.41731   0.58640   0.00000  Uiso   1.00
C1513  C     0.67306   0.39499   0.62926   0.00000  Uiso   1.00
C1514  C     0.99210   0.41611   0.67236   0.00000  Uiso   1.00
H1515  H     0.67448   0.51518   0.62956   0.00000  Uiso   1.00
H1516  H     0.69991   0.47812   0.55358   0.00000  Uiso   1.00
H1517  H     0.70005   0.40101   0.55294   0.00000  Uiso   1.00
H1518  H     0.67437   0.36137   0.62892   0.00000  Uiso   1.00
H1519  H     0.98543   0.39855   0.70462   0.00000  Uiso   1.00
C1520  C     0.67636   0.54028   0.82663   0.00000  Uiso   1.00
C1521  C     0.67456   0.58389   0.82764   0.00000  Uiso   1.00
C1522  C     0.99360   0.60501   0.87074   0.00000  Uiso   1.00
C1523  C     0.97868   0.58269   0.91360   0.00000  Uiso   1.00
C1524  C     0.97903   0.53925   0.91321   0.00000  Uiso   1.00
C1525  C     0.99478   0.51821   0.86993   0.00000  Uiso   1.00
H1526  H     0.68123   0.60145   0.79538   0.00000  Uiso   1.00
H1527  H     0.99229   0.63863   0.87107   0.00000  Uiso   1.00
H1528  H     0.96662   0.59899   0.94705   0.00000  Uiso   1.00
H1529  H     0.96676   0.52188   0.94642   0.00000  Uiso   1.00
H1530  H     0.99219   0.48482   0.87044   0.00000  Uiso   1.00
C1531  C     0.16746   0.91320   0.74839   0.00000  Uiso   1.00
C1532  C     0.16587   0.75346   0.75161   0.00000  Uiso   1.00
C1533  C     0.13754   0.87994   0.53642   0.00000  Uiso   1.00
C1534  C     0.19580   0.78672   0.96358   0.00000  Uiso   1.00
C1535  C     0.10785   0.89440   0.51497   0.00000  Uiso   1.00
C1536  C     0.22548   0.77227   0.98503   0.00000  Uiso   1.00
C1537  C     0.21252   0.97994   0.72715   0.00000  Uiso   1.00
C1538  C     0.12081   0.68673   0.77285   0.00000  Uiso   1.00
C1539  C     0.21031   0.68918   0.73003   0.00000  Uiso   1.00
C1540  C     0.12303   0.97748   0.76997   0.00000  Uiso   1.00
C1541  C     0.16521   0.70924   0.75250   0.00000  Uiso   1.00
C1542  C     0.16812   0.95743   0.74750   0.00000  Uiso   1.00
C1543  C     0.32575   0.81410   0.71454   0.00000  Uiso   1.00
C1544  C     0.00759   0.85256   0.78546   0.00000  Uiso   1.00
C1545  C     0.03967   0.81412   0.71510   0.00000  Uiso   1.00
C1546  C     0.29366   0.85254   0.78490   0.00000  Uiso   1.00
C1547  C     0.13549   0.83389   0.83825   0.00000  Uiso   1.00
C1548  C     0.19785   0.83277   0.66175   0.00000  Uiso   1.00
C1549  C     0.11586   0.84190   0.88896   0.00000  Uiso   1.00
C1550  C     0.21747   0.82476   0.61104   0.00000  Uiso   1.00
C1551  C     0.08208   0.89297   0.95075   0.00000  Uiso   1.00
C1552  C     0.25125   0.77370   0.54925   0.00000  Uiso   1.00
C1553  C     0.08802   0.87761   0.90678   0.00000  Uiso   1.00
C1554  C     0.24532   0.78906   0.59322   0.00000  Uiso   1.00
C1555  C     0.13785   0.82142   0.91507   0.00000  Uiso   1.00
C1556  C     0.19548   0.84525   0.58493   0.00000  Uiso   1.00
C1557  C     0.13670   0.83850   0.95731   0.00000  Uiso   1.00
C1558  C     0.19664   0.82817   0.54269   0.00000  Uiso   1.00
C1559  C     0.10782   0.87474   0.97514   0.00000  Uiso   1.00
C1560  C     0.22552   0.79193   0.52485   0.00000  Uiso   1.00
C1561  C     0.16625   0.82266   0.98004   0.00000  Uiso   1.00
C1562  C     0.16708   0.84401   0.51995   0.00000  Uiso   1.00
H1563  H     0.08646   0.92242   0.52840   0.00000  Uiso   1.00
H1564  H     0.24688   0.74425   0.97160   0.00000  Uiso   1.00
H1565  H     0.17346   0.87194   0.60160   0.00000  Uiso   1.00
H1566  H     0.15987   0.79473   0.89840   0.00000  Uiso   1.00
H1567  H     0.25844   0.77101   0.61534   0.00000  Uiso   1.00
H1568  H     0.07490   0.89565   0.88466   0.00000  Uiso   1.00
H1569  H     0.06105   0.92126   0.96354   0.00000  Uiso   1.00
H1570  H     0.27229   0.74541   0.53646   0.00000  Uiso   1.00
H1571  H     0.13711   0.89853   0.56530   0.00000  Uiso   1.00
H1572  H     0.19622   0.76813   0.93470   0.00000  Uiso   1.00
H1573  H     0.24383   0.70681   0.71307   0.00000  Uiso   1.00
H1574  H     0.08950   0.95986   0.78693   0.00000  Uiso   1.00
H1575  H     0.07026   0.79868   0.68721   0.00000  Uiso   1.00
H1576  H     0.26307   0.86799   0.81279   0.00000  Uiso   1.00
N1577  N     0.04759   0.83334   0.75001   0.00000  Uiso   1.00
N1578  N     0.28574   0.83332   0.74999   0.00000  Uiso   1.00
O1579  O     0.12846   0.89442   0.75000   0.00000  Uiso   1.00
O1580  O     0.20488   0.77225   0.74999   0.00000  Uiso   1.00
O1581  O     0.20490   0.89441   0.75000   0.00000  Uiso   1.00
O1582  O     0.12843   0.77226   0.75000   0.00000  Uiso   1.00
O1583  O     0.10661   0.83334   0.81612   0.00000  Uiso   1.00
O1584  O     0.22672   0.83333   0.68387   0.00000  Uiso   1.00
O1585  O     0.18305   0.83333   0.81612   0.00000  Uiso   1.00
O1586  O     0.15028   0.83334   0.68388   0.00000  Uiso   1.00
Zn1587 Zn    0.11562   0.83334   0.75000   0.00000  Uiso   1.00
Zn1588 Zn    0.21771   0.83333   0.75000   0.00000  Uiso   1.00
C1589  C     0.26142   0.96092   0.70083   0.00000  Uiso   1.00
C1590  C     0.29703   0.96234   0.71956   0.00000  Uiso   1.00
C1591  C     0.01108   0.94697   0.69320   0.00000  Uiso   1.00
C1592  C     0.02333   0.93080   0.64785   0.00000  Uiso   1.00
C1593  C     0.32145   0.92963   0.62890   0.00000  Uiso   1.00
C1594  C     0.27378   0.94427   0.65546   0.00000  Uiso   1.00
H1595  H     0.28811   0.97552   0.75434   0.00000  Uiso   1.00
H1596  H     0.03846   0.94797   0.70769   0.00000  Uiso   1.00
H1597  H     0.06006   0.91910   0.62747   0.00000  Uiso   1.00
H1598  H     0.33103   0.91718   0.59369   0.00000  Uiso   1.00
H1599  H     0.24684   0.94344   0.64039   0.00000  Uiso   1.00
C1600  C     0.07191   0.70575   0.79917   0.00000  Uiso   1.00
C1601  C     0.05956   0.72239   0.84454   0.00000  Uiso   1.00
C1602  C     0.01188   0.73704   0.87110   0.00000  Uiso   1.00
C1603  C     0.31000   0.73587   0.85215   0.00000  Uiso   1.00
C1604  C     0.32225   0.71969   0.80679   0.00000  Uiso   1.00
C1605  C     0.03631   0.70432   0.78044   0.00000  Uiso   1.00
H1606  H     0.08649   0.72322   0.85961   0.00000  Uiso   1.00
H1607  H     0.00230   0.74949   0.90630   0.00000  Uiso   1.00
H1608  H     0.27327   0.74757   0.87253   0.00000  Uiso   1.00
H1609  H     0.29487   0.71870   0.79231   0.00000  Uiso   1.00
H1610  H     0.04523   0.69115   0.74566   0.00000  Uiso   1.00
C1611  C     0.32364   0.79305   0.67337   0.00000  Uiso   1.00
C1612  C     0.00522   0.81513   0.63007   0.00000  Uiso   1.00
C1613  C     0.02097   0.79409   0.58679   0.00000  Uiso   1.00
C1614  C     0.02132   0.75065   0.58640   0.00000  Uiso   1.00
C1615  C     0.00640   0.72832   0.62926   0.00000  Uiso   1.00
C1616  C     0.32544   0.74944   0.67236   0.00000  Uiso   1.00
H1617  H     0.00782   0.84851   0.62956   0.00000  Uiso   1.00
H1618  H     0.03325   0.81145   0.55358   0.00000  Uiso   1.00
H1619  H     0.03338   0.73434   0.55294   0.00000  Uiso   1.00
H1620  H     0.00770   0.69470   0.62892   0.00000  Uiso   1.00
H1621  H     0.31877   0.73189   0.70462   0.00000  Uiso   1.00
C1622  C     0.00970   0.87362   0.82663   0.00000  Uiso   1.00
C1623  C     0.00790   0.91723   0.82764   0.00000  Uiso   1.00
C1624  C     0.32694   0.93834   0.87074   0.00000  Uiso   1.00
C1625  C     0.31201   0.91602   0.91360   0.00000  Uiso   1.00
C1626  C     0.31236   0.87258   0.91321   0.00000  Uiso   1.00
C1627  C     0.32812   0.85154   0.86993   0.00000  Uiso   1.00
H1628  H     0.01456   0.93478   0.79538   0.00000  Uiso   1.00
H1629  H     0.32563   0.97197   0.87107   0.00000  Uiso   1.00
H1630  H     0.29995   0.93232   0.94705   0.00000  Uiso   1.00
H1631  H     0.30009   0.85521   0.94642   0.00000  Uiso   1.00
H1632  H     0.32552   0.81815   0.87044   0.00000  Uiso   1.00
C1633  C     0.50080   0.91320   0.74839   0.00000  Uiso   1.00
C1634  C     0.49920   0.75346   0.75161   0.00000  Uiso   1.00
C1635  C     0.47087   0.87994   0.53642   0.00000  Uiso   1.00
C1636  C     0.52913   0.78672   0.96358   0.00000  Uiso   1.00
C1637  C     0.44118   0.89440   0.51497   0.00000  Uiso   1.00
C1638  C     0.55882   0.77227   0.98503   0.00000  Uiso   1.00
C1639  C     0.54585   0.97994   0.72715   0.00000  Uiso   1.00
C1640  C     0.45415   0.68673   0.77285   0.00000  Uiso   1.00
C1641  C     0.54364   0.68918   0.73003   0.00000  Uiso   1.00
C1642  C     0.45636   0.97748   0.76997   0.00000  Uiso   1.00
C1643  C     0.49855   0.70924   0.75250   0.00000  Uiso   1.00
C1644  C     0.50145   0.95743   0.74750   0.00000  Uiso   1.00
C1645  C     0.65908   0.81410   0.71454   0.00000  Uiso   1.00
C1646  C     0.34092   0.85256   0.78546   0.00000  Uiso   1.00
C1647  C     0.37301   0.81412   0.71510   0.00000  Uiso   1.00
C1648  C     0.62699   0.85254   0.78490   0.00000  Uiso   1.00
C1649  C     0.46882   0.83389   0.83825   0.00000  Uiso   1.00
C1650  C     0.53118   0.83277   0.66175   0.00000  Uiso   1.00
C1651  C     0.44920   0.84190   0.88896   0.00000  Uiso   1.00
C1652  C     0.55080   0.82476   0.61104   0.00000  Uiso   1.00
C1653  C     0.41542   0.89297   0.95075   0.00000  Uiso   1.00
C1654  C     0.58459   0.77370   0.54925   0.00000  Uiso   1.00
C1655  C     0.42135   0.87761   0.90678   0.00000  Uiso   1.00
C1656  C     0.57865   0.78906   0.59322   0.00000  Uiso   1.00
C1657  C     0.47118   0.82142   0.91507   0.00000  Uiso   1.00
C1658  C     0.52882   0.84525   0.58493   0.00000  Uiso   1.00
C1659  C     0.47003   0.83850   0.95731   0.00000  Uiso   1.00
C1660  C     0.52997   0.82817   0.54269   0.00000  Uiso   1.00
C1661  C     0.44115   0.87474   0.97514   0.00000  Uiso   1.00
C1662  C     0.55885   0.79193   0.52485   0.00000  Uiso   1.00
C1663  C     0.49959   0.82266   0.98004   0.00000  Uiso   1.00
C1664  C     0.50041   0.84401   0.51995   0.00000  Uiso   1.00
H1665  H     0.41979   0.92242   0.52840   0.00000  Uiso   1.00
H1666  H     0.58021   0.74425   0.97160   0.00000  Uiso   1.00
H1667  H     0.50680   0.87194   0.60160   0.00000  Uiso   1.00
H1668  H     0.49320   0.79473   0.89840   0.00000  Uiso   1.00
H1669  H     0.59177   0.77101   0.61534   0.00000  Uiso   1.00
H1670  H     0.40823   0.89565   0.88466   0.00000  Uiso   1.00
H1671  H     0.39438   0.92126   0.96354   0.00000  Uiso   1.00
H1672  H     0.60562   0.74541   0.53646   0.00000  Uiso   1.00
H1673  H     0.47045   0.89853   0.56530   0.00000  Uiso   1.00
H1674  H     0.52956   0.76813   0.93470   0.00000  Uiso   1.00
H1675  H     0.57716   0.70681   0.71307   0.00000  Uiso   1.00
H1676  H     0.42284   0.95986   0.78693   0.00000  Uiso   1.00
H1677  H     0.40360   0.79868   0.68721   0.00000  Uiso   1.00
H1678  H     0.59640   0.86799   0.81279   0.00000  Uiso   1.00
N1679  N     0.38093   0.83334   0.75001   0.00000  Uiso   1.00
N1680  N     0.61907   0.83332   0.74999   0.00000  Uiso   1.00
O1681  O     0.46179   0.89442   0.75000   0.00000  Uiso   1.00
O1682  O     0.53821   0.77225   0.74999   0.00000  Uiso   1.00
O1683  O     0.53823   0.89441   0.75000   0.00000  Uiso   1.00
O1684  O     0.46177   0.77226   0.75000   0.00000  Uiso   1.00
O1685  O     0.43994   0.83334   0.81612   0.00000  Uiso   1.00
O1686  O     0.56006   0.83333   0.68387   0.00000  Uiso   1.00
O1687  O     0.51639   0.83333   0.81612   0.00000  Uiso   1.00
O1688  O     0.48361   0.83334   0.68388   0.00000  Uiso   1.00
Zn1689 Zn    0.44896   0.83334   0.75000   0.00000  Uiso   1.00
Zn1690 Zn    0.55104   0.83333   0.75000   0.00000  Uiso   1.00
C1691  C     0.59476   0.96092   0.70083   0.00000  Uiso   1.00
C1692  C     0.63036   0.96234   0.71956   0.00000  Uiso   1.00
C1693  C     0.34442   0.94697   0.69320   0.00000  Uiso   1.00
C1694  C     0.35666   0.93080   0.64785   0.00000  Uiso   1.00
C1695  C     0.65479   0.92963   0.62890   0.00000  Uiso   1.00
C1696  C     0.60711   0.94427   0.65546   0.00000  Uiso   1.00
H1697  H     0.62144   0.97552   0.75434   0.00000  Uiso   1.00
H1698  H     0.37180   0.94797   0.70769   0.00000  Uiso   1.00
H1699  H     0.39339   0.91910   0.62747   0.00000  Uiso   1.00
H1700  H     0.66437   0.91718   0.59369   0.00000  Uiso   1.00
H1701  H     0.58017   0.94344   0.64039   0.00000  Uiso   1.00
C1702  C     0.40524   0.70575   0.79917   0.00000  Uiso   1.00
C1703  C     0.39289   0.72239   0.84454   0.00000  Uiso   1.00
C1704  C     0.34521   0.73704   0.87110   0.00000  Uiso   1.00
C1705  C     0.64334   0.73587   0.85215   0.00000  Uiso   1.00
C1706  C     0.65558   0.71969   0.80679   0.00000  Uiso   1.00
C1707  C     0.36964   0.70432   0.78044   0.00000  Uiso   1.00
H1708  H     0.41983   0.72322   0.85961   0.00000  Uiso   1.00
H1709  H     0.33563   0.74949   0.90630   0.00000  Uiso   1.00
H1710  H     0.60661   0.74757   0.87253   0.00000  Uiso   1.00
H1711  H     0.62820   0.71870   0.79231   0.00000  Uiso   1.00
H1712  H     0.37856   0.69115   0.74566   0.00000  Uiso   1.00
C1713  C     0.65697   0.79305   0.67337   0.00000  Uiso   1.00
C1714  C     0.33855   0.81513   0.63007   0.00000  Uiso   1.00
C1715  C     0.35431   0.79409   0.58679   0.00000  Uiso   1.00
C1716  C     0.35466   0.75065   0.58640   0.00000  Uiso   1.00
C1717  C     0.33973   0.72832   0.62926   0.00000  Uiso   1.00
C1718  C     0.65877   0.74944   0.67236   0.00000  Uiso   1.00
H1719  H     0.34115   0.84851   0.62956   0.00000  Uiso   1.00
H1720  H     0.36658   0.81145   0.55358   0.00000  Uiso   1.00
H1721  H     0.36671   0.73434   0.55294   0.00000  Uiso   1.00
H1722  H     0.34104   0.69470   0.62892   0.00000  Uiso   1.00
H1723  H     0.65210   0.73189   0.70462   0.00000  Uiso   1.00
C1724  C     0.34303   0.87362   0.82663   0.00000  Uiso   1.00
C1725  C     0.34123   0.91723   0.82764   0.00000  Uiso   1.00
C1726  C     0.66027   0.93834   0.87074   0.00000  Uiso   1.00
C1727  C     0.64535   0.91602   0.91360   0.00000  Uiso   1.00
C1728  C     0.64569   0.87258   0.91321   0.00000  Uiso   1.00
C1729  C     0.66145   0.85154   0.86993   0.00000  Uiso   1.00
H1730  H     0.34790   0.93478   0.79538   0.00000  Uiso   1.00
H1731  H     0.65896   0.97197   0.87107   0.00000  Uiso   1.00
H1732  H     0.63329   0.93232   0.94705   0.00000  Uiso   1.00
H1733  H     0.63342   0.85521   0.94642   0.00000  Uiso   1.00
H1734  H     0.65885   0.81815   0.87044   0.00000  Uiso   1.00
C1735  C     0.83413   0.91320   0.74839   0.00000  Uiso   1.00
C1736  C     0.83254   0.75346   0.75161   0.00000  Uiso   1.00
C1737  C     0.80421   0.87994   0.53642   0.00000  Uiso   1.00
C1738  C     0.86246   0.78672   0.96358   0.00000  Uiso   1.00
C1739  C     0.77452   0.89440   0.51497   0.00000  Uiso   1.00
C1740  C     0.89215   0.77227   0.98503   0.00000  Uiso   1.00
C1741  C     0.87919   0.97994   0.72715   0.00000  Uiso   1.00
C1742  C     0.78748   0.68673   0.77285   0.00000  Uiso   1.00
C1743  C     0.87697   0.68918   0.73003   0.00000  Uiso   1.00
C1744  C     0.78969   0.97748   0.76997   0.00000  Uiso   1.00
C1745  C     0.83188   0.70924   0.75250   0.00000  Uiso   1.00
C1746  C     0.83479   0.95743   0.74750   0.00000  Uiso   1.00
C1747  C     0.99241   0.81410   0.71454   0.00000  Uiso   1.00
C1748  C     0.67425   0.85256   0.78546   0.00000  Uiso   1.00
C1749  C     0.70634   0.81412   0.71510   0.00000  Uiso   1.00
C1750  C     0.96033   0.85254   0.78490   0.00000  Uiso   1.00
C1751  C     0.80215   0.83389   0.83825   0.00000  Uiso   1.00
C1752  C     0.86451   0.83277   0.66175   0.00000  Uiso   1.00
C1753  C     0.78253   0.84190   0.88896   0.00000  Uiso   1.00
C1754  C     0.88414   0.82476   0.61104   0.00000  Uiso   1.00
C1755  C     0.74875   0.89297   0.95075   0.00000  Uiso   1.00
C1756  C     0.91792   0.77370   0.54925   0.00000  Uiso   1.00
C1757  C     0.75468   0.87761   0.90678   0.00000  Uiso   1.00
C1758  C     0.91198   0.78906   0.59322   0.00000  Uiso   1.00
C1759  C     0.80452   0.82142   0.91507   0.00000  Uiso   1.00
C1760  C     0.86215   0.84525   0.58493   0.00000  Uiso   1.00
C1761  C     0.80336   0.83850   0.95731   0.00000  Uiso   1.00
C1762  C     0.86331   0.82817   0.54269   0.00000  Uiso   1.00
C1763  C     0.77448   0.87474   0.97514   0.00000  Uiso   1.00
C1764  C     0.89218   0.79193   0.52485   0.00000  Uiso   1.00
C1765  C     0.83292   0.82266   0.98004   0.00000  Uiso   1.00
C1766  C     0.83375   0.84401   0.51995   0.00000  Uiso   1.00
H1767  H     0.75312   0.92242   0.52840   0.00000  Uiso   1.00
H1768  H     0.91355   0.74425   0.97160   0.00000  Uiso   1.00
H1769  H     0.84013   0.87194   0.60160   0.00000  Uiso   1.00
H1770  H     0.82653   0.79473   0.89840   0.00000  Uiso   1.00
H1771  H     0.92510   0.77101   0.61534   0.00000  Uiso   1.00
H1772  H     0.74156   0.89565   0.88466   0.00000  Uiso   1.00
H1773  H     0.72772   0.92126   0.96354   0.00000  Uiso   1.00
H1774  H     0.93895   0.74541   0.53646   0.00000  Uiso   1.00
H1775  H     0.80378   0.89853   0.56530   0.00000  Uiso   1.00
H1776  H     0.86289   0.76813   0.93470   0.00000  Uiso   1.00
H1777  H     0.91049   0.70681   0.71307   0.00000  Uiso   1.00
H1778  H     0.75617   0.95986   0.78693   0.00000  Uiso   1.00
H1779  H     0.73693   0.79868   0.68721   0.00000  Uiso   1.00
H1780  H     0.92974   0.86799   0.81279   0.00000  Uiso   1.00
N1781  N     0.71426   0.83334   0.75001   0.00000  Uiso   1.00
N1782  N     0.95241   0.83332   0.74999   0.00000  Uiso   1.00
O1783  O     0.79512   0.89442   0.75000   0.00000  Uiso   1.00
O1784  O     0.87154   0.77225   0.74999   0.00000  Uiso   1.00
O1785  O     0.87157   0.89441   0.75000   0.00000  Uiso   1.00
O1786  O     0.79510   0.77226   0.75000   0.00000  Uiso   1.00
O1787  O     0.77328   0.83334   0.81612   0.00000  Uiso   1.00
O1788  O     0.89339   0.83333   0.68387   0.00000  Uiso   1.00
O1789  O     0.84972   0.83333   0.81612   0.00000  Uiso   1.00
O1790  O     0.81695   0.83334   0.68388   0.00000  Uiso   1.00
Zn1791 Zn    0.78229   0.83334   0.75000   0.00000  Uiso   1.00
Zn1792 Zn    0.88438   0.83333   0.75000   0.00000  Uiso   1.00
C1793  C     0.92809   0.96092   0.70083   0.00000  Uiso   1.00
C1794  C     0.96369   0.96234   0.71956   0.00000  Uiso   1.00
C1795  C     0.67775   0.94697   0.69320   0.00000  Uiso   1.00
C1796  C     0.69000   0.93080   0.64785   0.00000  Uiso   1.00
C1797  C     0.98812   0.92963   0.62890   0.00000  Uiso   1.00
C1798  C     0.94044   0.94427   0.65546   0.00000  Uiso   1.00
H1799  H     0.95477   0.97552   0.75434   0.00000  Uiso   1.00
H1800  H     0.70513   0.94797   0.70769   0.00000  Uiso   1.00
H1801  H     0.72673   0.91910   0.62747   0.00000  Uiso   1.00
H1802  H     0.99770   0.91718   0.59369   0.00000  Uiso   1.00
H1803  H     0.91351   0.94344   0.64039   0.00000  Uiso   1.00
C1804  C     0.73858   0.70575   0.79917   0.00000  Uiso   1.00
C1805  C     0.72622   0.72239   0.84454   0.00000  Uiso   1.00
C1806  C     0.67855   0.73704   0.87110   0.00000  Uiso   1.00
C1807  C     0.97667   0.73587   0.85215   0.00000  Uiso   1.00
C1808  C     0.98892   0.71969   0.80679   0.00000  Uiso   1.00
C1809  C     0.70297   0.70432   0.78044   0.00000  Uiso   1.00
H1810  H     0.75316   0.72322   0.85961   0.00000  Uiso   1.00
H1811  H     0.66897   0.74949   0.90630   0.00000  Uiso   1.00
H1812  H     0.93994   0.74757   0.87253   0.00000  Uiso   1.00
H1813  H     0.96154   0.71870   0.79231   0.00000  Uiso   1.00
H1814  H     0.71189   0.69115   0.74566   0.00000  Uiso   1.00
C1815  C     0.99030   0.79305   0.67337   0.00000  Uiso   1.00
C1816  C     0.67188   0.81513   0.63007   0.00000  Uiso   1.00
C1817  C     0.68764   0.79409   0.58679   0.00000  Uiso   1.00
C1818  C     0.68799   0.75065   0.58640   0.00000  Uiso   1.00
C1819  C     0.67306   0.72832   0.62926   0.00000  Uiso   1.00
C1820  C     0.99210   0.74944   0.67236   0.00000  Uiso   1.00
H1821  H     0.67448   0.84851   0.62956   0.00000  Uiso   1.00
H1822  H     0.69991   0.81145   0.55358   0.00000  Uiso   1.00
H1823  H     0.70005   0.73434   0.55294   0.00000  Uiso   1.00
H1824  H     0.67437   0.69470   0.62892   0.00000  Uiso   1.00
H1825  H     0.98543   0.73189   0.70462   0.00000  Uiso   1.00
C1826  C     0.67636   0.87362   0.82663   0.00000  Uiso   1.00
C1827  C     0.67456   0.91723   0.82764   0.00000  Uiso   1.00
C1828  C     0.99360   0.93834   0.87074   0.00000  Uiso   1.00
C1829  C     0.97868   0.91602   0.91360   0.00000  Uiso   1.00
C1830  C     0.97903   0.87258   0.91321   0.00000  Uiso   1.00
C1831  C     0.99478   0.85154   0.86993   0.00000  Uiso   1.00
H1832  H     0.68123   0.93478   0.79538   0.00000  Uiso   1.00
H1833  H     0.99229   0.97197   0.87107   0.00000  Uiso   1.00
H1834  H     0.96662   0.93232   0.94705   0.00000  Uiso   1.00
H1835  H     0.96676   0.85521   0.94642   0.00000  Uiso   1.00
H1836  H     0.99219   0.81815   0.87044   0.00000  Uiso   1.00
loop_
_geom_bond_atom_site_label_1
_geom_bond_atom_site_label_2
_geom_bond_distance
_geom_bond_site_symmetry_2
_ccdc_geom_bond_type
C1     C12     1.423   .     S
C1     O51     1.287   .     A
C1     O49     1.295   .     A
C2     O50     1.295   .     A
C2     C11     1.423   .     S
C2     O52     1.287   .     A
C3     C32     1.416   .     A
C3     H41     1.074   .     S
C3     C5      1.384   .     A
C4     C6      1.384   .     A
C4     H42     1.074   .     S
C4     C31     1.416   .     A
C5     H33     1.084   .     S
C5     C947    1.388   1_554 S
C6     H34     1.084   .     S
C6     C948    1.388   .     S
C7     C59     1.477   .     S
C7     C12     1.407   .     A
C7     C315    1.373   .     S
C8     C70     1.477   .     S
C8     C11     1.407   .     A
C8     C622    1.373   1_545 S
C9     H43     1.076   .     S
C9     C11     1.391   .     A
C9     C619    1.373   1_545 S
C10    C12     1.391   .     A
C10    H44     1.076   .     S
C10    C314    1.373   .     S
C13    C81     1.470   .     S
C13    N48     1.388   .     A
C13    C117    1.417   .     S
C14    C92     1.470   .     S
C14    N47     1.388   .     A
C14    C220    1.417   1_455 S
C15    N47     1.351   .     A
C15    H45     1.083   .     S
C15    C217    1.417   1_455 S
C16    N48     1.351   .     A
C16    H46     1.083   .     S
C16    C116    1.417   .     S
C17    O55     1.294   .     A
C17    O53     1.303   .     A
C17    C19     1.450   .     S
C18    O56     1.294   .     A
C18    C20     1.450   .     S
C18    O54     1.303   .     A
C19    C23     1.392   .     A
C19    C25     1.392   .     A
C20    C26     1.392   .     A
C20    C24     1.392   .     A
C21    C29     1.402   .     A
C21    H39     1.084   .     S
C21    C23     1.389   .     A
C22    C24     1.389   .     A
C22    H40     1.084   .     S
C22    C30     1.402   .     A
C23    H38     1.080   .     S
C24    H37     1.080   .     S
C25    C27     1.407   .     A
C25    H36     1.076   .     S
C26    C28     1.407   .     A
C26    H35     1.076   .     S
C27    C29     1.420   .     A
C27    C31     1.425   .     A
C28    C32     1.425   .     A
C28    C30     1.420   .     A
C29    C923    1.388   .     S
C30    C924    1.388   1_554 S
C31    C950    1.425   .     S
C32    C949    1.425   1_554 S
N47    Zn57    2.029   .     S
N48    Zn58    2.029   .     S
O49    Zn57    2.003   .     S
O50    Zn58    2.003   .     S
O51    Zn58    2.000   .     S
O52    Zn57    2.000   .     S
O53    Zn57    1.943   .     S
O54    Zn58    1.943   .     S
O55    Zn58    1.864   .     S
O56    Zn57    1.864   .     S
C59    C64     1.402   .     A
C59    C60     1.405   .     A
C60    H65     1.083   .     S
C60    C163    1.397   .     S
C61    H66     1.082   .     S
C61    C62     1.397   .     A
C61    C264    1.397   1_455 S
C62    H67     1.080   .     S
C62    C267    1.399   1_455 S
C63    H68     1.082   .     S
C63    C64     1.397   .     A
C63    C164    1.399   .     S
C64    H69     1.083   .     S
C70    C71     1.402   .     A
C70    C75     1.405   .     A
C71    H76     1.083   .     S
C71    C72     1.397   .     A
C72    H77     1.082   .     S
C72    C277    1.399   1_455 S
C73    C74     1.397   .     A
C73    H78     1.080   .     S
C73    C174    1.399   .     S
C74    H79     1.082   .     S
C74    C177    1.397   .     S
C75    H80     1.083   .     S
C75    C278    1.397   1_455 S
C81    C86     1.404   .     A
C81    C184    1.404   .     S
C82    H87     1.076   .     S
C82    C83     1.399   .     A
C82    C285    1.404   1_455 S
C83    C84     1.397   .     A
C83    H88     1.083   .     S
C84    C85     1.397   .     A
C84    H89     1.082   .     S
C85    H90     1.082   .     S
C85    C290    1.399   1_455 S
C86    H91     1.083   .     S
C86    C187    1.399   .     S
C92    C93     1.404   .     A
C92    C301    1.404   1_455 S
C93    H98     1.083   .     S
C93    C298    1.399   1_455 S
C94    C95     1.397   .     A
C94    H99     1.082   .     S
C94    C195    1.399   .     S
C95    C96     1.397   .     A
C95    H100    1.082   .     S
C96    H101    1.083   .     S
C96    C97     1.399   .     A
C97    H102    1.076   .     S
C97    C194    1.404   .     S
C103   C114    1.423   .     S
C103   O153    1.287   .     A
C103   O151    1.295   .     A
C104   O152    1.295   .     A
C104   C113    1.423   .     S
C104   O154    1.287   .     A
C105   C134    1.416   .     A
C105   H143    1.074   .     S
C105   C107    1.384   .     A
C106   C108    1.384   .     A
C106   H144    1.074   .     S
C106   C133    1.416   .     A
C107   H135    1.084   .     S
C107   C1049   1.388   1_554 S
C108   H136    1.084   .     S
C108   C1050   1.388   .     S
C109   C161    1.477   .     S
C109   C114    1.407   .     A
C109   C417    1.373   .     S
C110   C172    1.477   .     S
C110   C113    1.407   .     A
C110   C724    1.373   1_545 S
C111   H145    1.076   .     S
C111   C113    1.391   .     A
C111   C721    1.373   1_545 S
C112   C114    1.391   .     A
C112   H146    1.076   .     S
C112   C416    1.373   .     S
C115   C183    1.470   .     S
C115   N150    1.388   .     A
C115   C219    1.417   .     S
C116   C194    1.470   .     S
C116   N149    1.388   .     A
C117   N149    1.351   .     A
C117   H147    1.083   .     S
C118   N150    1.351   .     A
C118   H148    1.083   .     S
C118   C218    1.417   .     S
C119   O157    1.294   .     A
C119   O155    1.303   .     A
C119   C121    1.450   .     S
C120   O158    1.294   .     A
C120   C122    1.450   .     S
C120   O156    1.303   .     A
C121   C125    1.392   .     A
C121   C127    1.392   .     A
C122   C128    1.392   .     A
C122   C126    1.392   .     A
C123   C131    1.402   .     A
C123   H141    1.084   .     S
C123   C125    1.389   .     A
C124   C126    1.389   .     A
C124   H142    1.084   .     S
C124   C132    1.402   .     A
C125   H140    1.080   .     S
C126   H139    1.080   .     S
C127   C129    1.407   .     A
C127   H138    1.076   .     S
C128   C130    1.407   .     A
C128   H137    1.076   .     S
C129   C131    1.420   .     A
C129   C133    1.425   .     A
C130   C134    1.425   .     A
C130   C132    1.420   .     A
C131   C1025   1.388   .     S
C132   C1026   1.388   1_554 S
C133   C1052   1.425   .     S
C134   C1051   1.425   1_554 S
N149   Zn159   2.029   .     S
N150   Zn160   2.029   .     S
O151   Zn159   2.003   .     S
O152   Zn160   2.003   .     S
O153   Zn160   2.000   .     S
O154   Zn159   2.000   .     S
O155   Zn159   1.943   .     S
O156   Zn160   1.943   .     S
O157   Zn160   1.864   .     S
O158   Zn159   1.864   .     S
C161   C166    1.402   .     A
C161   C162    1.405   .     A
C162   H167    1.083   .     S
C162   C265    1.397   .     S
C163   H168    1.082   .     S
C163   C164    1.397   .     A
C164   H169    1.080   .     S
C165   H170    1.082   .     S
C165   C166    1.397   .     A
C165   C266    1.399   .     S
C166   H171    1.083   .     S
C172   C173    1.402   .     A
C172   C177    1.405   .     A
C173   H178    1.083   .     S
C173   C174    1.397   .     A
C174   H179    1.082   .     S
C175   C176    1.397   .     A
C175   H180    1.080   .     S
C175   C276    1.399   .     S
C176   H181    1.082   .     S
C176   C279    1.397   .     S
C177   H182    1.083   .     S
C183   C188    1.404   .     A
C183   C286    1.404   .     S
C184   H189    1.076   .     S
C184   C185    1.399   .     A
C185   C186    1.397   .     A
C185   H190    1.083   .     S
C186   C187    1.397   .     A
C186   H191    1.082   .     S
C187   H192    1.082   .     S
C188   H193    1.083   .     S
C188   C289    1.399   .     S
C194   C195    1.404   .     A
C195   H200    1.083   .     S
C196   C197    1.397   .     A
C196   H201    1.082   .     S
C196   C297    1.399   .     S
C197   C198    1.397   .     A
C197   H202    1.082   .     S
C198   H203    1.083   .     S
C198   C199    1.399   .     A
C199   H204    1.076   .     S
C199   C296    1.404   .     S
C205   C216    1.423   .     S
C205   O255    1.287   .     A
C205   O253    1.295   .     A
C206   O254    1.295   .     A
C206   C215    1.423   .     S
C206   O256    1.287   .     A
C207   C236    1.416   .     A
C207   H245    1.074   .     S
C207   C209    1.384   .     A
C208   C210    1.384   .     A
C208   H246    1.074   .     S
C208   C235    1.416   .     A
C209   H237    1.084   .     S
C209   C1151   1.388   1_554 S
C210   H238    1.084   .     S
C210   C1152   1.388   .     S
C211   C263    1.477   .     S
C211   C216    1.407   .     A
C211   C519    1.373   .     S
C212   C274    1.477   .     S
C212   C215    1.407   .     A
C212   C826    1.373   1_545 S
C213   H247    1.076   .     S
C213   C215    1.391   .     A
C213   C823    1.373   1_545 S
C214   C216    1.391   .     A
C214   H248    1.076   .     S
C214   C518    1.373   .     S
C217   C285    1.470   .     S
C217   N252    1.388   .     A
C217   C15     1.417   1_655 S
C218   C296    1.470   .     S
C218   N251    1.388   .     A
C219   N251    1.351   .     A
C219   H249    1.083   .     S
C220   N252    1.351   .     A
C220   H250    1.083   .     S
C220   C14     1.417   1_655 S
C221   O259    1.294   .     A
C221   O257    1.303   .     A
C221   C223    1.450   .     S
C222   O260    1.294   .     A
C222   C224    1.450   .     S
C222   O258    1.303   .     A
C223   C227    1.392   .     A
C223   C229    1.392   .     A
C224   C230    1.392   .     A
C224   C228    1.392   .     A
C225   C233    1.402   .     A
C225   H243    1.084   .     S
C225   C227    1.389   .     A
C226   C228    1.389   .     A
C226   H244    1.084   .     S
C226   C234    1.402   .     A
C227   H242    1.080   .     S
C228   H241    1.080   .     S
C229   C231    1.407   .     A
C229   H240    1.076   .     S
C230   C232    1.407   .     A
C230   H239    1.076   .     S
C231   C233    1.420   .     A
C231   C235    1.425   .     A
C232   C236    1.425   .     A
C232   C234    1.420   .     A
C233   C1127   1.388   .     S
C234   C1128   1.388   1_554 S
C235   C1154   1.425   .     S
C236   C1153   1.425   1_554 S
N251   Zn261   2.029   .     S
N252   Zn262   2.029   .     S
O253   Zn261   2.003   .     S
O254   Zn262   2.003   .     S
O255   Zn262   2.000   .     S
O256   Zn261   2.000   .     S
O257   Zn261   1.943   .     S
O258   Zn262   1.943   .     S
O259   Zn262   1.864   .     S
O260   Zn261   1.864   .     S
C263   C268    1.402   .     A
C263   C264    1.405   .     A
C264   H269    1.083   .     S
C264   C61     1.397   1_655 S
C265   H270    1.082   .     S
C265   C266    1.397   .     A
C266   H271    1.080   .     S
C267   H272    1.082   .     S
C267   C268    1.397   .     A
C267   C62     1.399   1_655 S
C268   H273    1.083   .     S
C274   C275    1.402   .     A
C274   C279    1.405   .     A
C275   H280    1.083   .     S
C275   C276    1.397   .     A
C276   H281    1.082   .     S
C277   C278    1.397   .     A
C277   H282    1.080   .     S
C277   C72     1.399   1_655 S
C278   H283    1.082   .     S
C278   C75     1.397   1_655 S
C279   H284    1.083   .     S
C285   C290    1.404   .     A
C285   C82     1.404   1_655 S
C286   H291    1.076   .     S
C286   C287    1.399   .     A
C287   C288    1.397   .     A
C287   H292    1.083   .     S
C288   C289    1.397   .     A
C288   H293    1.082   .     S
C289   H294    1.082   .     S
C290   H295    1.083   .     S
C290   C85     1.399   1_655 S
C296   C297    1.404   .     A
C297   H302    1.083   .     S
C298   C299    1.397   .     A
C298   H303    1.082   .     S
C298   C93     1.399   1_655 S
C299   C300    1.397   .     A
C299   H304    1.082   .     S
C300   H305    1.083   .     S
C300   C301    1.399   .     A
C301   H306    1.076   .     S
C301   C92     1.404   1_655 S
C307   C318    1.423   .     S
C307   O357    1.287   .     A
C307   O355    1.295   .     A
C308   O356    1.295   .     A
C308   C317    1.423   .     S
C308   O358    1.287   .     A
C309   C338    1.416   .     A
C309   H347    1.074   .     S
C309   C311    1.384   .     A
C310   C312    1.384   .     A
C310   H348    1.074   .     S
C310   C337    1.416   .     A
C311   H339    1.084   .     S
C311   C1253   1.388   1_554 S
C312   H340    1.084   .     S
C312   C1254   1.388   .     S
C313   C365    1.477   .     S
C313   C318    1.407   .     A
C313   C621    1.373   .     S
C314   C376    1.477   .     S
C314   C317    1.407   .     A
C315   H349    1.076   .     S
C315   C317    1.391   .     A
C316   C318    1.391   .     A
C316   H350    1.076   .     S
C316   C620    1.373   .     S
C319   C387    1.470   .     S
C319   N354    1.388   .     A
C319   C423    1.417   .     S
C320   C398    1.470   .     S
C320   N353    1.388   .     A
C320   C526    1.417   1_455 S
C321   N353    1.351   .     A
C321   H351    1.083   .     S
C321   C523    1.417   1_455 S
C322   N354    1.351   .     A
C322   H352    1.083   .     S
C322   C422    1.417   .     S
C323   O361    1.294   .     A
C323   O359    1.303   .     A
C323   C325    1.450   .     S
C324   O362    1.294   .     A
C324   C326    1.450   .     S
C324   O360    1.303   .     A
C325   C329    1.392   .     A
C325   C331    1.392   .     A
C326   C332    1.392   .     A
C326   C330    1.392   .     A
C327   C335    1.402   .     A
C327   H345    1.084   .     S
C327   C329    1.389   .     A
C328   C330    1.389   .     A
C328   H346    1.084   .     S
C328   C336    1.402   .     A
C329   H344    1.080   .     S
C330   H343    1.080   .     S
C331   C333    1.407   .     A
C331   H342    1.076   .     S
C332   C334    1.407   .     A
C332   H341    1.076   .     S
C333   C335    1.420   .     A
C333   C337    1.425   .     A
C334   C338    1.425   .     A
C334   C336    1.420   .     A
C335   C1229   1.388   .     S
C336   C1230   1.388   1_554 S
C337   C1256   1.425   .     S
C338   C1255   1.425   1_554 S
N353   Zn363   2.029   .     S
N354   Zn364   2.029   .     S
O355   Zn363   2.003   .     S
O356   Zn364   2.003   .     S
O357   Zn364   2.000   .     S
O358   Zn363   2.000   .     S
O359   Zn363   1.943   .     S
O360   Zn364   1.943   .     S
O361   Zn364   1.864   .     S
O362   Zn363   1.864   .     S
C365   C370    1.402   .     A
C365   C366    1.405   .     A
C366   H371    1.083   .     S
C366   C469    1.397   .     S
C367   H372    1.082   .     S
C367   C368    1.397   .     A
C367   C570    1.397   1_455 S
C368   H373    1.080   .     S
C368   C573    1.399   1_455 S
C369   H374    1.082   .     S
C369   C370    1.397   .     A
C369   C470    1.399   .     S
C370   H375    1.083   .     S
C376   C377    1.402   .     A
C376   C381    1.405   .     A
C377   H382    1.083   .     S
C377   C378    1.397   .     A
C378   H383    1.082   .     S
C378   C583    1.399   1_455 S
C379   C380    1.397   .     A
C379   H384    1.080   .     S
C379   C480    1.399   .     S
C380   H385    1.082   .     S
C380   C483    1.397   .     S
C381   H386    1.083   .     S
C381   C584    1.397   1_455 S
C387   C392    1.404   .     A
C387   C490    1.404   .     S
C388   H393    1.076   .     S
C388   C389    1.399   .     A
C388   C591    1.404   1_455 S
C389   C390    1.397   .     A
C389   H394    1.083   .     S
C390   C391    1.397   .     A
C390   H395    1.082   .     S
C391   H396    1.082   .     S
C391   C596    1.399   1_455 S
C392   H397    1.083   .     S
C392   C493    1.399   .     S
C398   C399    1.404   .     A
C398   C607    1.404   1_455 S
C399   H404    1.083   .     S
C399   C604    1.399   1_455 S
C400   C401    1.397   .     A
C400   H405    1.082   .     S
C400   C501    1.399   .     S
C401   C402    1.397   .     A
C401   H406    1.082   .     S
C402   H407    1.083   .     S
C402   C403    1.399   .     A
C403   H408    1.076   .     S
C403   C500    1.404   .     S
C409   C420    1.423   .     S
C409   O459    1.287   .     A
C409   O457    1.295   .     A
C410   O458    1.295   .     A
C410   C419    1.423   .     S
C410   O460    1.287   .     A
C411   C440    1.416   .     A
C411   H449    1.074   .     S
C411   C413    1.384   .     A
C412   C414    1.384   .     A
C412   H450    1.074   .     S
C412   C439    1.416   .     A
C413   H441    1.084   .     S
C413   C1355   1.388   1_554 S
C414   H442    1.084   .     S
C414   C1356   1.388   .     S
C415   C467    1.477   .     S
C415   C420    1.407   .     A
C415   C723    1.373   .     S
C416   C478    1.477   .     S
C416   C419    1.407   .     A
C417   H451    1.076   .     S
C417   C419    1.391   .     A
C418   C420    1.391   .     A
C418   H452    1.076   .     S
C418   C722    1.373   .     S
C421   C489    1.470   .     S
C421   N456    1.388   .     A
C421   C525    1.417   .     S
C422   C500    1.470   .     S
C422   N455    1.388   .     A
C423   N455    1.351   .     A
C423   H453    1.083   .     S
C424   N456    1.351   .     A
C424   H454    1.083   .     S
C424   C524    1.417   .     S
C425   O463    1.294   .     A
C425   O461    1.303   .     A
C425   C427    1.450   .     S
C426   O464    1.294   .     A
C426   C428    1.450   .     S
C426   O462    1.303   .     A
C427   C431    1.392   .     A
C427   C433    1.392   .     A
C428   C434    1.392   .     A
C428   C432    1.392   .     A
C429   C437    1.402   .     A
C429   H447    1.084   .     S
C429   C431    1.389   .     A
C430   C432    1.389   .     A
C430   H448    1.084   .     S
C430   C438    1.402   .     A
C431   H446    1.080   .     S
C432   H445    1.080   .     S
C433   C435    1.407   .     A
C433   H444    1.076   .     S
C434   C436    1.407   .     A
C434   H443    1.076   .     S
C435   C437    1.420   .     A
C435   C439    1.425   .     A
C436   C440    1.425   .     A
C436   C438    1.420   .     A
C437   C1331   1.388   .     S
C438   C1332   1.388   1_554 S
C439   C1358   1.425   .     S
C440   C1357   1.425   1_554 S
N455   Zn465   2.029   .     S
N456   Zn466   2.029   .     S
O457   Zn465   2.003   .     S
O458   Zn466   2.003   .     S
O459   Zn466   2.000   .     S
O460   Zn465   2.000   .     S
O461   Zn465   1.943   .     S
O462   Zn466   1.943   .     S
O463   Zn466   1.864   .     S
O464   Zn465   1.864   .     S
C467   C472    1.402   .     A
C467   C468    1.405   .     A
C468   H473    1.083   .     S
C468   C571    1.397   .     S
C469   H474    1.082   .     S
C469   C470    1.397   .     A
C470   H475    1.080   .     S
C471   H476    1.082   .     S
C471   C472    1.397   .     A
C471   C572    1.399   .     S
C472   H477    1.083   .     S
C478   C479    1.402   .     A
C478   C483    1.405   .     A
C479   H484    1.083   .     S
C479   C480    1.397   .     A
C480   H485    1.082   .     S
C481   C482    1.397   .     A
C481   H486    1.080   .     S
C481   C582    1.399   .     S
C482   H487    1.082   .     S
C482   C585    1.397   .     S
C483   H488    1.083   .     S
C489   C494    1.404   .     A
C489   C592    1.404   .     S
C490   H495    1.076   .     S
C490   C491    1.399   .     A
C491   C492    1.397   .     A
C491   H496    1.083   .     S
C492   C493    1.397   .     A
C492   H497    1.082   .     S
C493   H498    1.082   .     S
C494   H499    1.083   .     S
C494   C595    1.399   .     S
C500   C501    1.404   .     A
C501   H506    1.083   .     S
C502   C503    1.397   .     A
C502   H507    1.082   .     S
C502   C603    1.399   .     S
C503   C504    1.397   .     A
C503   H508    1.082   .     S
C504   H509    1.083   .     S
C504   C505    1.399   .     A
C505   H510    1.076   .     S
C505   C602    1.404   .     S
C511   C522    1.423   .     S
C511   O561    1.287   .     A
C511   O559    1.295   .     A
C512   O560    1.295   .     A
C512   C521    1.423   .     S
C512   O562    1.287   .     A
C513   C542    1.416   .     A
C513   H551    1.074   .     S
C513   C515    1.384   .     A
C514   C516    1.384   .     A
C514   H552    1.074   .     S
C514   C541    1.416   .     A
C515   H543    1.084   .     S
C515   C1457   1.388   1_554 S
C516   H544    1.084   .     S
C516   C1458   1.388   .     S
C517   C569    1.477   .     S
C517   C522    1.407   .     A
C517   C825    1.373   .     S
C518   C580    1.477   .     S
C518   C521    1.407   .     A
C519   H553    1.076   .     S
C519   C521    1.391   .     A
C520   C522    1.391   .     A
C520   H554    1.076   .     S
C520   C824    1.373   .     S
C523   C591    1.470   .     S
C523   N558    1.388   .     A
C523   C321    1.417   1_655 S
C524   C602    1.470   .     S
C524   N557    1.388   .     A
C525   N557    1.351   .     A
C525   H555    1.083   .     S
C526   N558    1.351   .     A
C526   H556    1.083   .     S
C526   C320    1.417   1_655 S
C527   O565    1.294   .     A
C527   O563    1.303   .     A
C527   C529    1.450   .     S
C528   O566    1.294   .     A
C528   C530    1.450   .     S
C528   O564    1.303   .     A
C529   C533    1.392   .     A
C529   C535    1.392   .     A
C530   C536    1.392   .     A
C530   C534    1.392   .     A
C531   C539    1.402   .     A
C531   H549    1.084   .     S
C531   C533    1.389   .     A
C532   C534    1.389   .     A
C532   H550    1.084   .     S
C532   C540    1.402   .     A
C533   H548    1.080   .     S
C534   H547    1.080   .     S
C535   C537    1.407   .     A
C535   H546    1.076   .     S
C536   C538    1.407   .     A
C536   H545    1.076   .     S
C537   C539    1.420   .     A
C537   C541    1.425   .     A
C538   C542    1.425   .     A
C538   C540    1.420   .     A
C539   C1433   1.388   .     S
C540   C1434   1.388   1_554 S
C541   C1460   1.425   .     S
C542   C1459   1.425   1_554 S
N557   Zn567   2.029   .     S
N558   Zn568   2.029   .     S
O559   Zn567   2.003   .     S
O560   Zn568   2.003   .     S
O561   Zn568   2.000   .     S
O562   Zn567   2.000   .     S
O563   Zn567   1.943   .     S
O564   Zn568   1.943   .     S
O565   Zn568   1.864   .     S
O566   Zn567   1.864   .     S
C569   C574    1.402   .     A
C569   C570    1.405   .     A
C570   H575    1.083   .     S
C570   C367    1.397   1_655 S
C571   H576    1.082   .     S
C571   C572    1.397   .     A
C572   H577    1.080   .     S
C573   H578    1.082   .     S
C573   C574    1.397   .     A
C573   C368    1.399   1_655 S
C574   H579    1.083   .     S
C580   C581    1.402   .     A
C580   C585    1.405   .     A
C581   H586    1.083   .     S
C581   C582    1.397   .     A
C582   H587    1.082   .     S
C583   C584    1.397   .     A
C583   H588    1.080   .     S
C583   C378    1.399   1_655 S
C584   H589    1.082   .     S
C584   C381    1.397   1_655 S
C585   H590    1.083   .     S
C591   C596    1.404   .     A
C591   C388    1.404   1_655 S
C592   H597    1.076   .     S
C592   C593    1.399   .     A
C593   C594    1.397   .     A
C593   H598    1.083   .     S
C594   C595    1.397   .     A
C594   H599    1.082   .     S
C595   H600    1.082   .     S
C596   H601    1.083   .     S
C596   C391    1.399   1_655 S
C602   C603    1.404   .     A
C603   H608    1.083   .     S
C604   C605    1.397   .     A
C604   H609    1.082   .     S
C604   C399    1.399   1_655 S
C605   C606    1.397   .     A
C605   H610    1.082   .     S
C606   H611    1.083   .     S
C606   C607    1.399   .     A
C607   H612    1.076   .     S
C607   C398    1.404   1_655 S
C613   C624    1.423   .     S
C613   O663    1.287   .     A
C613   O661    1.295   .     A
C614   O662    1.295   .     A
C614   C623    1.423   .     S
C614   O664    1.287   .     A
C615   C644    1.416   .     A
C615   H653    1.074   .     S
C615   C617    1.384   .     A
C616   C618    1.384   .     A
C616   H654    1.074   .     S
C616   C643    1.416   .     A
C617   H645    1.084   .     S
C617   C1559   1.388   1_554 S
C618   H646    1.084   .     S
C618   C1560   1.388   .     S
C619   C671    1.477   .     S
C619   C624    1.407   .     A
C619   C9      1.373   1_565 S
C620   C682    1.477   .     S
C620   C623    1.407   .     A
C621   H655    1.076   .     S
C621   C623    1.391   .     A
C622   C624    1.391   .     A
C622   H656    1.076   .     S
C622   C8      1.373   1_565 S
C625   C693    1.470   .     S
C625   N660    1.388   .     A
C625   C729    1.417   .     S
C626   C704    1.470   .     S
C626   N659    1.388   .     A
C626   C832    1.417   1_455 S
C627   N659    1.351   .     A
C627   H657    1.083   .     S
C627   C829    1.417   1_455 S
C628   N660    1.351   .     A
C628   H658    1.083   .     S
C628   C728    1.417   .     S
C629   O667    1.294   .     A
C629   O665    1.303   .     A
C629   C631    1.450   .     S
C630   O668    1.294   .     A
C630   C632    1.450   .     S
C630   O666    1.303   .     A
C631   C635    1.392   .     A
C631   C637    1.392   .     A
C632   C638    1.392   .     A
C632   C636    1.392   .     A
C633   C641    1.402   .     A
C633   H651    1.084   .     S
C633   C635    1.389   .     A
C634   C636    1.389   .     A
C634   H652    1.084   .     S
C634   C642    1.402   .     A
C635   H650    1.080   .     S
C636   H649    1.080   .     S
C637   C639    1.407   .     A
C637   H648    1.076   .     S
C638   C640    1.407   .     A
C638   H647    1.076   .     S
C639   C641    1.420   .     A
C639   C643    1.425   .     A
C640   C644    1.425   .     A
C640   C642    1.420   .     A
C641   C1535   1.388   .     S
C642   C1536   1.388   1_554 S
C643   C1562   1.425   .     S
C644   C1561   1.425   1_554 S
N659   Zn669   2.029   .     S
N660   Zn670   2.029   .     S
O661   Zn669   2.003   .     S
O662   Zn670   2.003   .     S
O663   Zn670   2.000   .     S
O664   Zn669   2.000   .     S
O665   Zn669   1.943   .     S
O666   Zn670   1.943   .     S
O667   Zn670   1.864   .     S
O668   Zn669   1.864   .     S
C671   C676    1.402   .     A
C671   C672    1.405   .     A
C672   H677    1.083   .     S
C672   C775    1.397   .     S
C673   H678    1.082   .     S
C673   C674    1.397   .     A
C673   C876    1.397   1_455 S
C674   H679    1.080   .     S
C674   C879    1.399   1_455 S
C675   H680    1.082   .     S
C675   C676    1.397   .     A
C675   C776    1.399   .     S
C676   H681    1.083   .     S
C682   C683    1.402   .     A
C682   C687    1.405   .     A
C683   H688    1.083   .     S
C683   C684    1.397   .     A
C684   H689    1.082   .     S
C684   C889    1.399   1_455 S
C685   C686    1.397   .     A
C685   H690    1.080   .     S
C685   C786    1.399   .     S
C686   H691    1.082   .     S
C686   C789    1.397   .     S
C687   H692    1.083   .     S
C687   C890    1.397   1_455 S
C693   C698    1.404   .     A
C693   C796    1.404   .     S
C694   H699    1.076   .     S
C694   C695    1.399   .     A
C694   C897    1.404   1_455 S
C695   C696    1.397   .     A
C695   H700    1.083   .     S
C696   C697    1.397   .     A
C696   H701    1.082   .     S
C697   H702    1.082   .     S
C697   C902    1.399   1_455 S
C698   H703    1.083   .     S
C698   C799    1.399   .     S
C704   C705    1.404   .     A
C704   C913    1.404   1_455 S
C705   H710    1.083   .     S
C705   C910    1.399   1_455 S
C706   C707    1.397   .     A
C706   H711    1.082   .     S
C706   C807    1.399   .     S
C707   C708    1.397   .     A
C707   H712    1.082   .     S
C708   H713    1.083   .     S
C708   C709    1.399   .     A
C709   H714    1.076   .     S
C709   C806    1.404   .     S
C715   C726    1.423   .     S
C715   O765    1.287   .     A
C715   O763    1.295   .     A
C716   O764    1.295   .     A
C716   C725    1.423   .     S
C716   O766    1.287   .     A
C717   C746    1.416   .     A
C717   H755    1.074   .     S
C717   C719    1.384   .     A
C718   C720    1.384   .     A
C718   H756    1.074   .     S
C718   C745    1.416   .     A
C719   H747    1.084   .     S
C719   C1661   1.388   1_554 S
C720   H748    1.084   .     S
C720   C1662   1.388   .     S
C721   C773    1.477   .     S
C721   C726    1.407   .     A
C721   C111    1.373   1_565 S
C722   C784    1.477   .     S
C722   C725    1.407   .     A
C723   H757    1.076   .     S
C723   C725    1.391   .     A
C724   C726    1.391   .     A
C724   H758    1.076   .     S
C724   C110    1.373   1_565 S
C727   C795    1.470   .     S
C727   N762    1.388   .     A
C727   C831    1.417   .     S
C728   C806    1.470   .     S
C728   N761    1.388   .     A
C729   N761    1.351   .     A
C729   H759    1.083   .     S
C730   N762    1.351   .     A
C730   H760    1.083   .     S
C730   C830    1.417   .     S
C731   O769    1.294   .     A
C731   O767    1.303   .     A
C731   C733    1.450   .     S
C732   O770    1.294   .     A
C732   C734    1.450   .     S
C732   O768    1.303   .     A
C733   C737    1.392   .     A
C733   C739    1.392   .     A
C734   C740    1.392   .     A
C734   C738    1.392   .     A
C735   C743    1.402   .     A
C735   H753    1.084   .     S
C735   C737    1.389   .     A
C736   C738    1.389   .     A
C736   H754    1.084   .     S
C736   C744    1.402   .     A
C737   H752    1.080   .     S
C738   H751    1.080   .     S
C739   C741    1.407   .     A
C739   H750    1.076   .     S
C740   C742    1.407   .     A
C740   H749    1.076   .     S
C741   C743    1.420   .     A
C741   C745    1.425   .     A
C742   C746    1.425   .     A
C742   C744    1.420   .     A
C743   C1637   1.388   .     S
C744   C1638   1.388   1_554 S
C745   C1664   1.425   .     S
C746   C1663   1.425   1_554 S
N761   Zn771   2.029   .     S
N762   Zn772   2.029   .     S
O763   Zn771   2.003   .     S
O764   Zn772   2.003   .     S
O765   Zn772   2.000   .     S
O766   Zn771   2.000   .     S
O767   Zn771   1.943   .     S
O768   Zn772   1.943   .     S
O769   Zn772   1.864   .     S
O770   Zn771   1.864   .     S
C773   C778    1.402   .     A
C773   C774    1.405   .     A
C774   H779    1.083   .     S
C774   C877    1.397   .     S
C775   H780    1.082   .     S
C775   C776    1.397   .     A
C776   H781    1.080   .     S
C777   H782    1.082   .     S
C777   C778    1.397   .     A
C777   C878    1.399   .     S
C778   H783    1.083   .     S
C784   C785    1.402   .     A
C784   C789    1.405   .     A
C785   H790    1.083   .     S
C785   C786    1.397   .     A
C786   H791    1.082   .     S
C787   C788    1.397   .     A
C787   H792    1.080   .     S
C787   C888    1.399   .     S
C788   H793    1.082   .     S
C788   C891    1.397   .     S
C789   H794    1.083   .     S
C795   C800    1.404   .     A
C795   C898    1.404   .     S
C796   H801    1.076   .     S
C796   C797    1.399   .     A
C797   C798    1.397   .     A
C797   H802    1.083   .     S
C798   C799    1.397   .     A
C798   H803    1.082   .     S
C799   H804    1.082   .     S
C800   H805    1.083   .     S
C800   C901    1.399   .     S
C806   C807    1.404   .     A
C807   H812    1.083   .     S
C808   C809    1.397   .     A
C808   H813    1.082   .     S
C808   C909    1.399   .     S
C809   C810    1.397   .     A
C809   H814    1.082   .     S
C810   H815    1.083   .     S
C810   C811    1.399   .     A
C811   H816    1.076   .     S
C811   C908    1.404   .     S
C817   C828    1.423   .     S
C817   O867    1.287   .     A
C817   O865    1.295   .     A
C818   O866    1.295   .     A
C818   C827    1.423   .     S
C818   O868    1.287   .     A
C819   C848    1.416   .     A
C819   H857    1.074   .     S
C819   C821    1.384   .     A
C820   C822    1.384   .     A
C820   H858    1.074   .     S
C820   C847    1.416   .     A
C821   H849    1.084   .     S
C821   C1763   1.388   1_554 S
C822   H850    1.084   .     S
C822   C1764   1.388   .     S
C823   C875    1.477   .     S
C823   C828    1.407   .     A
C823   C213    1.373   1_565 S
C824   C886    1.477   .     S
C824   C827    1.407   .     A
C825   H859    1.076   .     S
C825   C827    1.391   .     A
C826   C828    1.391   .     A
C826   H860    1.076   .     S
C826   C212    1.373   1_565 S
C829   C897    1.470   .     S
C829   N864    1.388   .     A
C829   C627    1.417   1_655 S
C830   C908    1.470   .     S
C830   N863    1.388   .     A
C831   N863    1.351   .     A
C831   H861    1.083   .     S
C832   N864    1.351   .     A
C832   H862    1.083   .     S
C832   C626    1.417   1_655 S
C833   O871    1.294   .     A
C833   O869    1.303   .     A
C833   C835    1.450   .     S
C834   O872    1.294   .     A
C834   C836    1.450   .     S
C834   O870    1.303   .     A
C835   C839    1.392   .     A
C835   C841    1.392   .     A
C836   C842    1.392   .     A
C836   C840    1.392   .     A
C837   C845    1.402   .     A
C837   H855    1.084   .     S
C837   C839    1.389   .     A
C838   C840    1.389   .     A
C838   H856    1.084   .     S
C838   C846    1.402   .     A
C839   H854    1.080   .     S
C840   H853    1.080   .     S
C841   C843    1.407   .     A
C841   H852    1.076   .     S
C842   C844    1.407   .     A
C842   H851    1.076   .     S
C843   C845    1.420   .     A
C843   C847    1.425   .     A
C844   C848    1.425   .     A
C844   C846    1.420   .     A
C845   C1739   1.388   .     S
C846   C1740   1.388   1_554 S
C847   C1766   1.425   .     S
C848   C1765   1.425   1_554 S
N863   Zn873   2.029   .     S
N864   Zn874   2.029   .     S
O865   Zn873   2.003   .     S
O866   Zn874   2.003   .     S
O867   Zn874   2.000   .     S
O868   Zn873   2.000   .     S
O869   Zn873   1.943   .     S
O870   Zn874   1.943   .     S
O871   Zn874   1.864   .     S
O872   Zn873   1.864   .     S
C875   C880    1.402   .     A
C875   C876    1.405   .     A
C876   H881    1.083   .     S
C876   C673    1.397   1_655 S
C877   H882    1.082   .     S
C877   C878    1.397   .     A
C878   H883    1.080   .     S
C879   H884    1.082   .     S
C879   C880    1.397   .     A
C879   C674    1.399   1_655 S
C880   H885    1.083   .     S
C886   C887    1.402   .     A
C886   C891    1.405   .     A
C887   H892    1.083   .     S
C887   C888    1.397   .     A
C888   H893    1.082   .     S
C889   C890    1.397   .     A
C889   H894    1.080   .     S
C889   C684    1.399   1_655 S
C890   H895    1.082   .     S
C890   C687    1.397   1_655 S
C891   H896    1.083   .     S
C897   C902    1.404   .     A
C897   C694    1.404   1_655 S
C898   H903    1.076   .     S
C898   C899    1.399   .     A
C899   C900    1.397   .     A
C899   H904    1.083   .     S
C900   C901    1.397   .     A
C900   H905    1.082   .     S
C901   H906    1.082   .     S
C902   H907    1.083   .     S
C902   C697    1.399   1_655 S
C908   C909    1.404   .     A
C909   H914    1.083   .     S
C910   C911    1.397   .     A
C910   H915    1.082   .     S
C910   C705    1.399   1_655 S
C911   C912    1.397   .     A
C911   H916    1.082   .     S
C912   H917    1.083   .     S
C912   C913    1.399   .     A
C913   H918    1.076   .     S
C913   C704    1.404   1_655 S
C919   C930    1.423   .     S
C919   O969    1.287   .     A
C919   O967    1.295   .     A
C920   O968    1.295   .     A
C920   C929    1.423   .     S
C920   O970    1.287   .     A
C921   C950    1.416   .     A
C921   H959    1.074   .     S
C921   C923    1.384   .     A
C922   C924    1.384   .     A
C922   H960    1.074   .     S
C922   C949    1.416   .     A
C923   H951    1.084   .     S
C924   H952    1.084   .     S
C924   C30     1.388   1_556 S
C925   C977    1.477   .     S
C925   C930    1.407   .     A
C925   C1233   1.373   .     S
C926   C988    1.477   .     S
C926   C929    1.407   .     A
C926   C1540   1.373   1_545 S
C927   H961    1.076   .     S
C927   C929    1.391   .     A
C927   C1537   1.373   1_545 S
C928   C930    1.391   .     A
C928   H962    1.076   .     S
C928   C1232   1.373   .     S
C931   C999    1.470   .     S
C931   N966    1.388   .     A
C931   C1035   1.417   .     S
C932   C1010   1.470   .     S
C932   N965    1.388   .     A
C932   C1138   1.417   1_455 S
C933   N965    1.351   .     A
C933   H963    1.083   .     S
C933   C1135   1.417   1_455 S
C934   N966    1.351   .     A
C934   H964    1.083   .     S
C934   C1034   1.417   .     S
C935   O973    1.294   .     A
C935   O971    1.303   .     A
C935   C937    1.450   .     S
C936   O974    1.294   .     A
C936   C938    1.450   .     S
C936   O972    1.303   .     A
C937   C941    1.392   .     A
C937   C943    1.392   .     A
C938   C944    1.392   .     A
C938   C942    1.392   .     A
C939   C947    1.402   .     A
C939   H957    1.084   .     S
C939   C941    1.389   .     A
C940   C942    1.389   .     A
C940   H958    1.084   .     S
C940   C948    1.402   .     A
C941   H956    1.080   .     S
C942   H955    1.080   .     S
C943   C945    1.407   .     A
C943   H954    1.076   .     S
C944   C946    1.407   .     A
C944   H953    1.076   .     S
C945   C947    1.420   .     A
C945   C949    1.425   .     A
C946   C950    1.425   .     A
C946   C948    1.420   .     A
C947   C5      1.388   1_556 S
C949   C32     1.425   1_556 S
N965   Zn975   2.029   .     S
N966   Zn976   2.029   .     S
O967   Zn975   2.003   .     S
O968   Zn976   2.003   .     S
O969   Zn976   2.000   .     S
O970   Zn975   2.000   .     S
O971   Zn975   1.943   .     S
O972   Zn976   1.943   .     S
O973   Zn976   1.864   .     S
O974   Zn975   1.864   .     S
C977   C982    1.402   .     A
C977   C978    1.405   .     A
C978   H983    1.083   .     S
C978   C1081   1.397   .     S
C979   H984    1.082   .     S
C979   C980    1.397   .     A
C979   C1182   1.397   1_455 S
C980   H985    1.080   .     S
C980   C1185   1.399   1_455 S
C981   H986    1.082   .     S
C981   C982    1.397   .     A
C981   C1082   1.399   .     S
C982   H987    1.083   .     S
C988   C989    1.402   .     A
C988   C993    1.405   .     A
C989   H994    1.083   .     S
C989   C990    1.397   .     A
C990   H995    1.082   .     S
C990   C1195   1.399   1_455 S
C991   C992    1.397   .     A
C991   H996    1.080   .     S
C991   C1092   1.399   .     S
C992   H997    1.082   .     S
C992   C1095   1.397   .     S
C993   H998    1.083   .     S
C993   C1196   1.397   1_455 S
C999   C1004   1.404   .     A
C999   C1102   1.404   .     S
C1000  H1005   1.076   .     S
C1000  C1001   1.399   .     A
C1000  C1203   1.404   1_455 S
C1001  C1002   1.397   .     A
C1001  H1006   1.083   .     S
C1002  C1003   1.397   .     A
C1002  H1007   1.082   .     S
C1003  H1008   1.082   .     S
C1003  C1208   1.399   1_455 S
C1004  H1009   1.083   .     S
C1004  C1105   1.399   .     S
C1010  C1011   1.404   .     A
C1010  C1219   1.404   1_455 S
C1011  H1016   1.083   .     S
C1011  C1216   1.399   1_455 S
C1012  C1013   1.397   .     A
C1012  H1017   1.082   .     S
C1012  C1113   1.399   .     S
C1013  C1014   1.397   .     A
C1013  H1018   1.082   .     S
C1014  H1019   1.083   .     S
C1014  C1015   1.399   .     A
C1015  H1020   1.076   .     S
C1015  C1112   1.404   .     S
C1021  C1032   1.423   .     S
C1021  O1071   1.287   .     A
C1021  O1069   1.295   .     A
C1022  O1070   1.295   .     A
C1022  C1031   1.423   .     S
C1022  O1072   1.287   .     A
C1023  C1052   1.416   .     A
C1023  H1061   1.074   .     S
C1023  C1025   1.384   .     A
C1024  C1026   1.384   .     A
C1024  H1062   1.074   .     S
C1024  C1051   1.416   .     A
C1025  H1053   1.084   .     S
C1026  H1054   1.084   .     S
C1026  C132    1.388   1_556 S
C1027  C1079   1.477   .     S
C1027  C1032   1.407   .     A
C1027  C1335   1.373   .     S
C1028  C1090   1.477   .     S
C1028  C1031   1.407   .     A
C1028  C1642   1.373   1_545 S
C1029  H1063   1.076   .     S
C1029  C1031   1.391   .     A
C1029  C1639   1.373   1_545 S
C1030  C1032   1.391   .     A
C1030  H1064   1.076   .     S
C1030  C1334   1.373   .     S
C1033  C1101   1.470   .     S
C1033  N1068   1.388   .     A
C1033  C1137   1.417   .     S
C1034  C1112   1.470   .     S
C1034  N1067   1.388   .     A
C1035  N1067   1.351   .     A
C1035  H1065   1.083   .     S
C1036  N1068   1.351   .     A
C1036  H1066   1.083   .     S
C1036  C1136   1.417   .     S
C1037  O1075   1.294   .     A
C1037  O1073   1.303   .     A
C1037  C1039   1.450   .     S
C1038  O1076   1.294   .     A
C1038  C1040   1.450   .     S
C1038  O1074   1.303   .     A
C1039  C1043   1.392   .     A
C1039  C1045   1.392   .     A
C1040  C1046   1.392   .     A
C1040  C1044   1.392   .     A
C1041  C1049   1.402   .     A
C1041  H1059   1.084   .     S
C1041  C1043   1.389   .     A
C1042  C1044   1.389   .     A
C1042  H1060   1.084   .     S
C1042  C1050   1.402   .     A
C1043  H1058   1.080   .     S
C1044  H1057   1.080   .     S
C1045  C1047   1.407   .     A
C1045  H1056   1.076   .     S
C1046  C1048   1.407   .     A
C1046  H1055   1.076   .     S
C1047  C1049   1.420   .     A
C1047  C1051   1.425   .     A
C1048  C1052   1.425   .     A
C1048  C1050   1.420   .     A
C1049  C107    1.388   1_556 S
C1051  C134    1.425   1_556 S
N1067  Zn1077  2.029   .     S
N1068  Zn1078  2.029   .     S
O1069  Zn1077  2.003   .     S
O1070  Zn1078  2.003   .     S
O1071  Zn1078  2.000   .     S
O1072  Zn1077  2.000   .     S
O1073  Zn1077  1.943   .     S
O1074  Zn1078  1.943   .     S
O1075  Zn1078  1.864   .     S
O1076  Zn1077  1.864   .     S
C1079  C1084   1.402   .     A
C1079  C1080   1.405   .     A
C1080  H1085   1.083   .     S
C1080  C1183   1.397   .     S
C1081  H1086   1.082   .     S
C1081  C1082   1.397   .     A
C1082  H1087   1.080   .     S
C1083  H1088   1.082   .     S
C1083  C1084   1.397   .     A
C1083  C1184   1.399   .     S
C1084  H1089   1.083   .     S
C1090  C1091   1.402   .     A
C1090  C1095   1.405   .     A
C1091  H1096   1.083   .     S
C1091  C1092   1.397   .     A
C1092  H1097   1.082   .     S
C1093  C1094   1.397   .     A
C1093  H1098   1.080   .     S
C1093  C1194   1.399   .     S
C1094  H1099   1.082   .     S
C1094  C1197   1.397   .     S
C1095  H1100   1.083   .     S
C1101  C1106   1.404   .     A
C1101  C1204   1.404   .     S
C1102  H1107   1.076   .     S
C1102  C1103   1.399   .     A
C1103  C1104   1.397   .     A
C1103  H1108   1.083   .     S
C1104  C1105   1.397   .     A
C1104  H1109   1.082   .     S
C1105  H1110   1.082   .     S
C1106  H1111   1.083   .     S
C1106  C1207   1.399   .     S
C1112  C1113   1.404   .     A
C1113  H1118   1.083   .     S
C1114  C1115   1.397   .     A
C1114  H1119   1.082   .     S
C1114  C1215   1.399   .     S
C1115  C1116   1.397   .     A
C1115  H1120   1.082   .     S
C1116  H1121   1.083   .     S
C1116  C1117   1.399   .     A
C1117  H1122   1.076   .     S
C1117  C1214   1.404   .     S
C1123  C1134   1.423   .     S
C1123  O1173   1.287   .     A
C1123  O1171   1.295   .     A
C1124  O1172   1.295   .     A
C1124  C1133   1.423   .     S
C1124  O1174   1.287   .     A
C1125  C1154   1.416   .     A
C1125  H1163   1.074   .     S
C1125  C1127   1.384   .     A
C1126  C1128   1.384   .     A
C1126  H1164   1.074   .     S
C1126  C1153   1.416   .     A
C1127  H1155   1.084   .     S
C1128  H1156   1.084   .     S
C1128  C234    1.388   1_556 S
C1129  C1181   1.477   .     S
C1129  C1134   1.407   .     A
C1129  C1437   1.373   .     S
C1130  C1192   1.477   .     S
C1130  C1133   1.407   .     A
C1130  C1744   1.373   1_545 S
C1131  H1165   1.076   .     S
C1131  C1133   1.391   .     A
C1131  C1741   1.373   1_545 S
C1132  C1134   1.391   .     A
C1132  H1166   1.076   .     S
C1132  C1436   1.373   .     S
C1135  C1203   1.470   .     S
C1135  N1170   1.388   .     A
C1135  C933    1.417   1_655 S
C1136  C1214   1.470   .     S
C1136  N1169   1.388   .     A
C1137  N1169   1.351   .     A
C1137  H1167   1.083   .     S
C1138  N1170   1.351   .     A
C1138  H1168   1.083   .     S
C1138  C932    1.417   1_655 S
C1139  O1177   1.294   .     A
C1139  O1175   1.303   .     A
C1139  C1141   1.450   .     S
C1140  O1178   1.294   .     A
C1140  C1142   1.450   .     S
C1140  O1176   1.303   .     A
C1141  C1145   1.392   .     A
C1141  C1147   1.392   .     A
C1142  C1148   1.392   .     A
C1142  C1146   1.392   .     A
C1143  C1151   1.402   .     A
C1143  H1161   1.084   .     S
C1143  C1145   1.389   .     A
C1144  C1146   1.389   .     A
C1144  H1162   1.084   .     S
C1144  C1152   1.402   .     A
C1145  H1160   1.080   .     S
C1146  H1159   1.080   .     S
C1147  C1149   1.407   .     A
C1147  H1158   1.076   .     S
C1148  C1150   1.407   .     A
C1148  H1157   1.076   .     S
C1149  C1151   1.420   .     A
C1149  C1153   1.425   .     A
C1150  C1154   1.425   .     A
C1150  C1152   1.420   .     A
C1151  C209    1.388   1_556 S
C1153  C236    1.425   1_556 S
N1169  Zn1179  2.029   .     S
N1170  Zn1180  2.029   .     S
O1171  Zn1179  2.003   .     S
O1172  Zn1180  2.003   .     S
O1173  Zn1180  2.000   .     S
O1174  Zn1179  2.000   .     S
O1175  Zn1179  1.943   .     S
O1176  Zn1180  1.943   .     S
O1177  Zn1180  1.864   .     S
O1178  Zn1179  1.864   .     S
C1181  C1186   1.402   .     A
C1181  C1182   1.405   .     A
C1182  H1187   1.083   .     S
C1182  C979    1.397   1_655 S
C1183  H1188   1.082   .     S
C1183  C1184   1.397   .     A
C1184  H1189   1.080   .     S
C1185  H1190   1.082   .     S
C1185  C1186   1.397   .     A
C1185  C980    1.399   1_655 S
C1186  H1191   1.083   .     S
C1192  C1193   1.402   .     A
C1192  C1197   1.405   .     A
C1193  H1198   1.083   .     S
C1193  C1194   1.397   .     A
C1194  H1199   1.082   .     S
C1195  C1196   1.397   .     A
C1195  H1200   1.080   .     S
C1195  C990    1.399   1_655 S
C1196  H1201   1.082   .     S
C1196  C993    1.397   1_655 S
C1197  H1202   1.083   .     S
C1203  C1208   1.404   .     A
C1203  C1000   1.404   1_655 S
C1204  H1209   1.076   .     S
C1204  C1205   1.399   .     A
C1205  C1206   1.397   .     A
C1205  H1210   1.083   .     S
C1206  C1207   1.397   .     A
C1206  H1211   1.082   .     S
C1207  H1212   1.082   .     S
C1208  H1213   1.083   .     S
C1208  C1003   1.399   1_655 S
C1214  C1215   1.404   .     A
C1215  H1220   1.083   .     S
C1216  C1217   1.397   .     A
C1216  H1221   1.082   .     S
C1216  C1011   1.399   1_655 S
C1217  C1218   1.397   .     A
C1217  H1222   1.082   .     S
C1218  H1223   1.083   .     S
C1218  C1219   1.399   .     A
C1219  H1224   1.076   .     S
C1219  C1010   1.404   1_655 S
C1225  C1236   1.423   .     S
C1225  O1275   1.287   .     A
C1225  O1273   1.295   .     A
C1226  O1274   1.295   .     A
C1226  C1235   1.423   .     S
C1226  O1276   1.287   .     A
C1227  C1256   1.416   .     A
C1227  H1265   1.074   .     S
C1227  C1229   1.384   .     A
C1228  C1230   1.384   .     A
C1228  H1266   1.074   .     S
C1228  C1255   1.416   .     A
C1229  H1257   1.084   .     S
C1230  H1258   1.084   .     S
C1230  C336    1.388   1_556 S
C1231  C1283   1.477   .     S
C1231  C1236   1.407   .     A
C1231  C1539   1.373   .     S
C1232  C1294   1.477   .     S
C1232  C1235   1.407   .     A
C1233  H1267   1.076   .     S
C1233  C1235   1.391   .     A
C1234  C1236   1.391   .     A
C1234  H1268   1.076   .     S
C1234  C1538   1.373   .     S
C1237  C1305   1.470   .     S
C1237  N1272   1.388   .     A
C1237  C1341   1.417   .     S
C1238  C1316   1.470   .     S
C1238  N1271   1.388   .     A
C1238  C1444   1.417   1_455 S
C1239  N1271   1.351   .     A
C1239  H1269   1.083   .     S
C1239  C1441   1.417   1_455 S
C1240  N1272   1.351   .     A
C1240  H1270   1.083   .     S
C1240  C1340   1.417   .     S
C1241  O1279   1.294   .     A
C1241  O1277   1.303   .     A
C1241  C1243   1.450   .     S
C1242  O1280   1.294   .     A
C1242  C1244   1.450   .     S
C1242  O1278   1.303   .     A
C1243  C1247   1.392   .     A
C1243  C1249   1.392   .     A
C1244  C1250   1.392   .     A
C1244  C1248   1.392   .     A
C1245  C1253   1.402   .     A
C1245  H1263   1.084   .     S
C1245  C1247   1.389   .     A
C1246  C1248   1.389   .     A
C1246  H1264   1.084   .     S
C1246  C1254   1.402   .     A
C1247  H1262   1.080   .     S
C1248  H1261   1.080   .     S
C1249  C1251   1.407   .     A
C1249  H1260   1.076   .     S
C1250  C1252   1.407   .     A
C1250  H1259   1.076   .     S
C1251  C1253   1.420   .     A
C1251  C1255   1.425   .     A
C1252  C1256   1.425   .     A
C1252  C1254   1.420   .     A
C1253  C311    1.388   1_556 S
C1255  C338    1.425   1_556 S
N1271  Zn1281  2.029   .     S
N1272  Zn1282  2.029   .     S
O1273  Zn1281  2.003   .     S
O1274  Zn1282  2.003   .     S
O1275  Zn1282  2.000   .     S
O1276  Zn1281  2.000   .     S
O1277  Zn1281  1.943   .     S
O1278  Zn1282  1.943   .     S
O1279  Zn1282  1.864   .     S
O1280  Zn1281  1.864   .     S
C1283  C1288   1.402   .     A
C1283  C1284   1.405   .     A
C1284  H1289   1.083   .     S
C1284  C1387   1.397   .     S
C1285  H1290   1.082   .     S
C1285  C1286   1.397   .     A
C1285  C1488   1.397   1_455 S
C1286  H1291   1.080   .     S
C1286  C1491   1.399   1_455 S
C1287  H1292   1.082   .     S
C1287  C1288   1.397   .     A
C1287  C1388   1.399   .     S
C1288  H1293   1.083   .     S
C1294  C1295   1.402   .     A
C1294  C1299   1.405   .     A
C1295  H1300   1.083   .     S
C1295  C1296   1.397   .     A
C1296  H1301   1.082   .     S
C1296  C1501   1.399   1_455 S
C1297  C1298   1.397   .     A
C1297  H1302   1.080   .     S
C1297  C1398   1.399   .     S
C1298  H1303   1.082   .     S
C1298  C1401   1.397   .     S
C1299  H1304   1.083   .     S
C1299  C1502   1.397   1_455 S
C1305  C1310   1.404   .     A
C1305  C1408   1.404   .     S
C1306  H1311   1.076   .     S
C1306  C1307   1.399   .     A
C1306  C1509   1.404   1_455 S
C1307  C1308   1.397   .     A
C1307  H1312   1.083   .     S
C1308  C1309   1.397   .     A
C1308  H1313   1.082   .     S
C1309  H1314   1.082   .     S
C1309  C1514   1.399   1_455 S
C1310  H1315   1.083   .     S
C1310  C1411   1.399   .     S
C1316  C1317   1.404   .     A
C1316  C1525   1.404   1_455 S
C1317  H1322   1.083   .     S
C1317  C1522   1.399   1_455 S
C1318  C1319   1.397   .     A
C1318  H1323   1.082   .     S
C1318  C1419   1.399   .     S
C1319  C1320   1.397   .     A
C1319  H1324   1.082   .     S
C1320  H1325   1.083   .     S
C1320  C1321   1.399   .     A
C1321  H1326   1.076   .     S
C1321  C1418   1.404   .     S
C1327  C1338   1.423   .     S
C1327  O1377   1.287   .     A
C1327  O1375   1.295   .     A
C1328  O1376   1.295   .     A
C1328  C1337   1.423   .     S
C1328  O1378   1.287   .     A
C1329  C1358   1.416   .     A
C1329  H1367   1.074   .     S
C1329  C1331   1.384   .     A
C1330  C1332   1.384   .     A
C1330  H1368   1.074   .     S
C1330  C1357   1.416   .     A
C1331  H1359   1.084   .     S
C1332  H1360   1.084   .     S
C1332  C438    1.388   1_556 S
C1333  C1385   1.477   .     S
C1333  C1338   1.407   .     A
C1333  C1641   1.373   .     S
C1334  C1396   1.477   .     S
C1334  C1337   1.407   .     A
C1335  H1369   1.076   .     S
C1335  C1337   1.391   .     A
C1336  C1338   1.391   .     A
C1336  H1370   1.076   .     S
C1336  C1640   1.373   .     S
C1339  C1407   1.470   .     S
C1339  N1374   1.388   .     A
C1339  C1443   1.417   .     S
C1340  C1418   1.470   .     S
C1340  N1373   1.388   .     A
C1341  N1373   1.351   .     A
C1341  H1371   1.083   .     S
C1342  N1374   1.351   .     A
C1342  H1372   1.083   .     S
C1342  C1442   1.417   .     S
C1343  O1381   1.294   .     A
C1343  O1379   1.303   .     A
C1343  C1345   1.450   .     S
C1344  O1382   1.294   .     A
C1344  C1346   1.450   .     S
C1344  O1380   1.303   .     A
C1345  C1349   1.392   .     A
C1345  C1351   1.392   .     A
C1346  C1352   1.392   .     A
C1346  C1350   1.392   .     A
C1347  C1355   1.402   .     A
C1347  H1365   1.084   .     S
C1347  C1349   1.389   .     A
C1348  C1350   1.389   .     A
C1348  H1366   1.084   .     S
C1348  C1356   1.402   .     A
C1349  H1364   1.080   .     S
C1350  H1363   1.080   .     S
C1351  C1353   1.407   .     A
C1351  H1362   1.076   .     S
C1352  C1354   1.407   .     A
C1352  H1361   1.076   .     S
C1353  C1355   1.420   .     A
C1353  C1357   1.425   .     A
C1354  C1358   1.425   .     A
C1354  C1356   1.420   .     A
C1355  C413    1.388   1_556 S
C1357  C440    1.425   1_556 S
N1373  Zn1383  2.029   .     S
N1374  Zn1384  2.029   .     S
O1375  Zn1383  2.003   .     S
O1376  Zn1384  2.003   .     S
O1377  Zn1384  2.000   .     S
O1378  Zn1383  2.000   .     S
O1379  Zn1383  1.943   .     S
O1380  Zn1384  1.943   .     S
O1381  Zn1384  1.864   .     S
O1382  Zn1383  1.864   .     S
C1385  C1390   1.402   .     A
C1385  C1386   1.405   .     A
C1386  H1391   1.083   .     S
C1386  C1489   1.397   .     S
C1387  H1392   1.082   .     S
C1387  C1388   1.397   .     A
C1388  H1393   1.080   .     S
C1389  H1394   1.082   .     S
C1389  C1390   1.397   .     A
C1389  C1490   1.399   .     S
C1390  H1395   1.083   .     S
C1396  C1397   1.402   .     A
C1396  C1401   1.405   .     A
C1397  H1402   1.083   .     S
C1397  C1398   1.397   .     A
C1398  H1403   1.082   .     S
C1399  C1400   1.397   .     A
C1399  H1404   1.080   .     S
C1399  C1500   1.399   .     S
C1400  H1405   1.082   .     S
C1400  C1503   1.397   .     S
C1401  H1406   1.083   .     S
C1407  C1412   1.404   .     A
C1407  C1510   1.404   .     S
C1408  H1413   1.076   .     S
C1408  C1409   1.399   .     A
C1409  C1410   1.397   .     A
C1409  H1414   1.083   .     S
C1410  C1411   1.397   .     A
C1410  H1415   1.082   .     S
C1411  H1416   1.082   .     S
C1412  H1417   1.083   .     S
C1412  C1513   1.399   .     S
C1418  C1419   1.404   .     A
C1419  H1424   1.083   .     S
C1420  C1421   1.397   .     A
C1420  H1425   1.082   .     S
C1420  C1521   1.399   .     S
C1421  C1422   1.397   .     A
C1421  H1426   1.082   .     S
C1422  H1427   1.083   .     S
C1422  C1423   1.399   .     A
C1423  H1428   1.076   .     S
C1423  C1520   1.404   .     S
C1429  C1440   1.423   .     S
C1429  O1479   1.287   .     A
C1429  O1477   1.295   .     A
C1430  O1478   1.295   .     A
C1430  C1439   1.423   .     S
C1430  O1480   1.287   .     A
C1431  C1460   1.416   .     A
C1431  H1469   1.074   .     S
C1431  C1433   1.384   .     A
C1432  C1434   1.384   .     A
C1432  H1470   1.074   .     S
C1432  C1459   1.416   .     A
C1433  H1461   1.084   .     S
C1434  H1462   1.084   .     S
C1434  C540    1.388   1_556 S
C1435  C1487   1.477   .     S
C1435  C1440   1.407   .     A
C1435  C1743   1.373   .     S
C1436  C1498   1.477   .     S
C1436  C1439   1.407   .     A
C1437  H1471   1.076   .     S
C1437  C1439   1.391   .     A
C1438  C1440   1.391   .     A
C1438  H1472   1.076   .     S
C1438  C1742   1.373   .     S
C1441  C1509   1.470   .     S
C1441  N1476   1.388   .     A
C1441  C1239   1.417   1_655 S
C1442  C1520   1.470   .     S
C1442  N1475   1.388   .     A
C1443  N1475   1.351   .     A
C1443  H1473   1.083   .     S
C1444  N1476   1.351   .     A
C1444  H1474   1.083   .     S
C1444  C1238   1.417   1_655 S
C1445  O1483   1.294   .     A
C1445  O1481   1.303   .     A
C1445  C1447   1.450   .     S
C1446  O1484   1.294   .     A
C1446  C1448   1.450   .     S
C1446  O1482   1.303   .     A
C1447  C1451   1.392   .     A
C1447  C1453   1.392   .     A
C1448  C1454   1.392   .     A
C1448  C1452   1.392   .     A
C1449  C1457   1.402   .     A
C1449  H1467   1.084   .     S
C1449  C1451   1.389   .     A
C1450  C1452   1.389   .     A
C1450  H1468   1.084   .     S
C1450  C1458   1.402   .     A
C1451  H1466   1.080   .     S
C1452  H1465   1.080   .     S
C1453  C1455   1.407   .     A
C1453  H1464   1.076   .     S
C1454  C1456   1.407   .     A
C1454  H1463   1.076   .     S
C1455  C1457   1.420   .     A
C1455  C1459   1.425   .     A
C1456  C1460   1.425   .     A
C1456  C1458   1.420   .     A
C1457  C515    1.388   1_556 S
C1459  C542    1.425   1_556 S
N1475  Zn1485  2.029   .     S
N1476  Zn1486  2.029   .     S
O1477  Zn1485  2.003   .     S
O1478  Zn1486  2.003   .     S
O1479  Zn1486  2.000   .     S
O1480  Zn1485  2.000   .     S
O1481  Zn1485  1.943   .     S
O1482  Zn1486  1.943   .     S
O1483  Zn1486  1.864   .     S
O1484  Zn1485  1.864   .     S
C1487  C1492   1.402   .     A
C1487  C1488   1.405   .     A
C1488  H1493   1.083   .     S
C1488  C1285   1.397   1_655 S
C1489  H1494   1.082   .     S
C1489  C1490   1.397   .     A
C1490  H1495   1.080   .     S
C1491  H1496   1.082   .     S
C1491  C1492   1.397   .     A
C1491  C1286   1.399   1_655 S
C1492  H1497   1.083   .     S
C1498  C1499   1.402   .     A
C1498  C1503   1.405   .     A
C1499  H1504   1.083   .     S
C1499  C1500   1.397   .     A
C1500  H1505   1.082   .     S
C1501  C1502   1.397   .     A
C1501  H1506   1.080   .     S
C1501  C1296   1.399   1_655 S
C1502  H1507   1.082   .     S
C1502  C1299   1.397   1_655 S
C1503  H1508   1.083   .     S
C1509  C1514   1.404   .     A
C1509  C1306   1.404   1_655 S
C1510  H1515   1.076   .     S
C1510  C1511   1.399   .     A
C1511  C1512   1.397   .     A
C1511  H1516   1.083   .     S
C1512  C1513   1.397   .     A
C1512  H1517   1.082   .     S
C1513  H1518   1.082   .     S
C1514  H1519   1.083   .     S
C1514  C1309   1.399   1_655 S
C1520  C1521   1.404   .     A
C1521  H1526   1.083   .     S
C1522  C1523   1.397   .     A
C1522  H1527   1.082   .     S
C1522  C1317   1.399   1_655 S
C1523  C1524   1.397   .     A
C1523  H1528   1.082   .     S
C1524  H1529   1.083   .     S
C1524  C1525   1.399   .     A
C1525  H1530   1.076   .     S
C1525  C1316   1.404   1_655 S
C1531  C1542   1.423   .     S
C1531  O1581   1.287   .     A
C1531  O1579   1.295   .     A
C1532  O1580   1.295   .     A
C1532  C1541   1.423   .     S
C1532  O1582   1.287   .     A
C1533  C1562   1.416   .     A
C1533  H1571   1.074   .     S
C1533  C1535   1.384   .     A
C1534  C1536   1.384   .     A
C1534  H1572   1.074   .     S
C1534  C1561   1.416   .     A
C1535  H1563   1.084   .     S
C1536  H1564   1.084   .     S
C1536  C642    1.388   1_556 S
C1537  C1589   1.477   .     S
C1537  C1542   1.407   .     A
C1537  C927    1.373   1_565 S
C1538  C1600   1.477   .     S
C1538  C1541   1.407   .     A
C1539  H1573   1.076   .     S
C1539  C1541   1.391   .     A
C1540  C1542   1.391   .     A
C1540  H1574   1.076   .     S
C1540  C926    1.373   1_565 S
C1543  C1611   1.470   .     S
C1543  N1578   1.388   .     A
C1543  C1647   1.417   .     S
C1544  C1622   1.470   .     S
C1544  N1577   1.388   .     A
C1544  C1750   1.417   1_455 S
C1545  N1577   1.351   .     A
C1545  H1575   1.083   .     S
C1545  C1747   1.417   1_455 S
C1546  N1578   1.351   .     A
C1546  H1576   1.083   .     S
C1546  C1646   1.417   .     S
C1547  O1585   1.294   .     A
C1547  O1583   1.303   .     A
C1547  C1549   1.450   .     S
C1548  O1586   1.294   .     A
C1548  C1550   1.450   .     S
C1548  O1584   1.303   .     A
C1549  C1553   1.392   .     A
C1549  C1555   1.392   .     A
C1550  C1556   1.392   .     A
C1550  C1554   1.392   .     A
C1551  C1559   1.402   .     A
C1551  H1569   1.084   .     S
C1551  C1553   1.389   .     A
C1552  C1554   1.389   .     A
C1552  H1570   1.084   .     S
C1552  C1560   1.402   .     A
C1553  H1568   1.080   .     S
C1554  H1567   1.080   .     S
C1555  C1557   1.407   .     A
C1555  H1566   1.076   .     S
C1556  C1558   1.407   .     A
C1556  H1565   1.076   .     S
C1557  C1559   1.420   .     A
C1557  C1561   1.425   .     A
C1558  C1562   1.425   .     A
C1558  C1560   1.420   .     A
C1559  C617    1.388   1_556 S
C1561  C644    1.425   1_556 S
N1577  Zn1587  2.029   .     S
N1578  Zn1588  2.029   .     S
O1579  Zn1587  2.003   .     S
O1580  Zn1588  2.003   .     S
O1581  Zn1588  2.000   .     S
O1582  Zn1587  2.000   .     S
O1583  Zn1587  1.943   .     S
O1584  Zn1588  1.943   .     S
O1585  Zn1588  1.864   .     S
O1586  Zn1587  1.864   .     S
C1589  C1594   1.402   .     A
C1589  C1590   1.405   .     A
C1590  H1595   1.083   .     S
C1590  C1693   1.397   .     S
C1591  H1596   1.082   .     S
C1591  C1592   1.397   .     A
C1591  C1794   1.397   1_455 S
C1592  H1597   1.080   .     S
C1592  C1797   1.399   1_455 S
C1593  H1598   1.082   .     S
C1593  C1594   1.397   .     A
C1593  C1694   1.399   .     S
C1594  H1599   1.083   .     S
C1600  C1601   1.402   .     A
C1600  C1605   1.405   .     A
C1601  H1606   1.083   .     S
C1601  C1602   1.397   .     A
C1602  H1607   1.082   .     S
C1602  C1807   1.399   1_455 S
C1603  C1604   1.397   .     A
C1603  H1608   1.080   .     S
C1603  C1704   1.399   .     S
C1604  H1609   1.082   .     S
C1604  C1707   1.397   .     S
C1605  H1610   1.083   .     S
C1605  C1808   1.397   1_455 S
C1611  C1616   1.404   .     A
C1611  C1714   1.404   .     S
C1612  H1617   1.076   .     S
C1612  C1613   1.399   .     A
C1612  C1815   1.404   1_455 S
C1613  C1614   1.397   .     A
C1613  H1618   1.083   .     S
C1614  C1615   1.397   .     A
C1614  H1619   1.082   .     S
C1615  H1620   1.082   .     S
C1615  C1820   1.399   1_455 S
C1616  H1621   1.083   .     S
C1616  C1717   1.399   .     S
C1622  C1623   1.404   .     A
C1622  C1831   1.404   1_455 S
C1623  H1628   1.083   .     S
C1623  C1828   1.399   1_455 S
C1624  C1625   1.397   .     A
C1624  H1629   1.082   .     S
C1624  C1725   1.399   .     S
C1625  C1626   1.397   .     A
C1625  H1630   1.082   .     S
C1626  H1631   1.083   .     S
C1626  C1627   1.399   .     A
C1627  H1632   1.076   .     S
C1627  C1724   1.404   .     S
C1633  C1644   1.423   .     S
C1633  O1683   1.287   .     A
C1633  O1681   1.295   .     A
C1634  O1682   1.295   .     A
C1634  C1643   1.423   .     S
C1634  O1684   1.287   .     A
C1635  C1664   1.416   .     A
C1635  H1673   1.074   .     S
C1635  C1637   1.384   .     A
C1636  C1638   1.384   .     A
C1636  H1674   1.074   .     S
C1636  C1663   1.416   .     A
C1637  H1665   1.084   .     S
C1638  H1666   1.084   .     S
C1638  C744    1.388   1_556 S
C1639  C1691   1.477   .     S
C1639  C1644   1.407   .     A
C1639  C1029   1.373   1_565 S
C1640  C1702   1.477   .     S
C1640  C1643   1.407   .     A
C1641  H1675   1.076   .     S
C1641  C1643   1.391   .     A
C1642  C1644   1.391   .     A
C1642  H1676   1.076   .     S
C1642  C1028   1.373   1_565 S
C1645  C1713   1.470   .     S
C1645  N1680   1.388   .     A
C1645  C1749   1.417   .     S
C1646  C1724   1.470   .     S
C1646  N1679   1.388   .     A
C1647  N1679   1.351   .     A
C1647  H1677   1.083   .     S
C1648  N1680   1.351   .     A
C1648  H1678   1.083   .     S
C1648  C1748   1.417   .     S
C1649  O1687   1.294   .     A
C1649  O1685   1.303   .     A
C1649  C1651   1.450   .     S
C1650  O1688   1.294   .     A
C1650  C1652   1.450   .     S
C1650  O1686   1.303   .     A
C1651  C1655   1.392   .     A
C1651  C1657   1.392   .     A
C1652  C1658   1.392   .     A
C1652  C1656   1.392   .     A
C1653  C1661   1.402   .     A
C1653  H1671   1.084   .     S
C1653  C1655   1.389   .     A
C1654  C1656   1.389   .     A
C1654  H1672   1.084   .     S
C1654  C1662   1.402   .     A
C1655  H1670   1.080   .     S
C1656  H1669   1.080   .     S
C1657  C1659   1.407   .     A
C1657  H1668   1.076   .     S
C1658  C1660   1.407   .     A
C1658  H1667   1.076   .     S
C1659  C1661   1.420   .     A
C1659  C1663   1.425   .     A
C1660  C1664   1.425   .     A
C1660  C1662   1.420   .     A
C1661  C719    1.388   1_556 S
C1663  C746    1.425   1_556 S
N1679  Zn1689  2.029   .     S
N1680  Zn1690  2.029   .     S
O1681  Zn1689  2.003   .     S
O1682  Zn1690  2.003   .     S
O1683  Zn1690  2.000   .     S
O1684  Zn1689  2.000   .     S
O1685  Zn1689  1.943   .     S
O1686  Zn1690  1.943   .     S
O1687  Zn1690  1.864   .     S
O1688  Zn1689  1.864   .     S
C1691  C1696   1.402   .     A
C1691  C1692   1.405   .     A
C1692  H1697   1.083   .     S
C1692  C1795   1.397   .     S
C1693  H1698   1.082   .     S
C1693  C1694   1.397   .     A
C1694  H1699   1.080   .     S
C1695  H1700   1.082   .     S
C1695  C1696   1.397   .     A
C1695  C1796   1.399   .     S
C1696  H1701   1.083   .     S
C1702  C1703   1.402   .     A
C1702  C1707   1.405   .     A
C1703  H1708   1.083   .     S
C1703  C1704   1.397   .     A
C1704  H1709   1.082   .     S
C1705  C1706   1.397   .     A
C1705  H1710   1.080   .     S
C1705  C1806   1.399   .     S
C1706  H1711   1.082   .     S
C1706  C1809   1.397   .     S
C1707  H1712   1.083   .     S
C1713  C1718   1.404   .     A
C1713  C1816   1.404   .     S
C1714  H1719   1.076   .     S
C1714  C1715   1.399   .     A
C1715  C1716   1.397   .     A
C1715  H1720   1.083   .     S
C1716  C1717   1.397   .     A
C1716  H1721   1.082   .     S
C1717  H1722   1.082   .     S
C1718  H1723   1.083   .     S
C1718  C1819   1.399   .     S
C1724  C1725   1.404   .     A
C1725  H1730   1.083   .     S
C1726  C1727   1.397   .     A
C1726  H1731   1.082   .     S
C1726  C1827   1.399   .     S
C1727  C1728   1.397   .     A
C1727  H1732   1.082   .     S
C1728  H1733   1.083   .     S
C1728  C1729   1.399   .     A
C1729  H1734   1.076   .     S
C1729  C1826   1.404   .     S
C1735  C1746   1.423   .     S
C1735  O1785   1.287   .     A
C1735  O1783   1.295   .     A
C1736  O1784   1.295   .     A
C1736  C1745   1.423   .     S
C1736  O1786   1.287   .     A
C1737  C1766   1.416   .     A
C1737  H1775   1.074   .     S
C1737  C1739   1.384   .     A
C1738  C1740   1.384   .     A
C1738  H1776   1.074   .     S
C1738  C1765   1.416   .     A
C1739  H1767   1.084   .     S
C1740  H1768   1.084   .     S
C1740  C846    1.388   1_556 S
C1741  C1793   1.477   .     S
C1741  C1746   1.407   .     A
C1741  C1131   1.373   1_565 S
C1742  C1804   1.477   .     S
C1742  C1745   1.407   .     A
C1743  H1777   1.076   .     S
C1743  C1745   1.391   .     A
C1744  C1746   1.391   .     A
C1744  H1778   1.076   .     S
C1744  C1130   1.373   1_565 S
C1747  C1815   1.470   .     S
C1747  N1782   1.388   .     A
C1747  C1545   1.417   1_655 S
C1748  C1826   1.470   .     S
C1748  N1781   1.388   .     A
C1749  N1781   1.351   .     A
C1749  H1779   1.083   .     S
C1750  N1782   1.351   .     A
C1750  H1780   1.083   .     S
C1750  C1544   1.417   1_655 S
C1751  O1789   1.294   .     A
C1751  O1787   1.303   .     A
C1751  C1753   1.450   .     S
C1752  O1790   1.294   .     A
C1752  C1754   1.450   .     S
C1752  O1788   1.303   .     A
C1753  C1757   1.392   .     A
C1753  C1759   1.392   .     A
C1754  C1760   1.392   .     A
C1754  C1758   1.392   .     A
C1755  C1763   1.402   .     A
C1755  H1773   1.084   .     S
C1755  C1757   1.389   .     A
C1756  C1758   1.389   .     A
C1756  H1774   1.084   .     S
C1756  C1764   1.402   .     A
C1757  H1772   1.080   .     S
C1758  H1771   1.080   .     S
C1759  C1761   1.407   .     A
C1759  H1770   1.076   .     S
C1760  C1762   1.407   .     A
C1760  H1769   1.076   .     S
C1761  C1763   1.420   .     A
C1761  C1765   1.425   .     A
C1762  C1766   1.425   .     A
C1762  C1764   1.420   .     A
C1763  C821    1.388   1_556 S
C1765  C848    1.425   1_556 S
N1781  Zn1791  2.029   .     S
N1782  Zn1792  2.029   .     S
O1783  Zn1791  2.003   .     S
O1784  Zn1792  2.003   .     S
O1785  Zn1792  2.000   .     S
O1786  Zn1791  2.000   .     S
O1787  Zn1791  1.943   .     S
O1788  Zn1792  1.943   .     S
O1789  Zn1792  1.864   .     S
O1790  Zn1791  1.864   .     S
C1793  C1798   1.402   .     A
C1793  C1794   1.405   .     A
C1794  H1799   1.083   .     S
C1794  C1591   1.397   1_655 S
C1795  H1800   1.082   .     S
C1795  C1796   1.397   .     A
C1796  H1801   1.080   .     S
C1797  H1802   1.082   .     S
C1797  C1798   1.397   .     A
C1797  C1592   1.399   1_655 S
C1798  H1803   1.083   .     S
C1804  C1805   1.402   .     A
C1804  C1809   1.405   .     A
C1805  H1810   1.083   .     S
C1805  C1806   1.397   .     A
C1806  H1811   1.082   .     S
C1807  C1808   1.397   .     A
C1807  H1812   1.080   .     S
C1807  C1602   1.399   1_655 S
C1808  H1813   1.082   .     S
C1808  C1605   1.397   1_655 S
C1809  H1814   1.083   .     S
C1815  C1820   1.404   .     A
C1815  C1612   1.404   1_655 S
C1816  H1821   1.076   .     S
C1816  C1817   1.399   .     A
C1817  C1818   1.397   .     A
C1817  H1822   1.083   .     S
C1818  C1819   1.397   .     A
C1818  H1823   1.082   .     S
C1819  H1824   1.082   .     S
C1820  H1825   1.083   .     S
C1820  C1615   1.399   1_655 S
C1826  C1827   1.404   .     A
C1827  H1832   1.083   .     S
C1828  C1829   1.397   .     A
C1828  H1833   1.082   .     S
C1828  C1623   1.399   1_655 S
C1829  C1830   1.397   .     A
C1829  H1834   1.082   .     S
C1830  H1835   1.083   .     S
C1830  C1831   1.399   .     A
C1831  H1836   1.076   .     S
C1831  C1622   1.404   1_655 S
