data_str_m3_o2_o10_pcu_sym.87
_audit_creation_date              2020-01-03
_audit_creation_method            'Materials Studio'
_symmetry_space_group_name_H-M    'P1'
_symmetry_Int_Tables_number       1
_symmetry_cell_setting            triclinic
loop_
_symmetry_equiv_pos_as_xyz
  x,y,z
_cell_length_a                    25.7167
_cell_length_b                    29.8798
_cell_length_c                    28.5257
_cell_angle_alpha                 89.0026
_cell_angle_beta                  98.1712
_cell_angle_gamma                 91.1822
loop_
_atom_site_label
_atom_site_type_symbol
_atom_site_fract_x
_atom_site_fract_y
_atom_site_fract_z
_atom_site_U_iso_or_equiv
_atom_site_adp_type
_atom_site_occupancy
C1     C     0.16712   0.16395   0.25043   0.00000  Uiso   1.00
C2     C     0.14532   0.21564   0.44611   0.00000  Uiso   1.00
C3     C     0.16289   0.25214   0.02619   0.00000  Uiso   1.00
C4     C     0.16381   0.25302   0.47290   0.00000  Uiso   1.00
C5     C     0.06715   0.24905   0.23774   0.00000  Uiso   1.00
C6     C     0.26621   0.24966   0.26235   0.00000  Uiso   1.00
C7     C     0.01221   0.24639   0.23135   0.00000  Uiso   1.00
C8     C     0.32122   0.24977   0.26910   0.00000  Uiso   1.00
C9     C     0.19381   0.04487   0.28585   0.00000  Uiso   1.00
C10    C     0.12596   0.45219   0.27010   0.00000  Uiso   1.00
C11    C     0.19595   0.09116   0.28744   0.00000  Uiso   1.00
C12    C     0.16582   0.33593   0.24956   0.00000  Uiso   1.00
C13    C     0.12604   0.40586   0.27096   0.00000  Uiso   1.00
C14    C     0.16618   0.11582   0.25092   0.00000  Uiso   1.00
C15    C     0.16336   0.38379   0.24852   0.00000  Uiso   1.00
C16    C     0.13477   0.09419   0.21363   0.00000  Uiso   1.00
C17    C     0.19940   0.40773   0.22507   0.00000  Uiso   1.00
C18    C     0.13265   0.04801   0.21223   0.00000  Uiso   1.00
C19    C     0.19950   0.45396   0.22455   0.00000  Uiso   1.00
C20    C     0.16262   0.02369   0.24835   0.00000  Uiso   1.00
C21    C     0.16261   0.47585   0.24721   0.00000  Uiso   1.00
C22    C     0.23048   0.11232   0.32544   0.00000  Uiso   1.00
C23    C     0.12099   0.23313   0.04815   0.00000  Uiso   1.00
C24    C     0.08686   0.38181   0.29369   0.00000  Uiso   1.00
C25    C     0.07222   0.21827   0.02100   0.00000  Uiso   1.00
C26    C     0.19808   0.33208   0.47011   0.00000  Uiso   1.00
C27    C     0.18352   0.28979   0.44780   0.00000  Uiso   1.00
C28    C     0.12499   0.23100   0.09813   0.00000  Uiso   1.00
C29    C     0.18626   0.28658   0.39879   0.00000  Uiso   1.00
C30    C     0.20527   0.27171   0.10540   0.00000  Uiso   1.00
C31    C     0.14376   0.21574   0.39683   0.00000  Uiso   1.00
C32    C     0.20557   0.27023   0.05641   0.00000  Uiso   1.00
H33    H     0.32527   0.24167   0.19564   0.00000  Uiso   1.00
H34    H     0.13047   0.18637   0.46308   0.00000  Uiso   1.00
H35    H     0.00825   0.25366   0.30498   0.00000  Uiso   1.00
H36    H     0.21691   0.02516   0.31328   0.00000  Uiso   1.00
H37    H     0.09761   0.46997   0.28720   0.00000  Uiso   1.00
H38    H     0.11158   0.11325   0.18577   0.00000  Uiso   1.00
H39    H     0.22819   0.39048   0.20818   0.00000  Uiso   1.00
H40    H     0.09343   0.21580   0.11463   0.00000  Uiso   1.00
H41    H     0.20220   0.31437   0.38018   0.00000  Uiso   1.00
H42    H     0.23896   0.28469   0.04209   0.00000  Uiso   1.00
I43    I     0.08427   0.01692   0.15495   0.00000  Uiso   1.00
I44    I     0.25654   0.48876   0.19009   0.00000  Uiso   1.00
I45    I     0.26198   0.31572   0.14181   0.00000  Uiso   1.00
I46    I     0.09667   0.16399   0.36185   0.00000  Uiso   1.00
N47    N     0.16667   0.24999   0.12623   0.00000  Uiso   1.00
N48    N     0.16667   0.25001   0.37376   0.00000  Uiso   1.00
N49    N     0.25812   0.12928   0.35585   0.00000  Uiso   1.00
N50    N     0.05550   0.36253   0.31182   0.00000  Uiso   1.00
N51    N     0.03303   0.20642   0.49931   0.00000  Uiso   1.00
N52    N     0.20971   0.36605   0.48790   0.00000  Uiso   1.00
O53    O     0.16667   0.18454   0.28974   0.00000  Uiso   1.00
O54    O     0.16666   0.31547   0.21026   0.00000  Uiso   1.00
O55    O     0.16667   0.18453   0.21026   0.00000  Uiso   1.00
O56    O     0.16666   0.31547   0.28974   0.00000  Uiso   1.00
O57    O     0.09058   0.25000   0.28045   0.00000  Uiso   1.00
O58    O     0.24275   0.25000   0.21955   0.00000  Uiso   1.00
O59    O     0.09058   0.24999   0.20096   0.00000  Uiso   1.00
O60    O     0.24275   0.25001   0.29903   0.00000  Uiso   1.00
Zn61   Zn    0.16667   0.25001   0.30307   0.00000  Uiso   1.00
Zn62   Zn    0.16667   0.25000   0.19693   0.00000  Uiso   1.00
C63    C     0.50045   0.16395   0.25043   0.00000  Uiso   1.00
C64    C     0.47865   0.21564   0.44611   0.00000  Uiso   1.00
C65    C     0.49623   0.25214   0.02619   0.00000  Uiso   1.00
C66    C     0.49715   0.25302   0.47290   0.00000  Uiso   1.00
C67    C     0.40048   0.24905   0.23774   0.00000  Uiso   1.00
C68    C     0.59954   0.24966   0.26235   0.00000  Uiso   1.00
C69    C     0.34555   0.24639   0.23135   0.00000  Uiso   1.00
C70    C     0.65456   0.24977   0.26910   0.00000  Uiso   1.00
C71    C     0.52714   0.04487   0.28585   0.00000  Uiso   1.00
C72    C     0.45929   0.45219   0.27010   0.00000  Uiso   1.00
C73    C     0.52929   0.09116   0.28744   0.00000  Uiso   1.00
C74    C     0.49915   0.33593   0.24956   0.00000  Uiso   1.00
C75    C     0.45938   0.40586   0.27096   0.00000  Uiso   1.00
C76    C     0.49951   0.11582   0.25092   0.00000  Uiso   1.00
C77    C     0.49669   0.38379   0.24852   0.00000  Uiso   1.00
C78    C     0.46810   0.09419   0.21363   0.00000  Uiso   1.00
C79    C     0.53273   0.40773   0.22507   0.00000  Uiso   1.00
C80    C     0.46598   0.04801   0.21223   0.00000  Uiso   1.00
C81    C     0.53284   0.45396   0.22455   0.00000  Uiso   1.00
C82    C     0.49595   0.02369   0.24835   0.00000  Uiso   1.00
C83    C     0.49594   0.47585   0.24721   0.00000  Uiso   1.00
C84    C     0.56381   0.11232   0.32544   0.00000  Uiso   1.00
C85    C     0.45433   0.23313   0.04815   0.00000  Uiso   1.00
C86    C     0.42020   0.38181   0.29369   0.00000  Uiso   1.00
C87    C     0.40555   0.21827   0.02100   0.00000  Uiso   1.00
C88    C     0.53142   0.33208   0.47011   0.00000  Uiso   1.00
C89    C     0.51685   0.28979   0.44780   0.00000  Uiso   1.00
C90    C     0.45833   0.23100   0.09813   0.00000  Uiso   1.00
C91    C     0.51960   0.28658   0.39879   0.00000  Uiso   1.00
C92    C     0.53860   0.27171   0.10540   0.00000  Uiso   1.00
C93    C     0.47709   0.21574   0.39683   0.00000  Uiso   1.00
C94    C     0.53891   0.27023   0.05641   0.00000  Uiso   1.00
H95    H     0.65860   0.24167   0.19564   0.00000  Uiso   1.00
H96    H     0.46381   0.18637   0.46308   0.00000  Uiso   1.00
H97    H     0.34158   0.25366   0.30498   0.00000  Uiso   1.00
H98    H     0.55024   0.02516   0.31328   0.00000  Uiso   1.00
H99    H     0.43094   0.46997   0.28720   0.00000  Uiso   1.00
H100   H     0.44492   0.11325   0.18577   0.00000  Uiso   1.00
H101   H     0.56153   0.39048   0.20818   0.00000  Uiso   1.00
H102   H     0.42677   0.21580   0.11463   0.00000  Uiso   1.00
H103   H     0.53553   0.31437   0.38018   0.00000  Uiso   1.00
H104   H     0.57229   0.28469   0.04209   0.00000  Uiso   1.00
I105   I     0.41761   0.01692   0.15495   0.00000  Uiso   1.00
I106   I     0.58987   0.48876   0.19009   0.00000  Uiso   1.00
I107   I     0.59532   0.31572   0.14181   0.00000  Uiso   1.00
I108   I     0.43000   0.16399   0.36185   0.00000  Uiso   1.00
N109   N     0.50000   0.24999   0.12623   0.00000  Uiso   1.00
N110   N     0.50000   0.25001   0.37376   0.00000  Uiso   1.00
N111   N     0.59146   0.12928   0.35585   0.00000  Uiso   1.00
N112   N     0.38883   0.36253   0.31182   0.00000  Uiso   1.00
N113   N     0.36636   0.20642   0.49931   0.00000  Uiso   1.00
N114   N     0.54305   0.36605   0.48790   0.00000  Uiso   1.00
O115   O     0.50000   0.18454   0.28974   0.00000  Uiso   1.00
O116   O     0.50000   0.31547   0.21026   0.00000  Uiso   1.00
O117   O     0.50000   0.18453   0.21026   0.00000  Uiso   1.00
O118   O     0.50000   0.31547   0.28974   0.00000  Uiso   1.00
O119   O     0.42392   0.25000   0.28045   0.00000  Uiso   1.00
O120   O     0.57608   0.25000   0.21955   0.00000  Uiso   1.00
O121   O     0.42392   0.24999   0.20096   0.00000  Uiso   1.00
O122   O     0.57608   0.25001   0.29903   0.00000  Uiso   1.00
Zn123  Zn    0.50000   0.25001   0.30307   0.00000  Uiso   1.00
Zn124  Zn    0.50000   0.25000   0.19693   0.00000  Uiso   1.00
C125   C     0.83378   0.16395   0.25043   0.00000  Uiso   1.00
C126   C     0.81198   0.21564   0.44611   0.00000  Uiso   1.00
C127   C     0.82956   0.25214   0.02619   0.00000  Uiso   1.00
C128   C     0.83048   0.25302   0.47290   0.00000  Uiso   1.00
C129   C     0.73382   0.24905   0.23774   0.00000  Uiso   1.00
C130   C     0.93287   0.24966   0.26235   0.00000  Uiso   1.00
C131   C     0.67888   0.24639   0.23135   0.00000  Uiso   1.00
C132   C     0.98789   0.24977   0.26910   0.00000  Uiso   1.00
C133   C     0.86047   0.04487   0.28585   0.00000  Uiso   1.00
C134   C     0.79263   0.45219   0.27010   0.00000  Uiso   1.00
C135   C     0.86262   0.09116   0.28744   0.00000  Uiso   1.00
C136   C     0.83248   0.33593   0.24956   0.00000  Uiso   1.00
C137   C     0.79271   0.40586   0.27096   0.00000  Uiso   1.00
C138   C     0.83284   0.11582   0.25092   0.00000  Uiso   1.00
C139   C     0.83002   0.38379   0.24852   0.00000  Uiso   1.00
C140   C     0.80143   0.09419   0.21363   0.00000  Uiso   1.00
C141   C     0.86606   0.40773   0.22507   0.00000  Uiso   1.00
C142   C     0.79931   0.04801   0.21223   0.00000  Uiso   1.00
C143   C     0.86617   0.45396   0.22455   0.00000  Uiso   1.00
C144   C     0.82929   0.02369   0.24835   0.00000  Uiso   1.00
C145   C     0.82927   0.47585   0.24721   0.00000  Uiso   1.00
C146   C     0.89714   0.11232   0.32544   0.00000  Uiso   1.00
C147   C     0.78766   0.23313   0.04815   0.00000  Uiso   1.00
C148   C     0.75353   0.38181   0.29369   0.00000  Uiso   1.00
C149   C     0.73889   0.21827   0.02100   0.00000  Uiso   1.00
C150   C     0.86475   0.33208   0.47011   0.00000  Uiso   1.00
C151   C     0.85018   0.28979   0.44780   0.00000  Uiso   1.00
C152   C     0.79166   0.23100   0.09813   0.00000  Uiso   1.00
C153   C     0.85293   0.28658   0.39879   0.00000  Uiso   1.00
C154   C     0.87193   0.27171   0.10540   0.00000  Uiso   1.00
C155   C     0.81042   0.21574   0.39683   0.00000  Uiso   1.00
C156   C     0.87224   0.27023   0.05641   0.00000  Uiso   1.00
H157   H     0.99193   0.24167   0.19564   0.00000  Uiso   1.00
H158   H     0.79714   0.18637   0.46308   0.00000  Uiso   1.00
H159   H     0.67491   0.25366   0.30498   0.00000  Uiso   1.00
H160   H     0.88357   0.02516   0.31328   0.00000  Uiso   1.00
H161   H     0.76427   0.46997   0.28720   0.00000  Uiso   1.00
H162   H     0.77825   0.11325   0.18577   0.00000  Uiso   1.00
H163   H     0.89486   0.39048   0.20818   0.00000  Uiso   1.00
H164   H     0.76010   0.21580   0.11463   0.00000  Uiso   1.00
H165   H     0.86887   0.31437   0.38018   0.00000  Uiso   1.00
H166   H     0.90563   0.28469   0.04209   0.00000  Uiso   1.00
I167   I     0.75094   0.01692   0.15495   0.00000  Uiso   1.00
I168   I     0.92320   0.48876   0.19009   0.00000  Uiso   1.00
I169   I     0.92865   0.31572   0.14181   0.00000  Uiso   1.00
I170   I     0.76333   0.16399   0.36185   0.00000  Uiso   1.00
N171   N     0.83333   0.24999   0.12623   0.00000  Uiso   1.00
N172   N     0.83333   0.25001   0.37376   0.00000  Uiso   1.00
N173   N     0.92479   0.12928   0.35585   0.00000  Uiso   1.00
N174   N     0.72216   0.36253   0.31182   0.00000  Uiso   1.00
N175   N     0.69969   0.20642   0.49931   0.00000  Uiso   1.00
N176   N     0.87638   0.36605   0.48790   0.00000  Uiso   1.00
O177   O     0.83334   0.18454   0.28974   0.00000  Uiso   1.00
O178   O     0.83333   0.31547   0.21026   0.00000  Uiso   1.00
O179   O     0.83334   0.18453   0.21026   0.00000  Uiso   1.00
O180   O     0.83333   0.31547   0.28974   0.00000  Uiso   1.00
O181   O     0.75725   0.25000   0.28045   0.00000  Uiso   1.00
O182   O     0.90942   0.25000   0.21955   0.00000  Uiso   1.00
O183   O     0.75725   0.24999   0.20096   0.00000  Uiso   1.00
O184   O     0.90942   0.25001   0.29903   0.00000  Uiso   1.00
Zn185  Zn    0.83333   0.25001   0.30307   0.00000  Uiso   1.00
Zn186  Zn    0.83333   0.25000   0.19693   0.00000  Uiso   1.00
C187   C     0.16712   0.66395   0.25043   0.00000  Uiso   1.00
C188   C     0.14532   0.71564   0.44611   0.00000  Uiso   1.00
C189   C     0.16289   0.75214   0.02619   0.00000  Uiso   1.00
C190   C     0.16381   0.75302   0.47290   0.00000  Uiso   1.00
C191   C     0.06715   0.74905   0.23774   0.00000  Uiso   1.00
C192   C     0.26621   0.74966   0.26235   0.00000  Uiso   1.00
C193   C     0.01221   0.74639   0.23135   0.00000  Uiso   1.00
C194   C     0.32122   0.74977   0.26910   0.00000  Uiso   1.00
C195   C     0.19381   0.54487   0.28585   0.00000  Uiso   1.00
C196   C     0.12596   0.95219   0.27010   0.00000  Uiso   1.00
C197   C     0.19595   0.59116   0.28744   0.00000  Uiso   1.00
C198   C     0.16582   0.83593   0.24956   0.00000  Uiso   1.00
C199   C     0.12604   0.90586   0.27096   0.00000  Uiso   1.00
C200   C     0.16618   0.61582   0.25092   0.00000  Uiso   1.00
C201   C     0.16336   0.88379   0.24852   0.00000  Uiso   1.00
C202   C     0.13477   0.59419   0.21363   0.00000  Uiso   1.00
C203   C     0.19940   0.90773   0.22507   0.00000  Uiso   1.00
C204   C     0.13265   0.54801   0.21223   0.00000  Uiso   1.00
C205   C     0.19950   0.95396   0.22455   0.00000  Uiso   1.00
C206   C     0.16262   0.52369   0.24835   0.00000  Uiso   1.00
C207   C     0.16261   0.97585   0.24721   0.00000  Uiso   1.00
C208   C     0.23048   0.61232   0.32544   0.00000  Uiso   1.00
C209   C     0.12099   0.73313   0.04815   0.00000  Uiso   1.00
C210   C     0.08686   0.88181   0.29369   0.00000  Uiso   1.00
C211   C     0.07222   0.71827   0.02100   0.00000  Uiso   1.00
C212   C     0.19808   0.83208   0.47011   0.00000  Uiso   1.00
C213   C     0.18352   0.78979   0.44780   0.00000  Uiso   1.00
C214   C     0.12499   0.73100   0.09813   0.00000  Uiso   1.00
C215   C     0.18626   0.78658   0.39879   0.00000  Uiso   1.00
C216   C     0.20527   0.77171   0.10540   0.00000  Uiso   1.00
C217   C     0.14376   0.71574   0.39683   0.00000  Uiso   1.00
C218   C     0.20557   0.77023   0.05641   0.00000  Uiso   1.00
H219   H     0.32527   0.74167   0.19564   0.00000  Uiso   1.00
H220   H     0.13047   0.68637   0.46308   0.00000  Uiso   1.00
H221   H     0.00825   0.75366   0.30498   0.00000  Uiso   1.00
H222   H     0.21691   0.52516   0.31328   0.00000  Uiso   1.00
H223   H     0.09761   0.96997   0.28720   0.00000  Uiso   1.00
H224   H     0.11158   0.61325   0.18577   0.00000  Uiso   1.00
H225   H     0.22819   0.89048   0.20818   0.00000  Uiso   1.00
H226   H     0.09343   0.71580   0.11463   0.00000  Uiso   1.00
H227   H     0.20220   0.81437   0.38018   0.00000  Uiso   1.00
H228   H     0.23896   0.78469   0.04209   0.00000  Uiso   1.00
I229   I     0.08427   0.51692   0.15495   0.00000  Uiso   1.00
I230   I     0.25654   0.98876   0.19009   0.00000  Uiso   1.00
I231   I     0.26198   0.81572   0.14181   0.00000  Uiso   1.00
I232   I     0.09667   0.66399   0.36185   0.00000  Uiso   1.00
N233   N     0.16667   0.74999   0.12623   0.00000  Uiso   1.00
N234   N     0.16667   0.75001   0.37376   0.00000  Uiso   1.00
N235   N     0.25812   0.62928   0.35585   0.00000  Uiso   1.00
N236   N     0.05550   0.86253   0.31182   0.00000  Uiso   1.00
N237   N     0.03303   0.70642   0.49931   0.00000  Uiso   1.00
N238   N     0.20971   0.86605   0.48790   0.00000  Uiso   1.00
O239   O     0.16667   0.68454   0.28974   0.00000  Uiso   1.00
O240   O     0.16666   0.81547   0.21026   0.00000  Uiso   1.00
O241   O     0.16667   0.68453   0.21026   0.00000  Uiso   1.00
O242   O     0.16666   0.81547   0.28974   0.00000  Uiso   1.00
O243   O     0.09058   0.75000   0.28045   0.00000  Uiso   1.00
O244   O     0.24275   0.75000   0.21955   0.00000  Uiso   1.00
O245   O     0.09058   0.74999   0.20096   0.00000  Uiso   1.00
O246   O     0.24275   0.75001   0.29903   0.00000  Uiso   1.00
Zn247  Zn    0.16667   0.75001   0.30307   0.00000  Uiso   1.00
Zn248  Zn    0.16667   0.75000   0.19693   0.00000  Uiso   1.00
C249   C     0.50045   0.66395   0.25043   0.00000  Uiso   1.00
C250   C     0.47865   0.71564   0.44611   0.00000  Uiso   1.00
C251   C     0.49623   0.75214   0.02619   0.00000  Uiso   1.00
C252   C     0.49715   0.75302   0.47290   0.00000  Uiso   1.00
C253   C     0.40048   0.74905   0.23774   0.00000  Uiso   1.00
C254   C     0.59954   0.74966   0.26235   0.00000  Uiso   1.00
C255   C     0.34555   0.74639   0.23135   0.00000  Uiso   1.00
C256   C     0.65456   0.74977   0.26910   0.00000  Uiso   1.00
C257   C     0.52714   0.54487   0.28585   0.00000  Uiso   1.00
C258   C     0.45929   0.95219   0.27010   0.00000  Uiso   1.00
C259   C     0.52929   0.59116   0.28744   0.00000  Uiso   1.00
C260   C     0.49915   0.83593   0.24956   0.00000  Uiso   1.00
C261   C     0.45938   0.90586   0.27096   0.00000  Uiso   1.00
C262   C     0.49951   0.61582   0.25092   0.00000  Uiso   1.00
C263   C     0.49669   0.88379   0.24852   0.00000  Uiso   1.00
C264   C     0.46810   0.59419   0.21363   0.00000  Uiso   1.00
C265   C     0.53273   0.90773   0.22507   0.00000  Uiso   1.00
C266   C     0.46598   0.54801   0.21223   0.00000  Uiso   1.00
C267   C     0.53284   0.95396   0.22455   0.00000  Uiso   1.00
C268   C     0.49595   0.52369   0.24835   0.00000  Uiso   1.00
C269   C     0.49594   0.97585   0.24721   0.00000  Uiso   1.00
C270   C     0.56381   0.61232   0.32544   0.00000  Uiso   1.00
C271   C     0.45433   0.73313   0.04815   0.00000  Uiso   1.00
C272   C     0.42020   0.88181   0.29369   0.00000  Uiso   1.00
C273   C     0.40555   0.71827   0.02100   0.00000  Uiso   1.00
C274   C     0.53142   0.83208   0.47011   0.00000  Uiso   1.00
C275   C     0.51685   0.78979   0.44780   0.00000  Uiso   1.00
C276   C     0.45833   0.73100   0.09813   0.00000  Uiso   1.00
C277   C     0.51960   0.78658   0.39879   0.00000  Uiso   1.00
C278   C     0.53860   0.77171   0.10540   0.00000  Uiso   1.00
C279   C     0.47709   0.71574   0.39683   0.00000  Uiso   1.00
C280   C     0.53891   0.77023   0.05641   0.00000  Uiso   1.00
H281   H     0.65860   0.74167   0.19564   0.00000  Uiso   1.00
H282   H     0.46381   0.68637   0.46308   0.00000  Uiso   1.00
H283   H     0.34158   0.75366   0.30498   0.00000  Uiso   1.00
H284   H     0.55024   0.52516   0.31328   0.00000  Uiso   1.00
H285   H     0.43094   0.96997   0.28720   0.00000  Uiso   1.00
H286   H     0.44492   0.61325   0.18577   0.00000  Uiso   1.00
H287   H     0.56153   0.89048   0.20818   0.00000  Uiso   1.00
H288   H     0.42677   0.71580   0.11463   0.00000  Uiso   1.00
H289   H     0.53553   0.81437   0.38018   0.00000  Uiso   1.00
H290   H     0.57229   0.78469   0.04209   0.00000  Uiso   1.00
I291   I     0.41761   0.51692   0.15495   0.00000  Uiso   1.00
I292   I     0.58987   0.98876   0.19009   0.00000  Uiso   1.00
I293   I     0.59532   0.81572   0.14181   0.00000  Uiso   1.00
I294   I     0.43000   0.66399   0.36185   0.00000  Uiso   1.00
N295   N     0.50000   0.74999   0.12623   0.00000  Uiso   1.00
N296   N     0.50000   0.75001   0.37376   0.00000  Uiso   1.00
N297   N     0.59146   0.62928   0.35585   0.00000  Uiso   1.00
N298   N     0.38883   0.86253   0.31182   0.00000  Uiso   1.00
N299   N     0.36636   0.70642   0.49931   0.00000  Uiso   1.00
N300   N     0.54305   0.86605   0.48790   0.00000  Uiso   1.00
O301   O     0.50000   0.68454   0.28974   0.00000  Uiso   1.00
O302   O     0.50000   0.81547   0.21026   0.00000  Uiso   1.00
O303   O     0.50000   0.68453   0.21026   0.00000  Uiso   1.00
O304   O     0.50000   0.81547   0.28974   0.00000  Uiso   1.00
O305   O     0.42392   0.75000   0.28045   0.00000  Uiso   1.00
O306   O     0.57608   0.75000   0.21955   0.00000  Uiso   1.00
O307   O     0.42392   0.74999   0.20096   0.00000  Uiso   1.00
O308   O     0.57608   0.75001   0.29903   0.00000  Uiso   1.00
Zn309  Zn    0.50000   0.75001   0.30307   0.00000  Uiso   1.00
Zn310  Zn    0.50000   0.75000   0.19693   0.00000  Uiso   1.00
C311   C     0.83378   0.66395   0.25043   0.00000  Uiso   1.00
C312   C     0.81198   0.71564   0.44611   0.00000  Uiso   1.00
C313   C     0.82956   0.75214   0.02619   0.00000  Uiso   1.00
C314   C     0.83048   0.75302   0.47290   0.00000  Uiso   1.00
C315   C     0.73382   0.74905   0.23774   0.00000  Uiso   1.00
C316   C     0.93287   0.74966   0.26235   0.00000  Uiso   1.00
C317   C     0.67888   0.74639   0.23135   0.00000  Uiso   1.00
C318   C     0.98789   0.74977   0.26910   0.00000  Uiso   1.00
C319   C     0.86047   0.54487   0.28585   0.00000  Uiso   1.00
C320   C     0.79263   0.95219   0.27010   0.00000  Uiso   1.00
C321   C     0.86262   0.59116   0.28744   0.00000  Uiso   1.00
C322   C     0.83248   0.83593   0.24956   0.00000  Uiso   1.00
C323   C     0.79271   0.90586   0.27096   0.00000  Uiso   1.00
C324   C     0.83284   0.61582   0.25092   0.00000  Uiso   1.00
C325   C     0.83002   0.88379   0.24852   0.00000  Uiso   1.00
C326   C     0.80143   0.59419   0.21363   0.00000  Uiso   1.00
C327   C     0.86606   0.90773   0.22507   0.00000  Uiso   1.00
C328   C     0.79931   0.54801   0.21223   0.00000  Uiso   1.00
C329   C     0.86617   0.95396   0.22455   0.00000  Uiso   1.00
C330   C     0.82929   0.52369   0.24835   0.00000  Uiso   1.00
C331   C     0.82927   0.97585   0.24721   0.00000  Uiso   1.00
C332   C     0.89714   0.61232   0.32544   0.00000  Uiso   1.00
C333   C     0.78766   0.73313   0.04815   0.00000  Uiso   1.00
C334   C     0.75353   0.88181   0.29369   0.00000  Uiso   1.00
C335   C     0.73889   0.71827   0.02100   0.00000  Uiso   1.00
C336   C     0.86475   0.83208   0.47011   0.00000  Uiso   1.00
C337   C     0.85018   0.78979   0.44780   0.00000  Uiso   1.00
C338   C     0.79166   0.73100   0.09813   0.00000  Uiso   1.00
C339   C     0.85293   0.78658   0.39879   0.00000  Uiso   1.00
C340   C     0.87193   0.77171   0.10540   0.00000  Uiso   1.00
C341   C     0.81042   0.71574   0.39683   0.00000  Uiso   1.00
C342   C     0.87224   0.77023   0.05641   0.00000  Uiso   1.00
H343   H     0.99193   0.74167   0.19564   0.00000  Uiso   1.00
H344   H     0.79714   0.68637   0.46308   0.00000  Uiso   1.00
H345   H     0.67491   0.75366   0.30498   0.00000  Uiso   1.00
H346   H     0.88357   0.52516   0.31328   0.00000  Uiso   1.00
H347   H     0.76427   0.96997   0.28720   0.00000  Uiso   1.00
H348   H     0.77825   0.61325   0.18577   0.00000  Uiso   1.00
H349   H     0.89486   0.89048   0.20818   0.00000  Uiso   1.00
H350   H     0.76010   0.71580   0.11463   0.00000  Uiso   1.00
H351   H     0.86887   0.81437   0.38018   0.00000  Uiso   1.00
H352   H     0.90563   0.78469   0.04209   0.00000  Uiso   1.00
I353   I     0.75094   0.51692   0.15495   0.00000  Uiso   1.00
I354   I     0.92320   0.98876   0.19009   0.00000  Uiso   1.00
I355   I     0.92865   0.81572   0.14181   0.00000  Uiso   1.00
I356   I     0.76333   0.66399   0.36185   0.00000  Uiso   1.00
N357   N     0.83333   0.74999   0.12623   0.00000  Uiso   1.00
N358   N     0.83333   0.75001   0.37376   0.00000  Uiso   1.00
N359   N     0.92479   0.62928   0.35585   0.00000  Uiso   1.00
N360   N     0.72216   0.86253   0.31182   0.00000  Uiso   1.00
N361   N     0.69969   0.70642   0.49931   0.00000  Uiso   1.00
N362   N     0.87638   0.86605   0.48790   0.00000  Uiso   1.00
O363   O     0.83334   0.68454   0.28974   0.00000  Uiso   1.00
O364   O     0.83333   0.81547   0.21026   0.00000  Uiso   1.00
O365   O     0.83334   0.68453   0.21026   0.00000  Uiso   1.00
O366   O     0.83333   0.81547   0.28974   0.00000  Uiso   1.00
O367   O     0.75725   0.75000   0.28045   0.00000  Uiso   1.00
O368   O     0.90942   0.75000   0.21955   0.00000  Uiso   1.00
O369   O     0.75725   0.74999   0.20096   0.00000  Uiso   1.00
O370   O     0.90942   0.75001   0.29903   0.00000  Uiso   1.00
Zn371  Zn    0.83333   0.75001   0.30307   0.00000  Uiso   1.00
Zn372  Zn    0.83333   0.75000   0.19693   0.00000  Uiso   1.00
C373   C     0.16712   0.16395   0.75043   0.00000  Uiso   1.00
C374   C     0.14532   0.21564   0.94611   0.00000  Uiso   1.00
C375   C     0.16289   0.25214   0.52619   0.00000  Uiso   1.00
C376   C     0.16381   0.25302   0.97290   0.00000  Uiso   1.00
C377   C     0.06715   0.24905   0.73774   0.00000  Uiso   1.00
C378   C     0.26621   0.24966   0.76235   0.00000  Uiso   1.00
C379   C     0.01221   0.24639   0.73135   0.00000  Uiso   1.00
C380   C     0.32122   0.24977   0.76910   0.00000  Uiso   1.00
C381   C     0.19381   0.04487   0.78585   0.00000  Uiso   1.00
C382   C     0.12596   0.45219   0.77010   0.00000  Uiso   1.00
C383   C     0.19595   0.09116   0.78744   0.00000  Uiso   1.00
C384   C     0.16582   0.33593   0.74956   0.00000  Uiso   1.00
C385   C     0.12604   0.40586   0.77096   0.00000  Uiso   1.00
C386   C     0.16618   0.11582   0.75092   0.00000  Uiso   1.00
C387   C     0.16336   0.38379   0.74852   0.00000  Uiso   1.00
C388   C     0.13477   0.09419   0.71363   0.00000  Uiso   1.00
C389   C     0.19940   0.40773   0.72507   0.00000  Uiso   1.00
C390   C     0.13265   0.04801   0.71223   0.00000  Uiso   1.00
C391   C     0.19950   0.45396   0.72455   0.00000  Uiso   1.00
C392   C     0.16262   0.02369   0.74835   0.00000  Uiso   1.00
C393   C     0.16261   0.47585   0.74721   0.00000  Uiso   1.00
C394   C     0.23048   0.11232   0.82544   0.00000  Uiso   1.00
C395   C     0.12099   0.23313   0.54815   0.00000  Uiso   1.00
C396   C     0.08686   0.38181   0.79369   0.00000  Uiso   1.00
C397   C     0.07222   0.21827   0.52100   0.00000  Uiso   1.00
C398   C     0.19808   0.33208   0.97011   0.00000  Uiso   1.00
C399   C     0.18352   0.28979   0.94780   0.00000  Uiso   1.00
C400   C     0.12499   0.23100   0.59813   0.00000  Uiso   1.00
C401   C     0.18626   0.28658   0.89879   0.00000  Uiso   1.00
C402   C     0.20527   0.27171   0.60540   0.00000  Uiso   1.00
C403   C     0.14376   0.21574   0.89683   0.00000  Uiso   1.00
C404   C     0.20557   0.27023   0.55641   0.00000  Uiso   1.00
H405   H     0.32527   0.24167   0.69564   0.00000  Uiso   1.00
H406   H     0.13047   0.18637   0.96308   0.00000  Uiso   1.00
H407   H     0.00825   0.25366   0.80498   0.00000  Uiso   1.00
H408   H     0.21691   0.02516   0.81328   0.00000  Uiso   1.00
H409   H     0.09761   0.46997   0.78720   0.00000  Uiso   1.00
H410   H     0.11158   0.11325   0.68577   0.00000  Uiso   1.00
H411   H     0.22819   0.39048   0.70818   0.00000  Uiso   1.00
H412   H     0.09343   0.21580   0.61463   0.00000  Uiso   1.00
H413   H     0.20220   0.31437   0.88018   0.00000  Uiso   1.00
H414   H     0.23896   0.28469   0.54209   0.00000  Uiso   1.00
I415   I     0.08427   0.01692   0.65495   0.00000  Uiso   1.00
I416   I     0.25654   0.48876   0.69009   0.00000  Uiso   1.00
I417   I     0.26198   0.31572   0.64181   0.00000  Uiso   1.00
I418   I     0.09667   0.16399   0.86185   0.00000  Uiso   1.00
N419   N     0.16667   0.24999   0.62623   0.00000  Uiso   1.00
N420   N     0.16667   0.25001   0.87376   0.00000  Uiso   1.00
N421   N     0.25812   0.12928   0.85585   0.00000  Uiso   1.00
N422   N     0.05550   0.36253   0.81182   0.00000  Uiso   1.00
N423   N     0.03303   0.20642   0.99931   0.00000  Uiso   1.00
N424   N     0.20971   0.36605   0.98790   0.00000  Uiso   1.00
O425   O     0.16667   0.18454   0.78974   0.00000  Uiso   1.00
O426   O     0.16666   0.31547   0.71026   0.00000  Uiso   1.00
O427   O     0.16667   0.18453   0.71026   0.00000  Uiso   1.00
O428   O     0.16666   0.31547   0.78974   0.00000  Uiso   1.00
O429   O     0.09058   0.25000   0.78045   0.00000  Uiso   1.00
O430   O     0.24275   0.25000   0.71955   0.00000  Uiso   1.00
O431   O     0.09058   0.24999   0.70096   0.00000  Uiso   1.00
O432   O     0.24275   0.25001   0.79903   0.00000  Uiso   1.00
Zn433  Zn    0.16667   0.25001   0.80307   0.00000  Uiso   1.00
Zn434  Zn    0.16667   0.25000   0.69693   0.00000  Uiso   1.00
C435   C     0.50045   0.16395   0.75043   0.00000  Uiso   1.00
C436   C     0.47865   0.21564   0.94611   0.00000  Uiso   1.00
C437   C     0.49623   0.25214   0.52619   0.00000  Uiso   1.00
C438   C     0.49715   0.25302   0.97290   0.00000  Uiso   1.00
C439   C     0.40048   0.24905   0.73774   0.00000  Uiso   1.00
C440   C     0.59954   0.24966   0.76235   0.00000  Uiso   1.00
C441   C     0.34555   0.24639   0.73135   0.00000  Uiso   1.00
C442   C     0.65456   0.24977   0.76910   0.00000  Uiso   1.00
C443   C     0.52714   0.04487   0.78585   0.00000  Uiso   1.00
C444   C     0.45929   0.45219   0.77010   0.00000  Uiso   1.00
C445   C     0.52929   0.09116   0.78744   0.00000  Uiso   1.00
C446   C     0.49915   0.33593   0.74956   0.00000  Uiso   1.00
C447   C     0.45938   0.40586   0.77096   0.00000  Uiso   1.00
C448   C     0.49951   0.11582   0.75092   0.00000  Uiso   1.00
C449   C     0.49669   0.38379   0.74852   0.00000  Uiso   1.00
C450   C     0.46810   0.09419   0.71363   0.00000  Uiso   1.00
C451   C     0.53273   0.40773   0.72507   0.00000  Uiso   1.00
C452   C     0.46598   0.04801   0.71223   0.00000  Uiso   1.00
C453   C     0.53284   0.45396   0.72455   0.00000  Uiso   1.00
C454   C     0.49595   0.02369   0.74835   0.00000  Uiso   1.00
C455   C     0.49594   0.47585   0.74721   0.00000  Uiso   1.00
C456   C     0.56381   0.11232   0.82544   0.00000  Uiso   1.00
C457   C     0.45433   0.23313   0.54815   0.00000  Uiso   1.00
C458   C     0.42020   0.38181   0.79369   0.00000  Uiso   1.00
C459   C     0.40555   0.21827   0.52100   0.00000  Uiso   1.00
C460   C     0.53142   0.33208   0.97011   0.00000  Uiso   1.00
C461   C     0.51685   0.28979   0.94780   0.00000  Uiso   1.00
C462   C     0.45833   0.23100   0.59813   0.00000  Uiso   1.00
C463   C     0.51960   0.28658   0.89879   0.00000  Uiso   1.00
C464   C     0.53860   0.27171   0.60540   0.00000  Uiso   1.00
C465   C     0.47709   0.21574   0.89683   0.00000  Uiso   1.00
C466   C     0.53891   0.27023   0.55641   0.00000  Uiso   1.00
H467   H     0.65860   0.24167   0.69564   0.00000  Uiso   1.00
H468   H     0.46381   0.18637   0.96308   0.00000  Uiso   1.00
H469   H     0.34158   0.25366   0.80498   0.00000  Uiso   1.00
H470   H     0.55024   0.02516   0.81328   0.00000  Uiso   1.00
H471   H     0.43094   0.46997   0.78720   0.00000  Uiso   1.00
H472   H     0.44492   0.11325   0.68577   0.00000  Uiso   1.00
H473   H     0.56153   0.39048   0.70818   0.00000  Uiso   1.00
H474   H     0.42677   0.21580   0.61463   0.00000  Uiso   1.00
H475   H     0.53553   0.31437   0.88018   0.00000  Uiso   1.00
H476   H     0.57229   0.28469   0.54209   0.00000  Uiso   1.00
I477   I     0.41761   0.01692   0.65495   0.00000  Uiso   1.00
I478   I     0.58987   0.48876   0.69009   0.00000  Uiso   1.00
I479   I     0.59532   0.31572   0.64181   0.00000  Uiso   1.00
I480   I     0.43000   0.16399   0.86185   0.00000  Uiso   1.00
N481   N     0.50000   0.24999   0.62623   0.00000  Uiso   1.00
N482   N     0.50000   0.25001   0.87376   0.00000  Uiso   1.00
N483   N     0.59146   0.12928   0.85585   0.00000  Uiso   1.00
N484   N     0.38883   0.36253   0.81182   0.00000  Uiso   1.00
N485   N     0.36636   0.20642   0.99931   0.00000  Uiso   1.00
N486   N     0.54305   0.36605   0.98790   0.00000  Uiso   1.00
O487   O     0.50000   0.18454   0.78974   0.00000  Uiso   1.00
O488   O     0.50000   0.31547   0.71026   0.00000  Uiso   1.00
O489   O     0.50000   0.18453   0.71026   0.00000  Uiso   1.00
O490   O     0.50000   0.31547   0.78974   0.00000  Uiso   1.00
O491   O     0.42392   0.25000   0.78045   0.00000  Uiso   1.00
O492   O     0.57608   0.25000   0.71955   0.00000  Uiso   1.00
O493   O     0.42392   0.24999   0.70096   0.00000  Uiso   1.00
O494   O     0.57608   0.25001   0.79903   0.00000  Uiso   1.00
Zn495  Zn    0.50000   0.25001   0.80307   0.00000  Uiso   1.00
Zn496  Zn    0.50000   0.25000   0.69693   0.00000  Uiso   1.00
C497   C     0.83378   0.16395   0.75043   0.00000  Uiso   1.00
C498   C     0.81198   0.21564   0.94611   0.00000  Uiso   1.00
C499   C     0.82956   0.25214   0.52619   0.00000  Uiso   1.00
C500   C     0.83048   0.25302   0.97290   0.00000  Uiso   1.00
C501   C     0.73382   0.24905   0.73774   0.00000  Uiso   1.00
C502   C     0.93287   0.24966   0.76235   0.00000  Uiso   1.00
C503   C     0.67888   0.24639   0.73135   0.00000  Uiso   1.00
C504   C     0.98789   0.24977   0.76910   0.00000  Uiso   1.00
C505   C     0.86047   0.04487   0.78585   0.00000  Uiso   1.00
C506   C     0.79263   0.45219   0.77010   0.00000  Uiso   1.00
C507   C     0.86262   0.09116   0.78744   0.00000  Uiso   1.00
C508   C     0.83248   0.33593   0.74956   0.00000  Uiso   1.00
C509   C     0.79271   0.40586   0.77096   0.00000  Uiso   1.00
C510   C     0.83284   0.11582   0.75092   0.00000  Uiso   1.00
C511   C     0.83002   0.38379   0.74852   0.00000  Uiso   1.00
C512   C     0.80143   0.09419   0.71363   0.00000  Uiso   1.00
C513   C     0.86606   0.40773   0.72507   0.00000  Uiso   1.00
C514   C     0.79931   0.04801   0.71223   0.00000  Uiso   1.00
C515   C     0.86617   0.45396   0.72455   0.00000  Uiso   1.00
C516   C     0.82929   0.02369   0.74835   0.00000  Uiso   1.00
C517   C     0.82927   0.47585   0.74721   0.00000  Uiso   1.00
C518   C     0.89714   0.11232   0.82544   0.00000  Uiso   1.00
C519   C     0.78766   0.23313   0.54815   0.00000  Uiso   1.00
C520   C     0.75353   0.38181   0.79369   0.00000  Uiso   1.00
C521   C     0.73889   0.21827   0.52100   0.00000  Uiso   1.00
C522   C     0.86475   0.33208   0.97011   0.00000  Uiso   1.00
C523   C     0.85018   0.28979   0.94780   0.00000  Uiso   1.00
C524   C     0.79166   0.23100   0.59813   0.00000  Uiso   1.00
C525   C     0.85293   0.28658   0.89879   0.00000  Uiso   1.00
C526   C     0.87193   0.27171   0.60540   0.00000  Uiso   1.00
C527   C     0.81042   0.21574   0.89683   0.00000  Uiso   1.00
C528   C     0.87224   0.27023   0.55641   0.00000  Uiso   1.00
H529   H     0.99193   0.24167   0.69564   0.00000  Uiso   1.00
H530   H     0.79714   0.18637   0.96308   0.00000  Uiso   1.00
H531   H     0.67491   0.25366   0.80498   0.00000  Uiso   1.00
H532   H     0.88357   0.02516   0.81328   0.00000  Uiso   1.00
H533   H     0.76427   0.46997   0.78720   0.00000  Uiso   1.00
H534   H     0.77825   0.11325   0.68577   0.00000  Uiso   1.00
H535   H     0.89486   0.39048   0.70818   0.00000  Uiso   1.00
H536   H     0.76010   0.21580   0.61463   0.00000  Uiso   1.00
H537   H     0.86887   0.31437   0.88018   0.00000  Uiso   1.00
H538   H     0.90563   0.28469   0.54209   0.00000  Uiso   1.00
I539   I     0.75094   0.01692   0.65495   0.00000  Uiso   1.00
I540   I     0.92320   0.48876   0.69009   0.00000  Uiso   1.00
I541   I     0.92865   0.31572   0.64181   0.00000  Uiso   1.00
I542   I     0.76333   0.16399   0.86185   0.00000  Uiso   1.00
N543   N     0.83333   0.24999   0.62623   0.00000  Uiso   1.00
N544   N     0.83333   0.25001   0.87376   0.00000  Uiso   1.00
N545   N     0.92479   0.12928   0.85585   0.00000  Uiso   1.00
N546   N     0.72216   0.36253   0.81182   0.00000  Uiso   1.00
N547   N     0.69969   0.20642   0.99931   0.00000  Uiso   1.00
N548   N     0.87638   0.36605   0.98790   0.00000  Uiso   1.00
O549   O     0.83334   0.18454   0.78974   0.00000  Uiso   1.00
O550   O     0.83333   0.31547   0.71026   0.00000  Uiso   1.00
O551   O     0.83334   0.18453   0.71026   0.00000  Uiso   1.00
O552   O     0.83333   0.31547   0.78974   0.00000  Uiso   1.00
O553   O     0.75725   0.25000   0.78045   0.00000  Uiso   1.00
O554   O     0.90942   0.25000   0.71955   0.00000  Uiso   1.00
O555   O     0.75725   0.24999   0.70096   0.00000  Uiso   1.00
O556   O     0.90942   0.25001   0.79903   0.00000  Uiso   1.00
Zn557  Zn    0.83333   0.25001   0.80307   0.00000  Uiso   1.00
Zn558  Zn    0.83333   0.25000   0.69693   0.00000  Uiso   1.00
C559   C     0.16712   0.66395   0.75043   0.00000  Uiso   1.00
C560   C     0.14532   0.71564   0.94611   0.00000  Uiso   1.00
C561   C     0.16289   0.75214   0.52619   0.00000  Uiso   1.00
C562   C     0.16381   0.75302   0.97290   0.00000  Uiso   1.00
C563   C     0.06715   0.74905   0.73774   0.00000  Uiso   1.00
C564   C     0.26621   0.74966   0.76235   0.00000  Uiso   1.00
C565   C     0.01221   0.74639   0.73135   0.00000  Uiso   1.00
C566   C     0.32122   0.74977   0.76910   0.00000  Uiso   1.00
C567   C     0.19381   0.54487   0.78585   0.00000  Uiso   1.00
C568   C     0.12596   0.95219   0.77010   0.00000  Uiso   1.00
C569   C     0.19595   0.59116   0.78744   0.00000  Uiso   1.00
C570   C     0.16582   0.83593   0.74956   0.00000  Uiso   1.00
C571   C     0.12604   0.90586   0.77096   0.00000  Uiso   1.00
C572   C     0.16618   0.61582   0.75092   0.00000  Uiso   1.00
C573   C     0.16336   0.88379   0.74852   0.00000  Uiso   1.00
C574   C     0.13477   0.59419   0.71363   0.00000  Uiso   1.00
C575   C     0.19940   0.90773   0.72507   0.00000  Uiso   1.00
C576   C     0.13265   0.54801   0.71223   0.00000  Uiso   1.00
C577   C     0.19950   0.95396   0.72455   0.00000  Uiso   1.00
C578   C     0.16262   0.52369   0.74835   0.00000  Uiso   1.00
C579   C     0.16261   0.97585   0.74721   0.00000  Uiso   1.00
C580   C     0.23048   0.61232   0.82544   0.00000  Uiso   1.00
C581   C     0.12099   0.73313   0.54815   0.00000  Uiso   1.00
C582   C     0.08686   0.88181   0.79369   0.00000  Uiso   1.00
C583   C     0.07222   0.71827   0.52100   0.00000  Uiso   1.00
C584   C     0.19808   0.83208   0.97011   0.00000  Uiso   1.00
C585   C     0.18352   0.78979   0.94780   0.00000  Uiso   1.00
C586   C     0.12499   0.73100   0.59813   0.00000  Uiso   1.00
C587   C     0.18626   0.78658   0.89879   0.00000  Uiso   1.00
C588   C     0.20527   0.77171   0.60540   0.00000  Uiso   1.00
C589   C     0.14376   0.71574   0.89683   0.00000  Uiso   1.00
C590   C     0.20557   0.77023   0.55641   0.00000  Uiso   1.00
H591   H     0.32527   0.74167   0.69564   0.00000  Uiso   1.00
H592   H     0.13047   0.68637   0.96308   0.00000  Uiso   1.00
H593   H     0.00825   0.75366   0.80498   0.00000  Uiso   1.00
H594   H     0.21691   0.52516   0.81328   0.00000  Uiso   1.00
H595   H     0.09761   0.96997   0.78720   0.00000  Uiso   1.00
H596   H     0.11158   0.61325   0.68577   0.00000  Uiso   1.00
H597   H     0.22819   0.89048   0.70818   0.00000  Uiso   1.00
H598   H     0.09343   0.71580   0.61463   0.00000  Uiso   1.00
H599   H     0.20220   0.81437   0.88018   0.00000  Uiso   1.00
H600   H     0.23896   0.78469   0.54209   0.00000  Uiso   1.00
I601   I     0.08427   0.51692   0.65495   0.00000  Uiso   1.00
I602   I     0.25654   0.98876   0.69009   0.00000  Uiso   1.00
I603   I     0.26198   0.81572   0.64181   0.00000  Uiso   1.00
I604   I     0.09667   0.66399   0.86185   0.00000  Uiso   1.00
N605   N     0.16667   0.74999   0.62623   0.00000  Uiso   1.00
N606   N     0.16667   0.75001   0.87376   0.00000  Uiso   1.00
N607   N     0.25812   0.62928   0.85585   0.00000  Uiso   1.00
N608   N     0.05550   0.86253   0.81182   0.00000  Uiso   1.00
N609   N     0.03303   0.70642   0.99931   0.00000  Uiso   1.00
N610   N     0.20971   0.86605   0.98790   0.00000  Uiso   1.00
O611   O     0.16667   0.68454   0.78974   0.00000  Uiso   1.00
O612   O     0.16666   0.81547   0.71026   0.00000  Uiso   1.00
O613   O     0.16667   0.68453   0.71026   0.00000  Uiso   1.00
O614   O     0.16666   0.81547   0.78974   0.00000  Uiso   1.00
O615   O     0.09058   0.75000   0.78045   0.00000  Uiso   1.00
O616   O     0.24275   0.75000   0.71955   0.00000  Uiso   1.00
O617   O     0.09058   0.74999   0.70096   0.00000  Uiso   1.00
O618   O     0.24275   0.75001   0.79903   0.00000  Uiso   1.00
Zn619  Zn    0.16667   0.75001   0.80307   0.00000  Uiso   1.00
Zn620  Zn    0.16667   0.75000   0.69693   0.00000  Uiso   1.00
C621   C     0.50045   0.66395   0.75043   0.00000  Uiso   1.00
C622   C     0.47865   0.71564   0.94611   0.00000  Uiso   1.00
C623   C     0.49623   0.75214   0.52619   0.00000  Uiso   1.00
C624   C     0.49715   0.75302   0.97290   0.00000  Uiso   1.00
C625   C     0.40048   0.74905   0.73774   0.00000  Uiso   1.00
C626   C     0.59954   0.74966   0.76235   0.00000  Uiso   1.00
C627   C     0.34555   0.74639   0.73135   0.00000  Uiso   1.00
C628   C     0.65456   0.74977   0.76910   0.00000  Uiso   1.00
C629   C     0.52714   0.54487   0.78585   0.00000  Uiso   1.00
C630   C     0.45929   0.95219   0.77010   0.00000  Uiso   1.00
C631   C     0.52929   0.59116   0.78744   0.00000  Uiso   1.00
C632   C     0.49915   0.83593   0.74956   0.00000  Uiso   1.00
C633   C     0.45938   0.90586   0.77096   0.00000  Uiso   1.00
C634   C     0.49951   0.61582   0.75092   0.00000  Uiso   1.00
C635   C     0.49669   0.88379   0.74852   0.00000  Uiso   1.00
C636   C     0.46810   0.59419   0.71363   0.00000  Uiso   1.00
C637   C     0.53273   0.90773   0.72507   0.00000  Uiso   1.00
C638   C     0.46598   0.54801   0.71223   0.00000  Uiso   1.00
C639   C     0.53284   0.95396   0.72455   0.00000  Uiso   1.00
C640   C     0.49595   0.52369   0.74835   0.00000  Uiso   1.00
C641   C     0.49594   0.97585   0.74721   0.00000  Uiso   1.00
C642   C     0.56381   0.61232   0.82544   0.00000  Uiso   1.00
C643   C     0.45433   0.73313   0.54815   0.00000  Uiso   1.00
C644   C     0.42020   0.88181   0.79369   0.00000  Uiso   1.00
C645   C     0.40555   0.71827   0.52100   0.00000  Uiso   1.00
C646   C     0.53142   0.83208   0.97011   0.00000  Uiso   1.00
C647   C     0.51685   0.78979   0.94780   0.00000  Uiso   1.00
C648   C     0.45833   0.73100   0.59813   0.00000  Uiso   1.00
C649   C     0.51960   0.78658   0.89879   0.00000  Uiso   1.00
C650   C     0.53860   0.77171   0.60540   0.00000  Uiso   1.00
C651   C     0.47709   0.71574   0.89683   0.00000  Uiso   1.00
C652   C     0.53891   0.77023   0.55641   0.00000  Uiso   1.00
H653   H     0.65860   0.74167   0.69564   0.00000  Uiso   1.00
H654   H     0.46381   0.68637   0.96308   0.00000  Uiso   1.00
H655   H     0.34158   0.75366   0.80498   0.00000  Uiso   1.00
H656   H     0.55024   0.52516   0.81328   0.00000  Uiso   1.00
H657   H     0.43094   0.96997   0.78720   0.00000  Uiso   1.00
H658   H     0.44492   0.61325   0.68577   0.00000  Uiso   1.00
H659   H     0.56153   0.89048   0.70818   0.00000  Uiso   1.00
H660   H     0.42677   0.71580   0.61463   0.00000  Uiso   1.00
H661   H     0.53553   0.81437   0.88018   0.00000  Uiso   1.00
H662   H     0.57229   0.78469   0.54209   0.00000  Uiso   1.00
I663   I     0.41761   0.51692   0.65495   0.00000  Uiso   1.00
I664   I     0.58987   0.98876   0.69009   0.00000  Uiso   1.00
I665   I     0.59532   0.81572   0.64181   0.00000  Uiso   1.00
I666   I     0.43000   0.66399   0.86185   0.00000  Uiso   1.00
N667   N     0.50000   0.74999   0.62623   0.00000  Uiso   1.00
N668   N     0.50000   0.75001   0.87376   0.00000  Uiso   1.00
N669   N     0.59146   0.62928   0.85585   0.00000  Uiso   1.00
N670   N     0.38883   0.86253   0.81182   0.00000  Uiso   1.00
N671   N     0.36636   0.70642   0.99931   0.00000  Uiso   1.00
N672   N     0.54305   0.86605   0.98790   0.00000  Uiso   1.00
O673   O     0.50000   0.68454   0.78974   0.00000  Uiso   1.00
O674   O     0.50000   0.81547   0.71026   0.00000  Uiso   1.00
O675   O     0.50000   0.68453   0.71026   0.00000  Uiso   1.00
O676   O     0.50000   0.81547   0.78974   0.00000  Uiso   1.00
O677   O     0.42392   0.75000   0.78045   0.00000  Uiso   1.00
O678   O     0.57608   0.75000   0.71955   0.00000  Uiso   1.00
O679   O     0.42392   0.74999   0.70096   0.00000  Uiso   1.00
O680   O     0.57608   0.75001   0.79903   0.00000  Uiso   1.00
Zn681  Zn    0.50000   0.75001   0.80307   0.00000  Uiso   1.00
Zn682  Zn    0.50000   0.75000   0.69693   0.00000  Uiso   1.00
C683   C     0.83378   0.66395   0.75043   0.00000  Uiso   1.00
C684   C     0.81198   0.71564   0.94611   0.00000  Uiso   1.00
C685   C     0.82956   0.75214   0.52619   0.00000  Uiso   1.00
C686   C     0.83048   0.75302   0.97290   0.00000  Uiso   1.00
C687   C     0.73382   0.74905   0.73774   0.00000  Uiso   1.00
C688   C     0.93287   0.74966   0.76235   0.00000  Uiso   1.00
C689   C     0.67888   0.74639   0.73135   0.00000  Uiso   1.00
C690   C     0.98789   0.74977   0.76910   0.00000  Uiso   1.00
C691   C     0.86047   0.54487   0.78585   0.00000  Uiso   1.00
C692   C     0.79263   0.95219   0.77010   0.00000  Uiso   1.00
C693   C     0.86262   0.59116   0.78744   0.00000  Uiso   1.00
C694   C     0.83248   0.83593   0.74956   0.00000  Uiso   1.00
C695   C     0.79271   0.90586   0.77096   0.00000  Uiso   1.00
C696   C     0.83284   0.61582   0.75092   0.00000  Uiso   1.00
C697   C     0.83002   0.88379   0.74852   0.00000  Uiso   1.00
C698   C     0.80143   0.59419   0.71363   0.00000  Uiso   1.00
C699   C     0.86606   0.90773   0.72507   0.00000  Uiso   1.00
C700   C     0.79931   0.54801   0.71223   0.00000  Uiso   1.00
C701   C     0.86617   0.95396   0.72455   0.00000  Uiso   1.00
C702   C     0.82929   0.52369   0.74835   0.00000  Uiso   1.00
C703   C     0.82927   0.97585   0.74721   0.00000  Uiso   1.00
C704   C     0.89714   0.61232   0.82544   0.00000  Uiso   1.00
C705   C     0.78766   0.73313   0.54815   0.00000  Uiso   1.00
C706   C     0.75353   0.88181   0.79369   0.00000  Uiso   1.00
C707   C     0.73889   0.71827   0.52100   0.00000  Uiso   1.00
C708   C     0.86475   0.83208   0.97011   0.00000  Uiso   1.00
C709   C     0.85018   0.78979   0.94780   0.00000  Uiso   1.00
C710   C     0.79166   0.73100   0.59813   0.00000  Uiso   1.00
C711   C     0.85293   0.78658   0.89879   0.00000  Uiso   1.00
C712   C     0.87193   0.77171   0.60540   0.00000  Uiso   1.00
C713   C     0.81042   0.71574   0.89683   0.00000  Uiso   1.00
C714   C     0.87224   0.77023   0.55641   0.00000  Uiso   1.00
H715   H     0.99193   0.74167   0.69564   0.00000  Uiso   1.00
H716   H     0.79714   0.68637   0.96308   0.00000  Uiso   1.00
H717   H     0.67491   0.75366   0.80498   0.00000  Uiso   1.00
H718   H     0.88357   0.52516   0.81328   0.00000  Uiso   1.00
H719   H     0.76427   0.96997   0.78720   0.00000  Uiso   1.00
H720   H     0.77825   0.61325   0.68577   0.00000  Uiso   1.00
H721   H     0.89486   0.89048   0.70818   0.00000  Uiso   1.00
H722   H     0.76010   0.71580   0.61463   0.00000  Uiso   1.00
H723   H     0.86887   0.81437   0.88018   0.00000  Uiso   1.00
H724   H     0.90563   0.78469   0.54209   0.00000  Uiso   1.00
I725   I     0.75094   0.51692   0.65495   0.00000  Uiso   1.00
I726   I     0.92320   0.98876   0.69009   0.00000  Uiso   1.00
I727   I     0.92865   0.81572   0.64181   0.00000  Uiso   1.00
I728   I     0.76333   0.66399   0.86185   0.00000  Uiso   1.00
N729   N     0.83333   0.74999   0.62623   0.00000  Uiso   1.00
N730   N     0.83333   0.75001   0.87376   0.00000  Uiso   1.00
N731   N     0.92479   0.62928   0.85585   0.00000  Uiso   1.00
N732   N     0.72216   0.86253   0.81182   0.00000  Uiso   1.00
N733   N     0.69969   0.70642   0.99931   0.00000  Uiso   1.00
N734   N     0.87638   0.86605   0.98790   0.00000  Uiso   1.00
O735   O     0.83334   0.68454   0.78974   0.00000  Uiso   1.00
O736   O     0.83333   0.81547   0.71026   0.00000  Uiso   1.00
O737   O     0.83334   0.68453   0.71026   0.00000  Uiso   1.00
O738   O     0.83333   0.81547   0.78974   0.00000  Uiso   1.00
O739   O     0.75725   0.75000   0.78045   0.00000  Uiso   1.00
O740   O     0.90942   0.75000   0.71955   0.00000  Uiso   1.00
O741   O     0.75725   0.74999   0.70096   0.00000  Uiso   1.00
O742   O     0.90942   0.75001   0.79903   0.00000  Uiso   1.00
Zn743  Zn    0.83333   0.75001   0.80307   0.00000  Uiso   1.00
Zn744  Zn    0.83333   0.75000   0.69693   0.00000  Uiso   1.00
loop_
_geom_bond_atom_site_label_1
_geom_bond_atom_site_label_2
_geom_bond_distance
_geom_bond_site_symmetry_2
_ccdc_geom_bond_type
C1     O55     1.290   .     A
C1     O53     1.290   .     A
C1     C14     1.438   .     S
C2     C4      1.401   .     A
C2     H34     1.081   .     S
C2     C31     1.401   .     A
C3     C23     1.425   .     A
C3     C32     1.401   .     A
C3     C376    1.523   1_554 S
C4     C27     1.425   .     A
C4     C375    1.523   .     S
C5     O57     1.281   .     A
C5     C7      1.399   .     S
C5     O59     1.281   .     A
C6     O58     1.283   .     A
C6     C8      1.400   .     S
C6     O60     1.280   .     A
C7     C132    1.326   1_455 S
C7     H157    1.086   1_455 S
C8     C69     1.326   .     S
C8     H97     1.088   .     S
C9     H36     1.085   .     S
C9     C11     1.384   .     A
C9     C20     1.395   .     A
C10    H37     1.085   .     S
C10    C13     1.384   .     A
C10    C21     1.395   .     A
C11    C22     1.446   .     S
C11    C14     1.409   .     A
C12    C15     1.432   .     S
C12    O56     1.287   .     A
C12    O54     1.289   .     A
C13    C15     1.407   .     A
C13    C24     1.446   .     S
C14    C16     1.400   .     A
C15    C17     1.397   .     A
C16    H38     1.084   .     S
C16    C18     1.381   .     A
C17    C19     1.381   .     A
C17    H39     1.083   .     S
C18    C20     1.398   .     A
C18    I43     2.123   .     S
C19    C21     1.400   .     A
C19    I44     2.124   .     S
C20    C207    1.430   1_545 S
C21    C206    1.430   .     S
C22    N49     1.157   .     T
C23    C28     1.415   .     A
C23    C25     1.443   .     S
C24    N50     1.157   .     T
C25    N423    1.157   1_554 S
C26    N52     1.157   .     T
C26    C27     1.443   .     S
C27    C29     1.415   .     A
C28    N47     1.364   .     A
C28    H40     1.083   .     S
C29    N48     1.364   .     A
C29    H41     1.082   .     S
C30    I45     2.115   .     S
C30    C32     1.400   .     A
C30    N47     1.374   .     A
C31    N48     1.375   .     A
C31    I46     2.118   .     S
C32    H42     1.081   .     S
H33    C69     1.086   .     S
H35    C132    1.088   1_455 S
N47    Zn62    2.017   .     S
N48    Zn61    2.017   .     S
N51    C397    1.157   .     S
O53    Zn61    1.999   .     S
O54    Zn62    1.999   .     S
O55    Zn62    1.986   .     S
O56    Zn61    1.986   .     S
O57    Zn61    1.971   .     S
O58    Zn62    1.971   .     S
O59    Zn62    1.976   .     S
O60    Zn61    1.976   .     S
C63    O117    1.290   .     A
C63    O115    1.290   .     A
C63    C76     1.438   .     S
C64    C66     1.401   .     A
C64    H96     1.081   .     S
C64    C93     1.401   .     A
C65    C85     1.425   .     A
C65    C94     1.401   .     A
C65    C438    1.523   1_554 S
C66    C89     1.425   .     A
C66    C437    1.523   .     S
C67    O119    1.281   .     A
C67    C69     1.399   .     S
C67    O121    1.281   .     A
C68    O120    1.283   .     A
C68    C70     1.400   .     S
C68    O122    1.280   .     A
C70    C131    1.326   .     S
C70    H159    1.088   .     S
C71    H98     1.085   .     S
C71    C73     1.384   .     A
C71    C82     1.395   .     A
C72    H99     1.085   .     S
C72    C75     1.384   .     A
C72    C83     1.395   .     A
C73    C84     1.446   .     S
C73    C76     1.409   .     A
C74    C77     1.432   .     S
C74    O118    1.287   .     A
C74    O116    1.289   .     A
C75    C77     1.407   .     A
C75    C86     1.446   .     S
C76    C78     1.400   .     A
C77    C79     1.397   .     A
C78    H100    1.084   .     S
C78    C80     1.381   .     A
C79    C81     1.381   .     A
C79    H101    1.083   .     S
C80    C82     1.398   .     A
C80    I105    2.123   .     S
C81    C83     1.400   .     A
C81    I106    2.124   .     S
C82    C269    1.430   1_545 S
C83    C268    1.430   .     S
C84    N111    1.157   .     T
C85    C90     1.415   .     A
C85    C87     1.443   .     S
C86    N112    1.157   .     T
C87    N485    1.157   1_554 S
C88    N114    1.157   .     T
C88    C89     1.443   .     S
C89    C91     1.415   .     A
C90    N109    1.364   .     A
C90    H102    1.083   .     S
C91    N110    1.364   .     A
C91    H103    1.082   .     S
C92    I107    2.115   .     S
C92    C94     1.400   .     A
C92    N109    1.374   .     A
C93    N110    1.375   .     A
C93    I108    2.118   .     S
C94    H104    1.081   .     S
H95    C131    1.086   .     S
N109   Zn124   2.017   .     S
N110   Zn123   2.017   .     S
N113   C459    1.157   .     S
O115   Zn123   1.999   .     S
O116   Zn124   1.999   .     S
O117   Zn124   1.986   .     S
O118   Zn123   1.986   .     S
O119   Zn123   1.971   .     S
O120   Zn124   1.971   .     S
O121   Zn124   1.976   .     S
O122   Zn123   1.976   .     S
C125   O179    1.290   .     A
C125   O177    1.290   .     A
C125   C138    1.438   .     S
C126   C128    1.401   .     A
C126   H158    1.081   .     S
C126   C155    1.401   .     A
C127   C147    1.425   .     A
C127   C156    1.401   .     A
C127   C500    1.523   1_554 S
C128   C151    1.425   .     A
C128   C499    1.523   .     S
C129   O181    1.281   .     A
C129   C131    1.399   .     S
C129   O183    1.281   .     A
C130   O182    1.283   .     A
C130   C132    1.400   .     S
C130   O184    1.280   .     A
C132   C7      1.326   1_655 S
C132   H35     1.088   1_655 S
C133   H160    1.085   .     S
C133   C135    1.384   .     A
C133   C144    1.395   .     A
C134   H161    1.085   .     S
C134   C137    1.384   .     A
C134   C145    1.395   .     A
C135   C146    1.446   .     S
C135   C138    1.409   .     A
C136   C139    1.432   .     S
C136   O180    1.287   .     A
C136   O178    1.289   .     A
C137   C139    1.407   .     A
C137   C148    1.446   .     S
C138   C140    1.400   .     A
C139   C141    1.397   .     A
C140   H162    1.084   .     S
C140   C142    1.381   .     A
C141   C143    1.381   .     A
C141   H163    1.083   .     S
C142   C144    1.398   .     A
C142   I167    2.123   .     S
C143   C145    1.400   .     A
C143   I168    2.124   .     S
C144   C331    1.430   1_545 S
C145   C330    1.430   .     S
C146   N173    1.157   .     T
C147   C152    1.415   .     A
C147   C149    1.443   .     S
C148   N174    1.157   .     T
C149   N547    1.157   1_554 S
C150   N176    1.157   .     T
C150   C151    1.443   .     S
C151   C153    1.415   .     A
C152   N171    1.364   .     A
C152   H164    1.083   .     S
C153   N172    1.364   .     A
C153   H165    1.082   .     S
C154   I169    2.115   .     S
C154   C156    1.400   .     A
C154   N171    1.374   .     A
C155   N172    1.375   .     A
C155   I170    2.118   .     S
C156   H166    1.081   .     S
H157   C7      1.086   1_655 S
N171   Zn186   2.017   .     S
N172   Zn185   2.017   .     S
N175   C521    1.157   .     S
O177   Zn185   1.999   .     S
O178   Zn186   1.999   .     S
O179   Zn186   1.986   .     S
O180   Zn185   1.986   .     S
O181   Zn185   1.971   .     S
O182   Zn186   1.971   .     S
O183   Zn186   1.976   .     S
O184   Zn185   1.976   .     S
C187   O241    1.290   .     A
C187   O239    1.290   .     A
C187   C200    1.438   .     S
C188   C190    1.401   .     A
C188   H220    1.081   .     S
C188   C217    1.401   .     A
C189   C209    1.425   .     A
C189   C218    1.401   .     A
C189   C562    1.523   1_554 S
C190   C213    1.425   .     A
C190   C561    1.523   .     S
C191   O243    1.281   .     A
C191   C193    1.399   .     S
C191   O245    1.281   .     A
C192   O244    1.283   .     A
C192   C194    1.400   .     S
C192   O246    1.280   .     A
C193   C318    1.326   1_455 S
C193   H343    1.086   1_455 S
C194   C255    1.326   .     S
C194   H283    1.088   .     S
C195   H222    1.085   .     S
C195   C197    1.384   .     A
C195   C206    1.395   .     A
C196   H223    1.085   .     S
C196   C199    1.384   .     A
C196   C207    1.395   .     A
C197   C208    1.446   .     S
C197   C200    1.409   .     A
C198   C201    1.432   .     S
C198   O242    1.287   .     A
C198   O240    1.289   .     A
C199   C201    1.407   .     A
C199   C210    1.446   .     S
C200   C202    1.400   .     A
C201   C203    1.397   .     A
C202   H224    1.084   .     S
C202   C204    1.381   .     A
C203   C205    1.381   .     A
C203   H225    1.083   .     S
C204   C206    1.398   .     A
C204   I229    2.123   .     S
C205   C207    1.400   .     A
C205   I230    2.124   .     S
C207   C20     1.430   1_565 S
C208   N235    1.157   .     T
C209   C214    1.415   .     A
C209   C211    1.443   .     S
C210   N236    1.157   .     T
C211   N609    1.157   1_554 S
C212   N238    1.157   .     T
C212   C213    1.443   .     S
C213   C215    1.415   .     A
C214   N233    1.364   .     A
C214   H226    1.083   .     S
C215   N234    1.364   .     A
C215   H227    1.082   .     S
C216   I231    2.115   .     S
C216   C218    1.400   .     A
C216   N233    1.374   .     A
C217   N234    1.375   .     A
C217   I232    2.118   .     S
C218   H228    1.081   .     S
H219   C255    1.086   .     S
H221   C318    1.088   1_455 S
N233   Zn248   2.017   .     S
N234   Zn247   2.017   .     S
N237   C583    1.157   .     S
O239   Zn247   1.999   .     S
O240   Zn248   1.999   .     S
O241   Zn248   1.986   .     S
O242   Zn247   1.986   .     S
O243   Zn247   1.971   .     S
O244   Zn248   1.971   .     S
O245   Zn248   1.976   .     S
O246   Zn247   1.976   .     S
C249   O303    1.290   .     A
C249   O301    1.290   .     A
C249   C262    1.438   .     S
C250   C252    1.401   .     A
C250   H282    1.081   .     S
C250   C279    1.401   .     A
C251   C271    1.425   .     A
C251   C280    1.401   .     A
C251   C624    1.523   1_554 S
C252   C275    1.425   .     A
C252   C623    1.523   .     S
C253   O305    1.281   .     A
C253   C255    1.399   .     S
C253   O307    1.281   .     A
C254   O306    1.283   .     A
C254   C256    1.400   .     S
C254   O308    1.280   .     A
C256   C317    1.326   .     S
C256   H345    1.088   .     S
C257   H284    1.085   .     S
C257   C259    1.384   .     A
C257   C268    1.395   .     A
C258   H285    1.085   .     S
C258   C261    1.384   .     A
C258   C269    1.395   .     A
C259   C270    1.446   .     S
C259   C262    1.409   .     A
C260   C263    1.432   .     S
C260   O304    1.287   .     A
C260   O302    1.289   .     A
C261   C263    1.407   .     A
C261   C272    1.446   .     S
C262   C264    1.400   .     A
C263   C265    1.397   .     A
C264   H286    1.084   .     S
C264   C266    1.381   .     A
C265   C267    1.381   .     A
C265   H287    1.083   .     S
C266   C268    1.398   .     A
C266   I291    2.123   .     S
C267   C269    1.400   .     A
C267   I292    2.124   .     S
C269   C82     1.430   1_565 S
C270   N297    1.157   .     T
C271   C276    1.415   .     A
C271   C273    1.443   .     S
C272   N298    1.157   .     T
C273   N671    1.157   1_554 S
C274   N300    1.157   .     T
C274   C275    1.443   .     S
C275   C277    1.415   .     A
C276   N295    1.364   .     A
C276   H288    1.083   .     S
C277   N296    1.364   .     A
C277   H289    1.082   .     S
C278   I293    2.115   .     S
C278   C280    1.400   .     A
C278   N295    1.374   .     A
C279   N296    1.375   .     A
C279   I294    2.118   .     S
C280   H290    1.081   .     S
H281   C317    1.086   .     S
N295   Zn310   2.017   .     S
N296   Zn309   2.017   .     S
N299   C645    1.157   .     S
O301   Zn309   1.999   .     S
O302   Zn310   1.999   .     S
O303   Zn310   1.986   .     S
O304   Zn309   1.986   .     S
O305   Zn309   1.971   .     S
O306   Zn310   1.971   .     S
O307   Zn310   1.976   .     S
O308   Zn309   1.976   .     S
C311   O365    1.290   .     A
C311   O363    1.290   .     A
C311   C324    1.438   .     S
C312   C314    1.401   .     A
C312   H344    1.081   .     S
C312   C341    1.401   .     A
C313   C333    1.425   .     A
C313   C342    1.401   .     A
C313   C686    1.523   1_554 S
C314   C337    1.425   .     A
C314   C685    1.523   .     S
C315   O367    1.281   .     A
C315   C317    1.399   .     S
C315   O369    1.281   .     A
C316   O368    1.283   .     A
C316   C318    1.400   .     S
C316   O370    1.280   .     A
C318   C193    1.326   1_655 S
C318   H221    1.088   1_655 S
C319   H346    1.085   .     S
C319   C321    1.384   .     A
C319   C330    1.395   .     A
C320   H347    1.085   .     S
C320   C323    1.384   .     A
C320   C331    1.395   .     A
C321   C332    1.446   .     S
C321   C324    1.409   .     A
C322   C325    1.432   .     S
C322   O366    1.287   .     A
C322   O364    1.289   .     A
C323   C325    1.407   .     A
C323   C334    1.446   .     S
C324   C326    1.400   .     A
C325   C327    1.397   .     A
C326   H348    1.084   .     S
C326   C328    1.381   .     A
C327   C329    1.381   .     A
C327   H349    1.083   .     S
C328   C330    1.398   .     A
C328   I353    2.123   .     S
C329   C331    1.400   .     A
C329   I354    2.124   .     S
C331   C144    1.430   1_565 S
C332   N359    1.157   .     T
C333   C338    1.415   .     A
C333   C335    1.443   .     S
C334   N360    1.157   .     T
C335   N733    1.157   1_554 S
C336   N362    1.157   .     T
C336   C337    1.443   .     S
C337   C339    1.415   .     A
C338   N357    1.364   .     A
C338   H350    1.083   .     S
C339   N358    1.364   .     A
C339   H351    1.082   .     S
C340   I355    2.115   .     S
C340   C342    1.400   .     A
C340   N357    1.374   .     A
C341   N358    1.375   .     A
C341   I356    2.118   .     S
C342   H352    1.081   .     S
H343   C193    1.086   1_655 S
N357   Zn372   2.017   .     S
N358   Zn371   2.017   .     S
N361   C707    1.157   .     S
O363   Zn371   1.999   .     S
O364   Zn372   1.999   .     S
O365   Zn372   1.986   .     S
O366   Zn371   1.986   .     S
O367   Zn371   1.971   .     S
O368   Zn372   1.971   .     S
O369   Zn372   1.976   .     S
O370   Zn371   1.976   .     S
C373   O427    1.290   .     A
C373   O425    1.290   .     A
C373   C386    1.438   .     S
C374   C376    1.401   .     A
C374   H406    1.081   .     S
C374   C403    1.401   .     A
C375   C395    1.425   .     A
C375   C404    1.401   .     A
C376   C399    1.425   .     A
C376   C3      1.523   1_556 S
C377   O429    1.281   .     A
C377   C379    1.399   .     S
C377   O431    1.281   .     A
C378   O430    1.283   .     A
C378   C380    1.400   .     S
C378   O432    1.280   .     A
C379   C504    1.326   1_455 S
C379   H529    1.086   1_455 S
C380   C441    1.326   .     S
C380   H469    1.088   .     S
C381   H408    1.085   .     S
C381   C383    1.384   .     A
C381   C392    1.395   .     A
C382   H409    1.085   .     S
C382   C385    1.384   .     A
C382   C393    1.395   .     A
C383   C394    1.446   .     S
C383   C386    1.409   .     A
C384   C387    1.432   .     S
C384   O428    1.287   .     A
C384   O426    1.289   .     A
C385   C387    1.407   .     A
C385   C396    1.446   .     S
C386   C388    1.400   .     A
C387   C389    1.397   .     A
C388   H410    1.084   .     S
C388   C390    1.381   .     A
C389   C391    1.381   .     A
C389   H411    1.083   .     S
C390   C392    1.398   .     A
C390   I415    2.123   .     S
C391   C393    1.400   .     A
C391   I416    2.124   .     S
C392   C579    1.430   1_545 S
C393   C578    1.430   .     S
C394   N421    1.157   .     T
C395   C400    1.415   .     A
C395   C397    1.443   .     S
C396   N422    1.157   .     T
C398   N424    1.157   .     T
C398   C399    1.443   .     S
C399   C401    1.415   .     A
C400   N419    1.364   .     A
C400   H412    1.083   .     S
C401   N420    1.364   .     A
C401   H413    1.082   .     S
C402   I417    2.115   .     S
C402   C404    1.400   .     A
C402   N419    1.374   .     A
C403   N420    1.375   .     A
C403   I418    2.118   .     S
C404   H414    1.081   .     S
H405   C441    1.086   .     S
H407   C504    1.088   1_455 S
N419   Zn434   2.017   .     S
N420   Zn433   2.017   .     S
N423   C25     1.157   1_556 S
O425   Zn433   1.999   .     S
O426   Zn434   1.999   .     S
O427   Zn434   1.986   .     S
O428   Zn433   1.986   .     S
O429   Zn433   1.971   .     S
O430   Zn434   1.971   .     S
O431   Zn434   1.976   .     S
O432   Zn433   1.976   .     S
C435   O489    1.290   .     A
C435   O487    1.290   .     A
C435   C448    1.438   .     S
C436   C438    1.401   .     A
C436   H468    1.081   .     S
C436   C465    1.401   .     A
C437   C457    1.425   .     A
C437   C466    1.401   .     A
C438   C461    1.425   .     A
C438   C65     1.523   1_556 S
C439   O491    1.281   .     A
C439   C441    1.399   .     S
C439   O493    1.281   .     A
C440   O492    1.283   .     A
C440   C442    1.400   .     S
C440   O494    1.280   .     A
C442   C503    1.326   .     S
C442   H531    1.088   .     S
C443   H470    1.085   .     S
C443   C445    1.384   .     A
C443   C454    1.395   .     A
C444   H471    1.085   .     S
C444   C447    1.384   .     A
C444   C455    1.395   .     A
C445   C456    1.446   .     S
C445   C448    1.409   .     A
C446   C449    1.432   .     S
C446   O490    1.287   .     A
C446   O488    1.289   .     A
C447   C449    1.407   .     A
C447   C458    1.446   .     S
C448   C450    1.400   .     A
C449   C451    1.397   .     A
C450   H472    1.084   .     S
C450   C452    1.381   .     A
C451   C453    1.381   .     A
C451   H473    1.083   .     S
C452   C454    1.398   .     A
C452   I477    2.123   .     S
C453   C455    1.400   .     A
C453   I478    2.124   .     S
C454   C641    1.430   1_545 S
C455   C640    1.430   .     S
C456   N483    1.157   .     T
C457   C462    1.415   .     A
C457   C459    1.443   .     S
C458   N484    1.157   .     T
C460   N486    1.157   .     T
C460   C461    1.443   .     S
C461   C463    1.415   .     A
C462   N481    1.364   .     A
C462   H474    1.083   .     S
C463   N482    1.364   .     A
C463   H475    1.082   .     S
C464   I479    2.115   .     S
C464   C466    1.400   .     A
C464   N481    1.374   .     A
C465   N482    1.375   .     A
C465   I480    2.118   .     S
C466   H476    1.081   .     S
H467   C503    1.086   .     S
N481   Zn496   2.017   .     S
N482   Zn495   2.017   .     S
N485   C87     1.157   1_556 S
O487   Zn495   1.999   .     S
O488   Zn496   1.999   .     S
O489   Zn496   1.986   .     S
O490   Zn495   1.986   .     S
O491   Zn495   1.971   .     S
O492   Zn496   1.971   .     S
O493   Zn496   1.976   .     S
O494   Zn495   1.976   .     S
C497   O551    1.290   .     A
C497   O549    1.290   .     A
C497   C510    1.438   .     S
C498   C500    1.401   .     A
C498   H530    1.081   .     S
C498   C527    1.401   .     A
C499   C519    1.425   .     A
C499   C528    1.401   .     A
C500   C523    1.425   .     A
C500   C127    1.523   1_556 S
C501   O553    1.281   .     A
C501   C503    1.399   .     S
C501   O555    1.281   .     A
C502   O554    1.283   .     A
C502   C504    1.400   .     S
C502   O556    1.280   .     A
C504   C379    1.326   1_655 S
C504   H407    1.088   1_655 S
C505   H532    1.085   .     S
C505   C507    1.384   .     A
C505   C516    1.395   .     A
C506   H533    1.085   .     S
C506   C509    1.384   .     A
C506   C517    1.395   .     A
C507   C518    1.446   .     S
C507   C510    1.409   .     A
C508   C511    1.432   .     S
C508   O552    1.287   .     A
C508   O550    1.289   .     A
C509   C511    1.407   .     A
C509   C520    1.446   .     S
C510   C512    1.400   .     A
C511   C513    1.397   .     A
C512   H534    1.084   .     S
C512   C514    1.381   .     A
C513   C515    1.381   .     A
C513   H535    1.083   .     S
C514   C516    1.398   .     A
C514   I539    2.123   .     S
C515   C517    1.400   .     A
C515   I540    2.124   .     S
C516   C703    1.430   1_545 S
C517   C702    1.430   .     S
C518   N545    1.157   .     T
C519   C524    1.415   .     A
C519   C521    1.443   .     S
C520   N546    1.157   .     T
C522   N548    1.157   .     T
C522   C523    1.443   .     S
C523   C525    1.415   .     A
C524   N543    1.364   .     A
C524   H536    1.083   .     S
C525   N544    1.364   .     A
C525   H537    1.082   .     S
C526   I541    2.115   .     S
C526   C528    1.400   .     A
C526   N543    1.374   .     A
C527   N544    1.375   .     A
C527   I542    2.118   .     S
C528   H538    1.081   .     S
H529   C379    1.086   1_655 S
N543   Zn558   2.017   .     S
N544   Zn557   2.017   .     S
N547   C149    1.157   1_556 S
O549   Zn557   1.999   .     S
O550   Zn558   1.999   .     S
O551   Zn558   1.986   .     S
O552   Zn557   1.986   .     S
O553   Zn557   1.971   .     S
O554   Zn558   1.971   .     S
O555   Zn558   1.976   .     S
O556   Zn557   1.976   .     S
C559   O613    1.290   .     A
C559   O611    1.290   .     A
C559   C572    1.438   .     S
C560   C562    1.401   .     A
C560   H592    1.081   .     S
C560   C589    1.401   .     A
C561   C581    1.425   .     A
C561   C590    1.401   .     A
C562   C585    1.425   .     A
C562   C189    1.523   1_556 S
C563   O615    1.281   .     A
C563   C565    1.399   .     S
C563   O617    1.281   .     A
C564   O616    1.283   .     A
C564   C566    1.400   .     S
C564   O618    1.280   .     A
C565   C690    1.326   1_455 S
C565   H715    1.086   1_455 S
C566   C627    1.326   .     S
C566   H655    1.088   .     S
C567   H594    1.085   .     S
C567   C569    1.384   .     A
C567   C578    1.395   .     A
C568   H595    1.085   .     S
C568   C571    1.384   .     A
C568   C579    1.395   .     A
C569   C580    1.446   .     S
C569   C572    1.409   .     A
C570   C573    1.432   .     S
C570   O614    1.287   .     A
C570   O612    1.289   .     A
C571   C573    1.407   .     A
C571   C582    1.446   .     S
C572   C574    1.400   .     A
C573   C575    1.397   .     A
C574   H596    1.084   .     S
C574   C576    1.381   .     A
C575   C577    1.381   .     A
C575   H597    1.083   .     S
C576   C578    1.398   .     A
C576   I601    2.123   .     S
C577   C579    1.400   .     A
C577   I602    2.124   .     S
C579   C392    1.430   1_565 S
C580   N607    1.157   .     T
C581   C586    1.415   .     A
C581   C583    1.443   .     S
C582   N608    1.157   .     T
C584   N610    1.157   .     T
C584   C585    1.443   .     S
C585   C587    1.415   .     A
C586   N605    1.364   .     A
C586   H598    1.083   .     S
C587   N606    1.364   .     A
C587   H599    1.082   .     S
C588   I603    2.115   .     S
C588   C590    1.400   .     A
C588   N605    1.374   .     A
C589   N606    1.375   .     A
C589   I604    2.118   .     S
C590   H600    1.081   .     S
H591   C627    1.086   .     S
H593   C690    1.088   1_455 S
N605   Zn620   2.017   .     S
N606   Zn619   2.017   .     S
N609   C211    1.157   1_556 S
O611   Zn619   1.999   .     S
O612   Zn620   1.999   .     S
O613   Zn620   1.986   .     S
O614   Zn619   1.986   .     S
O615   Zn619   1.971   .     S
O616   Zn620   1.971   .     S
O617   Zn620   1.976   .     S
O618   Zn619   1.976   .     S
C621   O675    1.290   .     A
C621   O673    1.290   .     A
C621   C634    1.438   .     S
C622   C624    1.401   .     A
C622   H654    1.081   .     S
C622   C651    1.401   .     A
C623   C643    1.425   .     A
C623   C652    1.401   .     A
C624   C647    1.425   .     A
C624   C251    1.523   1_556 S
C625   O677    1.281   .     A
C625   C627    1.399   .     S
C625   O679    1.281   .     A
C626   O678    1.283   .     A
C626   C628    1.400   .     S
C626   O680    1.280   .     A
C628   C689    1.326   .     S
C628   H717    1.088   .     S
C629   H656    1.085   .     S
C629   C631    1.384   .     A
C629   C640    1.395   .     A
C630   H657    1.085   .     S
C630   C633    1.384   .     A
C630   C641    1.395   .     A
C631   C642    1.446   .     S
C631   C634    1.409   .     A
C632   C635    1.432   .     S
C632   O676    1.287   .     A
C632   O674    1.289   .     A
C633   C635    1.407   .     A
C633   C644    1.446   .     S
C634   C636    1.400   .     A
C635   C637    1.397   .     A
C636   H658    1.084   .     S
C636   C638    1.381   .     A
C637   C639    1.381   .     A
C637   H659    1.083   .     S
C638   C640    1.398   .     A
C638   I663    2.123   .     S
C639   C641    1.400   .     A
C639   I664    2.124   .     S
C641   C454    1.430   1_565 S
C642   N669    1.157   .     T
C643   C648    1.415   .     A
C643   C645    1.443   .     S
C644   N670    1.157   .     T
C646   N672    1.157   .     T
C646   C647    1.443   .     S
C647   C649    1.415   .     A
C648   N667    1.364   .     A
C648   H660    1.083   .     S
C649   N668    1.364   .     A
C649   H661    1.082   .     S
C650   I665    2.115   .     S
C650   C652    1.400   .     A
C650   N667    1.374   .     A
C651   N668    1.375   .     A
C651   I666    2.118   .     S
C652   H662    1.081   .     S
H653   C689    1.086   .     S
N667   Zn682   2.017   .     S
N668   Zn681   2.017   .     S
N671   C273    1.157   1_556 S
O673   Zn681   1.999   .     S
O674   Zn682   1.999   .     S
O675   Zn682   1.986   .     S
O676   Zn681   1.986   .     S
O677   Zn681   1.971   .     S
O678   Zn682   1.971   .     S
O679   Zn682   1.976   .     S
O680   Zn681   1.976   .     S
C683   O737    1.290   .     A
C683   O735    1.290   .     A
C683   C696    1.438   .     S
C684   C686    1.401   .     A
C684   H716    1.081   .     S
C684   C713    1.401   .     A
C685   C705    1.425   .     A
C685   C714    1.401   .     A
C686   C709    1.425   .     A
C686   C313    1.523   1_556 S
C687   O739    1.281   .     A
C687   C689    1.399   .     S
C687   O741    1.281   .     A
C688   O740    1.283   .     A
C688   C690    1.400   .     S
C688   O742    1.280   .     A
C690   C565    1.326   1_655 S
C690   H593    1.088   1_655 S
C691   H718    1.085   .     S
C691   C693    1.384   .     A
C691   C702    1.395   .     A
C692   H719    1.085   .     S
C692   C695    1.384   .     A
C692   C703    1.395   .     A
C693   C704    1.446   .     S
C693   C696    1.409   .     A
C694   C697    1.432   .     S
C694   O738    1.287   .     A
C694   O736    1.289   .     A
C695   C697    1.407   .     A
C695   C706    1.446   .     S
C696   C698    1.400   .     A
C697   C699    1.397   .     A
C698   H720    1.084   .     S
C698   C700    1.381   .     A
C699   C701    1.381   .     A
C699   H721    1.083   .     S
C700   C702    1.398   .     A
C700   I725    2.123   .     S
C701   C703    1.400   .     A
C701   I726    2.124   .     S
C703   C516    1.430   1_565 S
C704   N731    1.157   .     T
C705   C710    1.415   .     A
C705   C707    1.443   .     S
C706   N732    1.157   .     T
C708   N734    1.157   .     T
C708   C709    1.443   .     S
C709   C711    1.415   .     A
C710   N729    1.364   .     A
C710   H722    1.083   .     S
C711   N730    1.364   .     A
C711   H723    1.082   .     S
C712   I727    2.115   .     S
C712   C714    1.400   .     A
C712   N729    1.374   .     A
C713   N730    1.375   .     A
C713   I728    2.118   .     S
C714   H724    1.081   .     S
H715   C565    1.086   1_655 S
N729   Zn744   2.017   .     S
N730   Zn743   2.017   .     S
N733   C335    1.157   1_556 S
O735   Zn743   1.999   .     S
O736   Zn744   1.999   .     S
O737   Zn744   1.986   .     S
O738   Zn743   1.986   .     S
O739   Zn743   1.971   .     S
O740   Zn744   1.971   .     S
O741   Zn744   1.976   .     S
O742   Zn743   1.976   .     S
