data_str_m3_o1_o1_pcu_sym.15
_audit_creation_date              2020-01-03
_audit_creation_method            'Materials Studio'
_symmetry_space_group_name_H-M    'P1'
_symmetry_Int_Tables_number       1
_symmetry_cell_setting            triclinic
loop_
_symmetry_equiv_pos_as_xyz
  x,y,z
_cell_length_a                    30.2047
_cell_length_b                    30.3988
_cell_length_c                    29.4468
_cell_angle_alpha                 91.6813
_cell_angle_beta                  89.7914
_cell_angle_gamma                 90.7175
loop_
_atom_site_label
_atom_site_type_symbol
_atom_site_fract_x
_atom_site_fract_y
_atom_site_fract_z
_atom_site_U_iso_or_equiv
_atom_site_adp_type
_atom_site_occupancy
C1     C     0.05903   0.18888   0.16601   0.00000  Uiso   1.00
C2     C     0.03833   0.25722   0.30940   0.00000  Uiso   1.00
C3     C     0.03831   0.25731   0.02408   0.00000  Uiso   1.00
C4     C     0.46171   0.24261   0.30925   0.00000  Uiso   1.00
C5     C     0.21314   0.48719   0.02377   0.00000  Uiso   1.00
C6     C     0.28690   0.01278   0.30957   0.00000  Uiso   1.00
C7     C     0.28693   0.01269   0.02424   0.00000  Uiso   1.00
C8     C     0.21335   0.48664   0.30912   0.00000  Uiso   1.00
C9     C     0.41589   0.11569   0.14562   0.00000  Uiso   1.00
C10    C     0.08535   0.38276   0.19077   0.00000  Uiso   1.00
C11    C     0.13377   0.33293   0.14624   0.00000  Uiso   1.00
C12    C     0.44094   0.31102   0.16734   0.00000  Uiso   1.00
C13    C     0.36521   0.16790   0.18397   0.00000  Uiso   1.00
C14    C     0.09771   0.13088   0.20478   0.00000  Uiso   1.00
C15    C     0.40692   0.37337   0.13125   0.00000  Uiso   1.00
C16    C     0.37899   0.34886   0.20533   0.00000  Uiso   1.00
C17    C     0.11912   0.14915   0.12642   0.00000  Uiso   1.00
C18    C     0.16486   0.36670   0.14217   0.00000  Uiso   1.00
C19    C     0.33354   0.13455   0.18766   0.00000  Uiso   1.00
C20    C     0.38447   0.08225   0.14986   0.00000  Uiso   1.00
C21    C     0.11616   0.41663   0.18620   0.00000  Uiso   1.00
C22    C     0.34328   0.37683   0.20206   0.00000  Uiso   1.00
C23    C     0.44020   0.18988   0.16609   0.00000  Uiso   1.00
C24    C     0.15501   0.12135   0.12900   0.00000  Uiso   1.00
C25    C     0.13514   0.10527   0.20820   0.00000  Uiso   1.00
C26    C     0.37133   0.40154   0.12808   0.00000  Uiso   1.00
C27    C     0.09396   0.34212   0.16893   0.00000  Uiso   1.00
C28    C     0.40632   0.15744   0.16450   0.00000  Uiso   1.00
C29    C     0.40926   0.34576   0.16875   0.00000  Uiso   1.00
C30    C     0.09122   0.15448   0.16482   0.00000  Uiso   1.00
C31    C     0.34333   0.09277   0.16902   0.00000  Uiso   1.00
C32    C     0.15627   0.40738   0.16412   0.00000  Uiso   1.00
C33    C     0.16096   0.09738   0.16877   0.00000  Uiso   1.00
C34    C     0.06005   0.30982   0.16726   0.00000  Uiso   1.00
C35    C     0.34093   0.40444   0.16457   0.00000  Uiso   1.00
C36    C     0.45628   0.11143   0.07485   0.00000  Uiso   1.00
C37    C     0.04869   0.38253   0.26386   0.00000  Uiso   1.00
C38    C     0.15987   0.26097   0.16421   0.00000  Uiso   1.00
C39    C     0.34096   0.23897   0.16076   0.00000  Uiso   1.00
C40    C     0.02561   0.10899   0.23392   0.00000  Uiso   1.00
C41    C     0.48053   0.39719   0.10904   0.00000  Uiso   1.00
C42    C     0.40801   0.34385   0.28132   0.00000  Uiso   1.00
C43    C     0.08570   0.15171   0.05190   0.00000  Uiso   1.00
C44    C     0.20226   0.36715   0.06946   0.00000  Uiso   1.00
C45    C     0.30913   0.43906   0.16600   0.00000  Uiso   1.00
C46    C     0.28872   0.13735   0.25612   0.00000  Uiso   1.00
C47    C     0.40930   0.01165   0.17387   0.00000  Uiso   1.00
C48    C     0.09058   0.48839   0.16648   0.00000  Uiso   1.00
C49    C     0.26979   0.35271   0.22438   0.00000  Uiso   1.00
C50    C     0.22668   0.14332   0.09920   0.00000  Uiso   1.00
C51    C     0.12987   0.05403   0.27087   0.00000  Uiso   1.00
C52    C     0.34265   0.40830   0.05204   0.00000  Uiso   1.00
C53    C     0.19178   0.06179   0.16738   0.00000  Uiso   1.00
C54    C     0.19015   0.43988   0.16602   0.00000  Uiso   1.00
C55    C     0.30962   0.06025   0.16727   0.00000  Uiso   1.00
C56    C     0.46169   0.24269   0.02394   0.00000  Uiso   1.00
H57    H     0.43107   0.23696   0.04212   0.00000  Uiso   1.00
H58    H     0.43067   0.08922   0.05941   0.00000  Uiso   1.00
H59    H     0.48880   0.10217   0.06013   0.00000  Uiso   1.00
H60    H     0.44907   0.14573   0.06568   0.00000  Uiso   1.00
H61    H     0.02926   0.41828   0.20855   0.00000  Uiso   1.00
H62    H     0.01552   0.38543   0.27989   0.00000  Uiso   1.00
H63    H     0.07117   0.40744   0.28013   0.00000  Uiso   1.00
H64    H     0.06159   0.34930   0.27033   0.00000  Uiso   1.00
H65    H     0.16027   0.28695   0.09989   0.00000  Uiso   1.00
H66    H     0.19167   0.27445   0.17785   0.00000  Uiso   1.00
H67    H     0.16596   0.22776   0.14914   0.00000  Uiso   1.00
H68    H     0.06896   0.26285   0.29121   0.00000  Uiso   1.00
H69    H     0.13567   0.25771   0.19245   0.00000  Uiso   1.00
H70    H     0.33626   0.21584   0.22619   0.00000  Uiso   1.00
H71    H     0.31001   0.22500   0.14561   0.00000  Uiso   1.00
H72    H     0.36688   0.24091   0.13403   0.00000  Uiso   1.00
H73    H     0.33415   0.27278   0.17377   0.00000  Uiso   1.00
H74    H     0.07875   0.13130   0.27395   0.00000  Uiso   1.00
H75    H     0.03217   0.07327   0.22939   0.00000  Uiso   1.00
H76    H     0.00855   0.12057   0.20329   0.00000  Uiso   1.00
H77    H     0.00320   0.11415   0.26352   0.00000  Uiso   1.00
H78    H     0.43063   0.37756   0.06423   0.00000  Uiso   1.00
H79    H     0.06895   0.26299   0.04237   0.00000  Uiso   1.00
H80    H     0.47326   0.43279   0.11355   0.00000  Uiso   1.00
H81    H     0.00558   0.39283   0.08164   0.00000  Uiso   1.00
H82    H     0.49464   0.38479   0.14079   0.00000  Uiso   1.00
H83    H     0.35469   0.30735   0.25498   0.00000  Uiso   1.00
H84    H     0.39174   0.37470   0.29304   0.00000  Uiso   1.00
H85    H     0.44221   0.35196   0.27024   0.00000  Uiso   1.00
H86    H     0.40981   0.32149   0.31035   0.00000  Uiso   1.00
H87    H     0.14103   0.18806   0.07342   0.00000  Uiso   1.00
H88    H     0.10085   0.12037   0.03992   0.00000  Uiso   1.00
H89    H     0.08216   0.17330   0.02243   0.00000  Uiso   1.00
H90    H     0.43109   0.23684   0.29096   0.00000  Uiso   1.00
H91    H     0.05229   0.14458   0.06562   0.00000  Uiso   1.00
H92    H     0.22071   0.33078   0.12459   0.00000  Uiso   1.00
H93    H     0.18051   0.34199   0.05258   0.00000  Uiso   1.00
H94    H     0.23571   0.36507   0.05395   0.00000  Uiso   1.00
H95    H     0.18875   0.40013   0.06312   0.00000  Uiso   1.00
H96    H     0.27691   0.17183   0.19777   0.00000  Uiso   1.00
H97    H     0.25360   0.13886   0.26728   0.00000  Uiso   1.00
H98    H     0.30777   0.16376   0.27444   0.00000  Uiso   1.00
H99    H     0.30211   0.10507   0.26552   0.00000  Uiso   1.00
H100   H     0.41336   0.03376   0.10806   0.00000  Uiso   1.00
H101   H     0.18354   0.47734   0.04175   0.00000  Uiso   1.00
H102   H     0.41596   0.47764   0.16134   0.00000  Uiso   1.00
H103   H     0.38366   0.01014   0.20094   0.00000  Uiso   1.00
H104   H     0.44042   0.02588   0.18840   0.00000  Uiso   1.00
H105   H     0.08807   0.46295   0.23099   0.00000  Uiso   1.00
H106   H     0.05861   0.47537   0.15279   0.00000  Uiso   1.00
H107   H     0.11512   0.49052   0.13843   0.00000  Uiso   1.00
H108   H     0.08526   0.02210   0.18078   0.00000  Uiso   1.00
H109   H     0.31956   0.37288   0.26913   0.00000  Uiso   1.00
H110   H     0.27720   0.31711   0.22033   0.00000  Uiso   1.00
H111   H     0.25575   0.36470   0.19240   0.00000  Uiso   1.00
H112   H     0.31643   0.02284   0.29156   0.00000  Uiso   1.00
H113   H     0.24462   0.35729   0.25163   0.00000  Uiso   1.00
H114   H     0.17357   0.12064   0.05999   0.00000  Uiso   1.00
H115   H     0.21963   0.17908   0.10193   0.00000  Uiso   1.00
H116   H     0.24942   0.13717   0.07005   0.00000  Uiso   1.00
H117   H     0.24348   0.13299   0.13046   0.00000  Uiso   1.00
H118   H     0.15270   0.11882   0.27516   0.00000  Uiso   1.00
H119   H     0.09361   0.05737   0.27456   0.00000  Uiso   1.00
H120   H     0.14383   0.04883   0.30508   0.00000  Uiso   1.00
H121   H     0.13707   0.02483   0.24916   0.00000  Uiso   1.00
H122   H     0.39629   0.44364   0.07929   0.00000  Uiso   1.00
H123   H     0.31653   0.02262   0.04259   0.00000  Uiso   1.00
H124   H     0.35928   0.37817   0.03887   0.00000  Uiso   1.00
H125   H     0.34012   0.43183   0.02408   0.00000  Uiso   1.00
H126   H     0.30870   0.39920   0.06311   0.00000  Uiso   1.00
H127   H     0.18413   0.47561   0.29082   0.00000  Uiso   1.00
H128   H     0.47238   0.07907   0.13353   0.00000  Uiso   1.00
N129   N     0.00000   0.25000   0.28573   0.00000  Uiso   1.00
N130   N     0.44070   0.37274   0.09704   0.00000  Uiso   1.00
N131   N     0.38348   0.32257   0.24442   0.00000  Uiso   1.00
N132   N     0.11275   0.17372   0.08637   0.00000  Uiso   1.00
N133   N     0.20521   0.35987   0.11775   0.00000  Uiso   1.00
N134   N     0.29117   0.14297   0.20750   0.00000  Uiso   1.00
N135   N     0.39415   0.03777   0.13679   0.00000  Uiso   1.00
N136   N     0.10660   0.46040   0.20165   0.00000  Uiso   1.00
N137   N     0.30949   0.37742   0.23627   0.00000  Uiso   1.00
N138   N     0.18610   0.11830   0.09227   0.00000  Uiso   1.00
N139   N     0.15013   0.09283   0.25195   0.00000  Uiso   1.00
N140   N     0.00000   0.25000   0.04760   0.00000  Uiso   1.00
N141   N     0.36731   0.42854   0.08945   0.00000  Uiso   1.00
N142   N     0.25000   0.00000   0.28573   0.00000  Uiso   1.00
N143   N     0.25000   0.00000   0.04760   0.00000  Uiso   1.00
N144   N     0.45734   0.10753   0.12377   0.00000  Uiso   1.00
N145   N     0.04517   0.38945   0.21554   0.00000  Uiso   1.00
N146   N     0.14272   0.28924   0.12987   0.00000  Uiso   1.00
N147   N     0.35568   0.21225   0.19756   0.00000  Uiso   1.00
N148   N     0.06655   0.13338   0.24151   0.00000  Uiso   1.00
O149   O     0.04581   0.20419   0.20487   0.00000  Uiso   1.00
O150   O     0.20420   0.04581   0.12846   0.00000  Uiso   1.00
O151   O     0.20420   0.04581   0.20487   0.00000  Uiso   1.00
O152   O     0.29581   0.45419   0.12846   0.00000  Uiso   1.00
O153   O     0.20420   0.45419   0.12846   0.00000  Uiso   1.00
O154   O     0.29581   0.04581   0.20487   0.00000  Uiso   1.00
O155   O     0.29581   0.04581   0.12846   0.00000  Uiso   1.00
O156   O     0.20420   0.45419   0.20487   0.00000  Uiso   1.00
O157   O     0.45420   0.29581   0.12846   0.00000  Uiso   1.00
O158   O     0.45420   0.29581   0.20487   0.00000  Uiso   1.00
O159   O     0.04581   0.20419   0.12846   0.00000  Uiso   1.00
O160   O     0.45420   0.20419   0.12846   0.00000  Uiso   1.00
O161   O     0.04581   0.29581   0.20487   0.00000  Uiso   1.00
O162   O     0.04581   0.29581   0.12846   0.00000  Uiso   1.00
O163   O     0.45420   0.20419   0.20487   0.00000  Uiso   1.00
O164   O     0.29581   0.45419   0.20487   0.00000  Uiso   1.00
Zn165  Zn    0.00000   0.25000   0.21771   0.00000  Uiso   1.00
Zn166  Zn    0.00000   0.25000   0.11563   0.00000  Uiso   1.00
Zn167  Zn    0.25000   0.00000   0.21771   0.00000  Uiso   1.00
Zn168  Zn    0.25000   0.00000   0.11563   0.00000  Uiso   1.00
C169   C     0.55903   0.18888   0.16601   0.00000  Uiso   1.00
C170   C     0.53833   0.25722   0.30940   0.00000  Uiso   1.00
C171   C     0.53831   0.25731   0.02408   0.00000  Uiso   1.00
C172   C     0.96171   0.24261   0.30925   0.00000  Uiso   1.00
C173   C     0.71314   0.48719   0.02377   0.00000  Uiso   1.00
C174   C     0.78690   0.01278   0.30957   0.00000  Uiso   1.00
C175   C     0.78693   0.01269   0.02424   0.00000  Uiso   1.00
C176   C     0.71335   0.48664   0.30912   0.00000  Uiso   1.00
C177   C     0.91589   0.11569   0.14562   0.00000  Uiso   1.00
C178   C     0.58535   0.38276   0.19077   0.00000  Uiso   1.00
C179   C     0.63377   0.33293   0.14624   0.00000  Uiso   1.00
C180   C     0.94094   0.31102   0.16734   0.00000  Uiso   1.00
C181   C     0.86521   0.16790   0.18397   0.00000  Uiso   1.00
C182   C     0.59771   0.13088   0.20478   0.00000  Uiso   1.00
C183   C     0.90692   0.37337   0.13125   0.00000  Uiso   1.00
C184   C     0.87899   0.34886   0.20533   0.00000  Uiso   1.00
C185   C     0.61912   0.14915   0.12642   0.00000  Uiso   1.00
C186   C     0.66486   0.36670   0.14217   0.00000  Uiso   1.00
C187   C     0.83354   0.13455   0.18766   0.00000  Uiso   1.00
C188   C     0.88447   0.08225   0.14986   0.00000  Uiso   1.00
C189   C     0.61616   0.41663   0.18620   0.00000  Uiso   1.00
C190   C     0.84328   0.37683   0.20206   0.00000  Uiso   1.00
C191   C     0.94020   0.18988   0.16609   0.00000  Uiso   1.00
C192   C     0.65501   0.12135   0.12900   0.00000  Uiso   1.00
C193   C     0.63514   0.10527   0.20820   0.00000  Uiso   1.00
C194   C     0.87133   0.40154   0.12808   0.00000  Uiso   1.00
C195   C     0.59396   0.34212   0.16893   0.00000  Uiso   1.00
C196   C     0.90632   0.15744   0.16450   0.00000  Uiso   1.00
C197   C     0.90926   0.34576   0.16875   0.00000  Uiso   1.00
C198   C     0.59122   0.15448   0.16482   0.00000  Uiso   1.00
C199   C     0.84333   0.09277   0.16902   0.00000  Uiso   1.00
C200   C     0.65627   0.40738   0.16412   0.00000  Uiso   1.00
C201   C     0.66096   0.09738   0.16877   0.00000  Uiso   1.00
C202   C     0.56005   0.30982   0.16726   0.00000  Uiso   1.00
C203   C     0.84093   0.40444   0.16457   0.00000  Uiso   1.00
C204   C     0.95628   0.11143   0.07485   0.00000  Uiso   1.00
C205   C     0.54869   0.38253   0.26386   0.00000  Uiso   1.00
C206   C     0.65987   0.26097   0.16421   0.00000  Uiso   1.00
C207   C     0.84096   0.23897   0.16076   0.00000  Uiso   1.00
C208   C     0.52561   0.10899   0.23392   0.00000  Uiso   1.00
C209   C     0.98053   0.39719   0.10904   0.00000  Uiso   1.00
C210   C     0.90801   0.34385   0.28132   0.00000  Uiso   1.00
C211   C     0.58570   0.15171   0.05190   0.00000  Uiso   1.00
C212   C     0.70226   0.36715   0.06946   0.00000  Uiso   1.00
C213   C     0.80913   0.43906   0.16600   0.00000  Uiso   1.00
C214   C     0.78872   0.13735   0.25612   0.00000  Uiso   1.00
C215   C     0.90930   0.01165   0.17387   0.00000  Uiso   1.00
C216   C     0.59058   0.48839   0.16648   0.00000  Uiso   1.00
C217   C     0.76979   0.35271   0.22438   0.00000  Uiso   1.00
C218   C     0.72668   0.14332   0.09920   0.00000  Uiso   1.00
C219   C     0.62987   0.05403   0.27087   0.00000  Uiso   1.00
C220   C     0.84265   0.40830   0.05204   0.00000  Uiso   1.00
C221   C     0.69178   0.06179   0.16738   0.00000  Uiso   1.00
C222   C     0.69015   0.43988   0.16602   0.00000  Uiso   1.00
C223   C     0.80962   0.06025   0.16727   0.00000  Uiso   1.00
C224   C     0.96169   0.24269   0.02394   0.00000  Uiso   1.00
H225   H     0.93107   0.23696   0.04212   0.00000  Uiso   1.00
H226   H     0.93067   0.08922   0.05941   0.00000  Uiso   1.00
H227   H     0.98880   0.10217   0.06013   0.00000  Uiso   1.00
H228   H     0.94907   0.14573   0.06568   0.00000  Uiso   1.00
H229   H     0.52926   0.41828   0.20855   0.00000  Uiso   1.00
H230   H     0.51552   0.38543   0.27989   0.00000  Uiso   1.00
H231   H     0.57117   0.40744   0.28013   0.00000  Uiso   1.00
H232   H     0.56159   0.34930   0.27033   0.00000  Uiso   1.00
H233   H     0.66027   0.28695   0.09989   0.00000  Uiso   1.00
H234   H     0.69167   0.27445   0.17785   0.00000  Uiso   1.00
H235   H     0.66596   0.22776   0.14914   0.00000  Uiso   1.00
H236   H     0.56896   0.26285   0.29121   0.00000  Uiso   1.00
H237   H     0.63567   0.25771   0.19245   0.00000  Uiso   1.00
H238   H     0.83626   0.21584   0.22619   0.00000  Uiso   1.00
H239   H     0.81001   0.22500   0.14561   0.00000  Uiso   1.00
H240   H     0.86688   0.24091   0.13403   0.00000  Uiso   1.00
H241   H     0.83415   0.27278   0.17377   0.00000  Uiso   1.00
H242   H     0.57875   0.13130   0.27395   0.00000  Uiso   1.00
H243   H     0.53217   0.07327   0.22939   0.00000  Uiso   1.00
H244   H     0.50855   0.12057   0.20329   0.00000  Uiso   1.00
H245   H     0.50320   0.11415   0.26352   0.00000  Uiso   1.00
H246   H     0.93063   0.37756   0.06423   0.00000  Uiso   1.00
H247   H     0.56895   0.26299   0.04237   0.00000  Uiso   1.00
H248   H     0.97326   0.43279   0.11355   0.00000  Uiso   1.00
H249   H     0.50558   0.39283   0.08164   0.00000  Uiso   1.00
H250   H     0.99464   0.38479   0.14079   0.00000  Uiso   1.00
H251   H     0.85469   0.30735   0.25498   0.00000  Uiso   1.00
H252   H     0.89174   0.37470   0.29304   0.00000  Uiso   1.00
H253   H     0.94221   0.35196   0.27024   0.00000  Uiso   1.00
H254   H     0.90981   0.32149   0.31035   0.00000  Uiso   1.00
H255   H     0.64103   0.18806   0.07342   0.00000  Uiso   1.00
H256   H     0.60085   0.12037   0.03992   0.00000  Uiso   1.00
H257   H     0.58216   0.17330   0.02243   0.00000  Uiso   1.00
H258   H     0.93109   0.23684   0.29096   0.00000  Uiso   1.00
H259   H     0.55229   0.14458   0.06562   0.00000  Uiso   1.00
H260   H     0.72071   0.33078   0.12459   0.00000  Uiso   1.00
H261   H     0.68051   0.34199   0.05258   0.00000  Uiso   1.00
H262   H     0.73571   0.36507   0.05395   0.00000  Uiso   1.00
H263   H     0.68875   0.40013   0.06312   0.00000  Uiso   1.00
H264   H     0.77691   0.17183   0.19777   0.00000  Uiso   1.00
H265   H     0.75360   0.13886   0.26728   0.00000  Uiso   1.00
H266   H     0.80777   0.16376   0.27444   0.00000  Uiso   1.00
H267   H     0.80211   0.10507   0.26552   0.00000  Uiso   1.00
H268   H     0.91336   0.03376   0.10806   0.00000  Uiso   1.00
H269   H     0.68354   0.47734   0.04175   0.00000  Uiso   1.00
H270   H     0.91596   0.47764   0.16134   0.00000  Uiso   1.00
H271   H     0.88366   0.01014   0.20094   0.00000  Uiso   1.00
H272   H     0.94042   0.02588   0.18840   0.00000  Uiso   1.00
H273   H     0.58807   0.46295   0.23099   0.00000  Uiso   1.00
H274   H     0.55861   0.47537   0.15279   0.00000  Uiso   1.00
H275   H     0.61512   0.49052   0.13843   0.00000  Uiso   1.00
H276   H     0.58526   0.02210   0.18078   0.00000  Uiso   1.00
H277   H     0.81956   0.37288   0.26913   0.00000  Uiso   1.00
H278   H     0.77720   0.31711   0.22033   0.00000  Uiso   1.00
H279   H     0.75575   0.36470   0.19240   0.00000  Uiso   1.00
H280   H     0.81643   0.02284   0.29156   0.00000  Uiso   1.00
H281   H     0.74462   0.35729   0.25163   0.00000  Uiso   1.00
H282   H     0.67357   0.12064   0.05999   0.00000  Uiso   1.00
H283   H     0.71963   0.17908   0.10193   0.00000  Uiso   1.00
H284   H     0.74942   0.13717   0.07005   0.00000  Uiso   1.00
H285   H     0.74348   0.13299   0.13046   0.00000  Uiso   1.00
H286   H     0.65270   0.11882   0.27516   0.00000  Uiso   1.00
H287   H     0.59361   0.05737   0.27456   0.00000  Uiso   1.00
H288   H     0.64383   0.04883   0.30508   0.00000  Uiso   1.00
H289   H     0.63707   0.02483   0.24916   0.00000  Uiso   1.00
H290   H     0.89629   0.44364   0.07929   0.00000  Uiso   1.00
H291   H     0.81653   0.02262   0.04259   0.00000  Uiso   1.00
H292   H     0.85928   0.37817   0.03887   0.00000  Uiso   1.00
H293   H     0.84012   0.43183   0.02408   0.00000  Uiso   1.00
H294   H     0.80870   0.39920   0.06311   0.00000  Uiso   1.00
H295   H     0.68413   0.47561   0.29082   0.00000  Uiso   1.00
H296   H     0.97238   0.07907   0.13353   0.00000  Uiso   1.00
N297   N     0.50000   0.25000   0.28573   0.00000  Uiso   1.00
N298   N     0.94070   0.37274   0.09704   0.00000  Uiso   1.00
N299   N     0.88348   0.32257   0.24442   0.00000  Uiso   1.00
N300   N     0.61275   0.17372   0.08637   0.00000  Uiso   1.00
N301   N     0.70521   0.35987   0.11775   0.00000  Uiso   1.00
N302   N     0.79117   0.14297   0.20750   0.00000  Uiso   1.00
N303   N     0.89415   0.03777   0.13679   0.00000  Uiso   1.00
N304   N     0.60660   0.46040   0.20165   0.00000  Uiso   1.00
N305   N     0.80949   0.37742   0.23627   0.00000  Uiso   1.00
N306   N     0.68610   0.11830   0.09227   0.00000  Uiso   1.00
N307   N     0.65013   0.09283   0.25195   0.00000  Uiso   1.00
N308   N     0.50000   0.25000   0.04760   0.00000  Uiso   1.00
N309   N     0.86731   0.42854   0.08945   0.00000  Uiso   1.00
N310   N     0.75000   0.00000   0.28573   0.00000  Uiso   1.00
N311   N     0.75000   0.00000   0.04760   0.00000  Uiso   1.00
N312   N     0.95734   0.10753   0.12377   0.00000  Uiso   1.00
N313   N     0.54517   0.38945   0.21554   0.00000  Uiso   1.00
N314   N     0.64272   0.28924   0.12987   0.00000  Uiso   1.00
N315   N     0.85568   0.21225   0.19756   0.00000  Uiso   1.00
N316   N     0.56655   0.13338   0.24151   0.00000  Uiso   1.00
O317   O     0.54581   0.20419   0.20487   0.00000  Uiso   1.00
O318   O     0.70420   0.04581   0.12846   0.00000  Uiso   1.00
O319   O     0.70420   0.04581   0.20487   0.00000  Uiso   1.00
O320   O     0.79581   0.45419   0.12846   0.00000  Uiso   1.00
O321   O     0.70420   0.45419   0.12846   0.00000  Uiso   1.00
O322   O     0.79581   0.04581   0.20487   0.00000  Uiso   1.00
O323   O     0.79581   0.04581   0.12846   0.00000  Uiso   1.00
O324   O     0.70420   0.45419   0.20487   0.00000  Uiso   1.00
O325   O     0.95420   0.29581   0.12846   0.00000  Uiso   1.00
O326   O     0.95420   0.29581   0.20487   0.00000  Uiso   1.00
O327   O     0.54581   0.20419   0.12846   0.00000  Uiso   1.00
O328   O     0.95420   0.20419   0.12846   0.00000  Uiso   1.00
O329   O     0.54581   0.29581   0.20487   0.00000  Uiso   1.00
O330   O     0.54581   0.29581   0.12846   0.00000  Uiso   1.00
O331   O     0.95420   0.20419   0.20487   0.00000  Uiso   1.00
O332   O     0.79581   0.45419   0.20487   0.00000  Uiso   1.00
Zn333  Zn    0.50000   0.25000   0.21771   0.00000  Uiso   1.00
Zn334  Zn    0.50000   0.25000   0.11563   0.00000  Uiso   1.00
Zn335  Zn    0.75000   0.00000   0.21771   0.00000  Uiso   1.00
Zn336  Zn    0.75000   0.00000   0.11563   0.00000  Uiso   1.00
C337   C     0.05903   0.68888   0.16601   0.00000  Uiso   1.00
C338   C     0.03833   0.75722   0.30940   0.00000  Uiso   1.00
C339   C     0.03831   0.75731   0.02408   0.00000  Uiso   1.00
C340   C     0.46171   0.74261   0.30925   0.00000  Uiso   1.00
C341   C     0.21314   0.98719   0.02377   0.00000  Uiso   1.00
C342   C     0.28690   0.51278   0.30957   0.00000  Uiso   1.00
C343   C     0.28693   0.51269   0.02424   0.00000  Uiso   1.00
C344   C     0.21335   0.98664   0.30912   0.00000  Uiso   1.00
C345   C     0.41589   0.61569   0.14562   0.00000  Uiso   1.00
C346   C     0.08535   0.88276   0.19077   0.00000  Uiso   1.00
C347   C     0.13377   0.83293   0.14624   0.00000  Uiso   1.00
C348   C     0.44094   0.81102   0.16734   0.00000  Uiso   1.00
C349   C     0.36521   0.66790   0.18397   0.00000  Uiso   1.00
C350   C     0.09771   0.63088   0.20478   0.00000  Uiso   1.00
C351   C     0.40692   0.87337   0.13125   0.00000  Uiso   1.00
C352   C     0.37899   0.84886   0.20533   0.00000  Uiso   1.00
C353   C     0.11912   0.64915   0.12642   0.00000  Uiso   1.00
C354   C     0.16486   0.86670   0.14217   0.00000  Uiso   1.00
C355   C     0.33354   0.63455   0.18766   0.00000  Uiso   1.00
C356   C     0.38447   0.58225   0.14986   0.00000  Uiso   1.00
C357   C     0.11616   0.91663   0.18620   0.00000  Uiso   1.00
C358   C     0.34328   0.87683   0.20206   0.00000  Uiso   1.00
C359   C     0.44020   0.68988   0.16609   0.00000  Uiso   1.00
C360   C     0.15501   0.62135   0.12900   0.00000  Uiso   1.00
C361   C     0.13514   0.60527   0.20820   0.00000  Uiso   1.00
C362   C     0.37133   0.90154   0.12808   0.00000  Uiso   1.00
C363   C     0.09396   0.84212   0.16893   0.00000  Uiso   1.00
C364   C     0.40632   0.65744   0.16450   0.00000  Uiso   1.00
C365   C     0.40926   0.84576   0.16875   0.00000  Uiso   1.00
C366   C     0.09122   0.65448   0.16482   0.00000  Uiso   1.00
C367   C     0.34333   0.59277   0.16902   0.00000  Uiso   1.00
C368   C     0.15627   0.90738   0.16412   0.00000  Uiso   1.00
C369   C     0.16096   0.59738   0.16877   0.00000  Uiso   1.00
C370   C     0.06005   0.80982   0.16726   0.00000  Uiso   1.00
C371   C     0.34093   0.90444   0.16457   0.00000  Uiso   1.00
C372   C     0.45628   0.61143   0.07485   0.00000  Uiso   1.00
C373   C     0.04869   0.88253   0.26386   0.00000  Uiso   1.00
C374   C     0.15987   0.76097   0.16421   0.00000  Uiso   1.00
C375   C     0.34096   0.73897   0.16076   0.00000  Uiso   1.00
C376   C     0.02561   0.60899   0.23392   0.00000  Uiso   1.00
C377   C     0.48053   0.89719   0.10904   0.00000  Uiso   1.00
C378   C     0.40801   0.84385   0.28132   0.00000  Uiso   1.00
C379   C     0.08570   0.65171   0.05190   0.00000  Uiso   1.00
C380   C     0.20226   0.86715   0.06946   0.00000  Uiso   1.00
C381   C     0.30913   0.93906   0.16600   0.00000  Uiso   1.00
C382   C     0.28872   0.63735   0.25612   0.00000  Uiso   1.00
C383   C     0.40930   0.51165   0.17387   0.00000  Uiso   1.00
C384   C     0.09058   0.98839   0.16648   0.00000  Uiso   1.00
C385   C     0.26979   0.85271   0.22438   0.00000  Uiso   1.00
C386   C     0.22668   0.64332   0.09920   0.00000  Uiso   1.00
C387   C     0.12987   0.55403   0.27087   0.00000  Uiso   1.00
C388   C     0.34265   0.90830   0.05204   0.00000  Uiso   1.00
C389   C     0.19178   0.56179   0.16738   0.00000  Uiso   1.00
C390   C     0.19015   0.93988   0.16602   0.00000  Uiso   1.00
C391   C     0.30962   0.56025   0.16727   0.00000  Uiso   1.00
C392   C     0.46169   0.74269   0.02394   0.00000  Uiso   1.00
H393   H     0.43107   0.73696   0.04212   0.00000  Uiso   1.00
H394   H     0.43067   0.58922   0.05941   0.00000  Uiso   1.00
H395   H     0.48880   0.60217   0.06013   0.00000  Uiso   1.00
H396   H     0.44907   0.64573   0.06568   0.00000  Uiso   1.00
H397   H     0.02926   0.91828   0.20855   0.00000  Uiso   1.00
H398   H     0.01552   0.88543   0.27989   0.00000  Uiso   1.00
H399   H     0.07117   0.90744   0.28013   0.00000  Uiso   1.00
H400   H     0.06159   0.84930   0.27033   0.00000  Uiso   1.00
H401   H     0.16027   0.78695   0.09989   0.00000  Uiso   1.00
H402   H     0.19167   0.77445   0.17785   0.00000  Uiso   1.00
H403   H     0.16596   0.72776   0.14914   0.00000  Uiso   1.00
H404   H     0.06896   0.76285   0.29121   0.00000  Uiso   1.00
H405   H     0.13567   0.75771   0.19245   0.00000  Uiso   1.00
H406   H     0.33626   0.71584   0.22619   0.00000  Uiso   1.00
H407   H     0.31001   0.72500   0.14561   0.00000  Uiso   1.00
H408   H     0.36688   0.74091   0.13403   0.00000  Uiso   1.00
H409   H     0.33415   0.77278   0.17377   0.00000  Uiso   1.00
H410   H     0.07875   0.63130   0.27395   0.00000  Uiso   1.00
H411   H     0.03217   0.57327   0.22939   0.00000  Uiso   1.00
H412   H     0.00855   0.62057   0.20329   0.00000  Uiso   1.00
H413   H     0.00320   0.61415   0.26352   0.00000  Uiso   1.00
H414   H     0.43063   0.87756   0.06423   0.00000  Uiso   1.00
H415   H     0.06895   0.76299   0.04237   0.00000  Uiso   1.00
H416   H     0.47326   0.93279   0.11355   0.00000  Uiso   1.00
H417   H     0.00558   0.89283   0.08164   0.00000  Uiso   1.00
H418   H     0.49464   0.88479   0.14079   0.00000  Uiso   1.00
H419   H     0.35469   0.80735   0.25498   0.00000  Uiso   1.00
H420   H     0.39174   0.87470   0.29304   0.00000  Uiso   1.00
H421   H     0.44221   0.85196   0.27024   0.00000  Uiso   1.00
H422   H     0.40981   0.82149   0.31035   0.00000  Uiso   1.00
H423   H     0.14103   0.68806   0.07342   0.00000  Uiso   1.00
H424   H     0.10085   0.62037   0.03992   0.00000  Uiso   1.00
H425   H     0.08216   0.67330   0.02243   0.00000  Uiso   1.00
H426   H     0.43109   0.73684   0.29096   0.00000  Uiso   1.00
H427   H     0.05229   0.64458   0.06562   0.00000  Uiso   1.00
H428   H     0.22071   0.83078   0.12459   0.00000  Uiso   1.00
H429   H     0.18051   0.84199   0.05258   0.00000  Uiso   1.00
H430   H     0.23571   0.86507   0.05395   0.00000  Uiso   1.00
H431   H     0.18875   0.90013   0.06312   0.00000  Uiso   1.00
H432   H     0.27691   0.67183   0.19777   0.00000  Uiso   1.00
H433   H     0.25360   0.63886   0.26728   0.00000  Uiso   1.00
H434   H     0.30777   0.66376   0.27444   0.00000  Uiso   1.00
H435   H     0.30211   0.60507   0.26552   0.00000  Uiso   1.00
H436   H     0.41336   0.53376   0.10806   0.00000  Uiso   1.00
H437   H     0.18354   0.97734   0.04175   0.00000  Uiso   1.00
H438   H     0.41596   0.97764   0.16134   0.00000  Uiso   1.00
H439   H     0.38366   0.51014   0.20094   0.00000  Uiso   1.00
H440   H     0.44042   0.52588   0.18840   0.00000  Uiso   1.00
H441   H     0.08807   0.96295   0.23099   0.00000  Uiso   1.00
H442   H     0.05861   0.97537   0.15279   0.00000  Uiso   1.00
H443   H     0.11512   0.99052   0.13843   0.00000  Uiso   1.00
H444   H     0.08526   0.52210   0.18078   0.00000  Uiso   1.00
H445   H     0.31956   0.87288   0.26913   0.00000  Uiso   1.00
H446   H     0.27720   0.81711   0.22033   0.00000  Uiso   1.00
H447   H     0.25575   0.86470   0.19240   0.00000  Uiso   1.00
H448   H     0.31643   0.52284   0.29156   0.00000  Uiso   1.00
H449   H     0.24462   0.85729   0.25163   0.00000  Uiso   1.00
H450   H     0.17357   0.62064   0.05999   0.00000  Uiso   1.00
H451   H     0.21963   0.67908   0.10193   0.00000  Uiso   1.00
H452   H     0.24942   0.63717   0.07005   0.00000  Uiso   1.00
H453   H     0.24348   0.63299   0.13046   0.00000  Uiso   1.00
H454   H     0.15270   0.61882   0.27516   0.00000  Uiso   1.00
H455   H     0.09361   0.55737   0.27456   0.00000  Uiso   1.00
H456   H     0.14383   0.54883   0.30508   0.00000  Uiso   1.00
H457   H     0.13707   0.52483   0.24916   0.00000  Uiso   1.00
H458   H     0.39629   0.94364   0.07929   0.00000  Uiso   1.00
H459   H     0.31653   0.52262   0.04259   0.00000  Uiso   1.00
H460   H     0.35928   0.87817   0.03887   0.00000  Uiso   1.00
H461   H     0.34012   0.93183   0.02408   0.00000  Uiso   1.00
H462   H     0.30870   0.89920   0.06311   0.00000  Uiso   1.00
H463   H     0.18413   0.97561   0.29082   0.00000  Uiso   1.00
H464   H     0.47238   0.57907   0.13353   0.00000  Uiso   1.00
N465   N     0.00000   0.75000   0.28573   0.00000  Uiso   1.00
N466   N     0.44070   0.87274   0.09704   0.00000  Uiso   1.00
N467   N     0.38348   0.82257   0.24442   0.00000  Uiso   1.00
N468   N     0.11275   0.67372   0.08637   0.00000  Uiso   1.00
N469   N     0.20521   0.85987   0.11775   0.00000  Uiso   1.00
N470   N     0.29117   0.64297   0.20750   0.00000  Uiso   1.00
N471   N     0.39415   0.53777   0.13679   0.00000  Uiso   1.00
N472   N     0.10660   0.96040   0.20165   0.00000  Uiso   1.00
N473   N     0.30949   0.87742   0.23627   0.00000  Uiso   1.00
N474   N     0.18610   0.61830   0.09227   0.00000  Uiso   1.00
N475   N     0.15013   0.59283   0.25195   0.00000  Uiso   1.00
N476   N     0.00000   0.75000   0.04760   0.00000  Uiso   1.00
N477   N     0.36731   0.92854   0.08945   0.00000  Uiso   1.00
N478   N     0.25000   0.50000   0.28573   0.00000  Uiso   1.00
N479   N     0.25000   0.50000   0.04760   0.00000  Uiso   1.00
N480   N     0.45734   0.60753   0.12377   0.00000  Uiso   1.00
N481   N     0.04517   0.88945   0.21554   0.00000  Uiso   1.00
N482   N     0.14272   0.78924   0.12987   0.00000  Uiso   1.00
N483   N     0.35568   0.71225   0.19756   0.00000  Uiso   1.00
N484   N     0.06655   0.63338   0.24151   0.00000  Uiso   1.00
O485   O     0.04581   0.70419   0.20487   0.00000  Uiso   1.00
O486   O     0.20420   0.54581   0.12846   0.00000  Uiso   1.00
O487   O     0.20420   0.54581   0.20487   0.00000  Uiso   1.00
O488   O     0.29581   0.95419   0.12846   0.00000  Uiso   1.00
O489   O     0.20420   0.95419   0.12846   0.00000  Uiso   1.00
O490   O     0.29581   0.54581   0.20487   0.00000  Uiso   1.00
O491   O     0.29581   0.54581   0.12846   0.00000  Uiso   1.00
O492   O     0.20420   0.95419   0.20487   0.00000  Uiso   1.00
O493   O     0.45420   0.79581   0.12846   0.00000  Uiso   1.00
O494   O     0.45420   0.79581   0.20487   0.00000  Uiso   1.00
O495   O     0.04581   0.70419   0.12846   0.00000  Uiso   1.00
O496   O     0.45420   0.70419   0.12846   0.00000  Uiso   1.00
O497   O     0.04581   0.79581   0.20487   0.00000  Uiso   1.00
O498   O     0.04581   0.79581   0.12846   0.00000  Uiso   1.00
O499   O     0.45420   0.70419   0.20487   0.00000  Uiso   1.00
O500   O     0.29581   0.95419   0.20487   0.00000  Uiso   1.00
Zn501  Zn    0.00000   0.75000   0.21771   0.00000  Uiso   1.00
Zn502  Zn    0.00000   0.75000   0.11563   0.00000  Uiso   1.00
Zn503  Zn    0.25000   0.50000   0.21771   0.00000  Uiso   1.00
Zn504  Zn    0.25000   0.50000   0.11563   0.00000  Uiso   1.00
C505   C     0.55903   0.68888   0.16601   0.00000  Uiso   1.00
C506   C     0.53833   0.75722   0.30940   0.00000  Uiso   1.00
C507   C     0.53831   0.75731   0.02408   0.00000  Uiso   1.00
C508   C     0.96171   0.74261   0.30925   0.00000  Uiso   1.00
C509   C     0.71314   0.98719   0.02377   0.00000  Uiso   1.00
C510   C     0.78690   0.51278   0.30957   0.00000  Uiso   1.00
C511   C     0.78693   0.51269   0.02424   0.00000  Uiso   1.00
C512   C     0.71335   0.98664   0.30912   0.00000  Uiso   1.00
C513   C     0.91589   0.61569   0.14562   0.00000  Uiso   1.00
C514   C     0.58535   0.88276   0.19077   0.00000  Uiso   1.00
C515   C     0.63377   0.83293   0.14624   0.00000  Uiso   1.00
C516   C     0.94094   0.81102   0.16734   0.00000  Uiso   1.00
C517   C     0.86521   0.66790   0.18397   0.00000  Uiso   1.00
C518   C     0.59771   0.63088   0.20478   0.00000  Uiso   1.00
C519   C     0.90692   0.87337   0.13125   0.00000  Uiso   1.00
C520   C     0.87899   0.84886   0.20533   0.00000  Uiso   1.00
C521   C     0.61912   0.64915   0.12642   0.00000  Uiso   1.00
C522   C     0.66486   0.86670   0.14217   0.00000  Uiso   1.00
C523   C     0.83354   0.63455   0.18766   0.00000  Uiso   1.00
C524   C     0.88447   0.58225   0.14986   0.00000  Uiso   1.00
C525   C     0.61616   0.91663   0.18620   0.00000  Uiso   1.00
C526   C     0.84328   0.87683   0.20206   0.00000  Uiso   1.00
C527   C     0.94020   0.68988   0.16609   0.00000  Uiso   1.00
C528   C     0.65501   0.62135   0.12900   0.00000  Uiso   1.00
C529   C     0.63514   0.60527   0.20820   0.00000  Uiso   1.00
C530   C     0.87133   0.90154   0.12808   0.00000  Uiso   1.00
C531   C     0.59396   0.84212   0.16893   0.00000  Uiso   1.00
C532   C     0.90632   0.65744   0.16450   0.00000  Uiso   1.00
C533   C     0.90926   0.84576   0.16875   0.00000  Uiso   1.00
C534   C     0.59122   0.65448   0.16482   0.00000  Uiso   1.00
C535   C     0.84333   0.59277   0.16902   0.00000  Uiso   1.00
C536   C     0.65627   0.90738   0.16412   0.00000  Uiso   1.00
C537   C     0.66096   0.59738   0.16877   0.00000  Uiso   1.00
C538   C     0.56005   0.80982   0.16726   0.00000  Uiso   1.00
C539   C     0.84093   0.90444   0.16457   0.00000  Uiso   1.00
C540   C     0.95628   0.61143   0.07485   0.00000  Uiso   1.00
C541   C     0.54869   0.88253   0.26386   0.00000  Uiso   1.00
C542   C     0.65987   0.76097   0.16421   0.00000  Uiso   1.00
C543   C     0.84096   0.73897   0.16076   0.00000  Uiso   1.00
C544   C     0.52561   0.60899   0.23392   0.00000  Uiso   1.00
C545   C     0.98053   0.89719   0.10904   0.00000  Uiso   1.00
C546   C     0.90801   0.84385   0.28132   0.00000  Uiso   1.00
C547   C     0.58570   0.65171   0.05190   0.00000  Uiso   1.00
C548   C     0.70226   0.86715   0.06946   0.00000  Uiso   1.00
C549   C     0.80913   0.93906   0.16600   0.00000  Uiso   1.00
C550   C     0.78872   0.63735   0.25612   0.00000  Uiso   1.00
C551   C     0.90930   0.51165   0.17387   0.00000  Uiso   1.00
C552   C     0.59058   0.98839   0.16648   0.00000  Uiso   1.00
C553   C     0.76979   0.85271   0.22438   0.00000  Uiso   1.00
C554   C     0.72668   0.64332   0.09920   0.00000  Uiso   1.00
C555   C     0.62987   0.55403   0.27087   0.00000  Uiso   1.00
C556   C     0.84265   0.90830   0.05204   0.00000  Uiso   1.00
C557   C     0.69178   0.56179   0.16738   0.00000  Uiso   1.00
C558   C     0.69015   0.93988   0.16602   0.00000  Uiso   1.00
C559   C     0.80962   0.56025   0.16727   0.00000  Uiso   1.00
C560   C     0.96169   0.74269   0.02394   0.00000  Uiso   1.00
H561   H     0.93107   0.73696   0.04212   0.00000  Uiso   1.00
H562   H     0.93067   0.58922   0.05941   0.00000  Uiso   1.00
H563   H     0.98880   0.60217   0.06013   0.00000  Uiso   1.00
H564   H     0.94907   0.64573   0.06568   0.00000  Uiso   1.00
H565   H     0.52926   0.91828   0.20855   0.00000  Uiso   1.00
H566   H     0.51552   0.88543   0.27989   0.00000  Uiso   1.00
H567   H     0.57117   0.90744   0.28013   0.00000  Uiso   1.00
H568   H     0.56159   0.84930   0.27033   0.00000  Uiso   1.00
H569   H     0.66027   0.78695   0.09989   0.00000  Uiso   1.00
H570   H     0.69167   0.77445   0.17785   0.00000  Uiso   1.00
H571   H     0.66596   0.72776   0.14914   0.00000  Uiso   1.00
H572   H     0.56896   0.76285   0.29121   0.00000  Uiso   1.00
H573   H     0.63567   0.75771   0.19245   0.00000  Uiso   1.00
H574   H     0.83626   0.71584   0.22619   0.00000  Uiso   1.00
H575   H     0.81001   0.72500   0.14561   0.00000  Uiso   1.00
H576   H     0.86688   0.74091   0.13403   0.00000  Uiso   1.00
H577   H     0.83415   0.77278   0.17377   0.00000  Uiso   1.00
H578   H     0.57875   0.63130   0.27395   0.00000  Uiso   1.00
H579   H     0.53217   0.57327   0.22939   0.00000  Uiso   1.00
H580   H     0.50855   0.62057   0.20329   0.00000  Uiso   1.00
H581   H     0.50320   0.61415   0.26352   0.00000  Uiso   1.00
H582   H     0.93063   0.87756   0.06423   0.00000  Uiso   1.00
H583   H     0.56895   0.76299   0.04237   0.00000  Uiso   1.00
H584   H     0.97326   0.93279   0.11355   0.00000  Uiso   1.00
H585   H     0.50558   0.89283   0.08164   0.00000  Uiso   1.00
H586   H     0.99464   0.88479   0.14079   0.00000  Uiso   1.00
H587   H     0.85469   0.80735   0.25498   0.00000  Uiso   1.00
H588   H     0.89174   0.87470   0.29304   0.00000  Uiso   1.00
H589   H     0.94221   0.85196   0.27024   0.00000  Uiso   1.00
H590   H     0.90981   0.82149   0.31035   0.00000  Uiso   1.00
H591   H     0.64103   0.68806   0.07342   0.00000  Uiso   1.00
H592   H     0.60085   0.62037   0.03992   0.00000  Uiso   1.00
H593   H     0.58216   0.67330   0.02243   0.00000  Uiso   1.00
H594   H     0.93109   0.73684   0.29096   0.00000  Uiso   1.00
H595   H     0.55229   0.64458   0.06562   0.00000  Uiso   1.00
H596   H     0.72071   0.83078   0.12459   0.00000  Uiso   1.00
H597   H     0.68051   0.84199   0.05258   0.00000  Uiso   1.00
H598   H     0.73571   0.86507   0.05395   0.00000  Uiso   1.00
H599   H     0.68875   0.90013   0.06312   0.00000  Uiso   1.00
H600   H     0.77691   0.67183   0.19777   0.00000  Uiso   1.00
H601   H     0.75360   0.63886   0.26728   0.00000  Uiso   1.00
H602   H     0.80777   0.66376   0.27444   0.00000  Uiso   1.00
H603   H     0.80211   0.60507   0.26552   0.00000  Uiso   1.00
H604   H     0.91336   0.53376   0.10806   0.00000  Uiso   1.00
H605   H     0.68354   0.97734   0.04175   0.00000  Uiso   1.00
H606   H     0.91596   0.97764   0.16134   0.00000  Uiso   1.00
H607   H     0.88366   0.51014   0.20094   0.00000  Uiso   1.00
H608   H     0.94042   0.52588   0.18840   0.00000  Uiso   1.00
H609   H     0.58807   0.96295   0.23099   0.00000  Uiso   1.00
H610   H     0.55861   0.97537   0.15279   0.00000  Uiso   1.00
H611   H     0.61512   0.99052   0.13843   0.00000  Uiso   1.00
H612   H     0.58526   0.52210   0.18078   0.00000  Uiso   1.00
H613   H     0.81956   0.87288   0.26913   0.00000  Uiso   1.00
H614   H     0.77720   0.81711   0.22033   0.00000  Uiso   1.00
H615   H     0.75575   0.86470   0.19240   0.00000  Uiso   1.00
H616   H     0.81643   0.52284   0.29156   0.00000  Uiso   1.00
H617   H     0.74462   0.85729   0.25163   0.00000  Uiso   1.00
H618   H     0.67357   0.62064   0.05999   0.00000  Uiso   1.00
H619   H     0.71963   0.67908   0.10193   0.00000  Uiso   1.00
H620   H     0.74942   0.63717   0.07005   0.00000  Uiso   1.00
H621   H     0.74348   0.63299   0.13046   0.00000  Uiso   1.00
H622   H     0.65270   0.61882   0.27516   0.00000  Uiso   1.00
H623   H     0.59361   0.55737   0.27456   0.00000  Uiso   1.00
H624   H     0.64383   0.54883   0.30508   0.00000  Uiso   1.00
H625   H     0.63707   0.52483   0.24916   0.00000  Uiso   1.00
H626   H     0.89629   0.94364   0.07929   0.00000  Uiso   1.00
H627   H     0.81653   0.52262   0.04259   0.00000  Uiso   1.00
H628   H     0.85928   0.87817   0.03887   0.00000  Uiso   1.00
H629   H     0.84012   0.93183   0.02408   0.00000  Uiso   1.00
H630   H     0.80870   0.89920   0.06311   0.00000  Uiso   1.00
H631   H     0.68413   0.97561   0.29082   0.00000  Uiso   1.00
H632   H     0.97238   0.57907   0.13353   0.00000  Uiso   1.00
N633   N     0.50000   0.75000   0.28573   0.00000  Uiso   1.00
N634   N     0.94070   0.87274   0.09704   0.00000  Uiso   1.00
N635   N     0.88348   0.82257   0.24442   0.00000  Uiso   1.00
N636   N     0.61275   0.67372   0.08637   0.00000  Uiso   1.00
N637   N     0.70521   0.85987   0.11775   0.00000  Uiso   1.00
N638   N     0.79117   0.64297   0.20750   0.00000  Uiso   1.00
N639   N     0.89415   0.53777   0.13679   0.00000  Uiso   1.00
N640   N     0.60660   0.96040   0.20165   0.00000  Uiso   1.00
N641   N     0.80949   0.87742   0.23627   0.00000  Uiso   1.00
N642   N     0.68610   0.61830   0.09227   0.00000  Uiso   1.00
N643   N     0.65013   0.59283   0.25195   0.00000  Uiso   1.00
N644   N     0.50000   0.75000   0.04760   0.00000  Uiso   1.00
N645   N     0.86731   0.92854   0.08945   0.00000  Uiso   1.00
N646   N     0.75000   0.50000   0.28573   0.00000  Uiso   1.00
N647   N     0.75000   0.50000   0.04760   0.00000  Uiso   1.00
N648   N     0.95734   0.60753   0.12377   0.00000  Uiso   1.00
N649   N     0.54517   0.88945   0.21554   0.00000  Uiso   1.00
N650   N     0.64272   0.78924   0.12987   0.00000  Uiso   1.00
N651   N     0.85568   0.71225   0.19756   0.00000  Uiso   1.00
N652   N     0.56655   0.63338   0.24151   0.00000  Uiso   1.00
O653   O     0.54581   0.70419   0.20487   0.00000  Uiso   1.00
O654   O     0.70420   0.54581   0.12846   0.00000  Uiso   1.00
O655   O     0.70420   0.54581   0.20487   0.00000  Uiso   1.00
O656   O     0.79581   0.95419   0.12846   0.00000  Uiso   1.00
O657   O     0.70420   0.95419   0.12846   0.00000  Uiso   1.00
O658   O     0.79581   0.54581   0.20487   0.00000  Uiso   1.00
O659   O     0.79581   0.54581   0.12846   0.00000  Uiso   1.00
O660   O     0.70420   0.95419   0.20487   0.00000  Uiso   1.00
O661   O     0.95420   0.79581   0.12846   0.00000  Uiso   1.00
O662   O     0.95420   0.79581   0.20487   0.00000  Uiso   1.00
O663   O     0.54581   0.70419   0.12846   0.00000  Uiso   1.00
O664   O     0.95420   0.70419   0.12846   0.00000  Uiso   1.00
O665   O     0.54581   0.79581   0.20487   0.00000  Uiso   1.00
O666   O     0.54581   0.79581   0.12846   0.00000  Uiso   1.00
O667   O     0.95420   0.70419   0.20487   0.00000  Uiso   1.00
O668   O     0.79581   0.95419   0.20487   0.00000  Uiso   1.00
Zn669  Zn    0.50000   0.75000   0.21771   0.00000  Uiso   1.00
Zn670  Zn    0.50000   0.75000   0.11563   0.00000  Uiso   1.00
Zn671  Zn    0.75000   0.50000   0.21771   0.00000  Uiso   1.00
Zn672  Zn    0.75000   0.50000   0.11563   0.00000  Uiso   1.00
C673   C     0.05903   0.18888   0.49935   0.00000  Uiso   1.00
C674   C     0.03833   0.25722   0.64273   0.00000  Uiso   1.00
C675   C     0.03831   0.25731   0.35741   0.00000  Uiso   1.00
C676   C     0.46171   0.24261   0.64258   0.00000  Uiso   1.00
C677   C     0.21314   0.48719   0.35710   0.00000  Uiso   1.00
C678   C     0.28690   0.01278   0.64290   0.00000  Uiso   1.00
C679   C     0.28693   0.01269   0.35757   0.00000  Uiso   1.00
C680   C     0.21335   0.48664   0.64245   0.00000  Uiso   1.00
C681   C     0.41589   0.11569   0.47895   0.00000  Uiso   1.00
C682   C     0.08535   0.38276   0.52410   0.00000  Uiso   1.00
C683   C     0.13377   0.33293   0.47957   0.00000  Uiso   1.00
C684   C     0.44094   0.31102   0.50067   0.00000  Uiso   1.00
C685   C     0.36521   0.16790   0.51730   0.00000  Uiso   1.00
C686   C     0.09771   0.13088   0.53811   0.00000  Uiso   1.00
C687   C     0.40692   0.37337   0.46458   0.00000  Uiso   1.00
C688   C     0.37899   0.34886   0.53867   0.00000  Uiso   1.00
C689   C     0.11912   0.14915   0.45975   0.00000  Uiso   1.00
C690   C     0.16486   0.36670   0.47551   0.00000  Uiso   1.00
C691   C     0.33354   0.13455   0.52100   0.00000  Uiso   1.00
C692   C     0.38447   0.08225   0.48319   0.00000  Uiso   1.00
C693   C     0.11616   0.41663   0.51954   0.00000  Uiso   1.00
C694   C     0.34328   0.37683   0.53539   0.00000  Uiso   1.00
C695   C     0.44020   0.18988   0.49942   0.00000  Uiso   1.00
C696   C     0.15501   0.12135   0.46234   0.00000  Uiso   1.00
C697   C     0.13514   0.10527   0.54153   0.00000  Uiso   1.00
C698   C     0.37133   0.40154   0.46142   0.00000  Uiso   1.00
C699   C     0.09396   0.34212   0.50226   0.00000  Uiso   1.00
C700   C     0.40632   0.15744   0.49783   0.00000  Uiso   1.00
C701   C     0.40926   0.34576   0.50208   0.00000  Uiso   1.00
C702   C     0.09122   0.15448   0.49815   0.00000  Uiso   1.00
C703   C     0.34333   0.09277   0.50235   0.00000  Uiso   1.00
C704   C     0.15627   0.40738   0.49745   0.00000  Uiso   1.00
C705   C     0.16096   0.09738   0.50210   0.00000  Uiso   1.00
C706   C     0.06005   0.30982   0.50059   0.00000  Uiso   1.00
C707   C     0.34093   0.40444   0.49791   0.00000  Uiso   1.00
C708   C     0.45628   0.11143   0.40818   0.00000  Uiso   1.00
C709   C     0.04869   0.38253   0.59719   0.00000  Uiso   1.00
C710   C     0.15987   0.26097   0.49754   0.00000  Uiso   1.00
C711   C     0.34096   0.23897   0.49409   0.00000  Uiso   1.00
C712   C     0.02561   0.10899   0.56725   0.00000  Uiso   1.00
C713   C     0.48053   0.39719   0.44237   0.00000  Uiso   1.00
C714   C     0.40801   0.34385   0.61465   0.00000  Uiso   1.00
C715   C     0.08570   0.15171   0.38523   0.00000  Uiso   1.00
C716   C     0.20226   0.36715   0.40280   0.00000  Uiso   1.00
C717   C     0.30913   0.43906   0.49933   0.00000  Uiso   1.00
C718   C     0.28872   0.13735   0.58945   0.00000  Uiso   1.00
C719   C     0.40930   0.01165   0.50721   0.00000  Uiso   1.00
C720   C     0.09058   0.48839   0.49982   0.00000  Uiso   1.00
C721   C     0.26979   0.35271   0.55771   0.00000  Uiso   1.00
C722   C     0.22668   0.14332   0.43254   0.00000  Uiso   1.00
C723   C     0.12987   0.05403   0.60421   0.00000  Uiso   1.00
C724   C     0.34265   0.40830   0.38537   0.00000  Uiso   1.00
C725   C     0.19178   0.06179   0.50071   0.00000  Uiso   1.00
C726   C     0.19015   0.43988   0.49936   0.00000  Uiso   1.00
C727   C     0.30962   0.06025   0.50061   0.00000  Uiso   1.00
C728   C     0.46169   0.24269   0.35727   0.00000  Uiso   1.00
H729   H     0.43107   0.23696   0.37546   0.00000  Uiso   1.00
H730   H     0.43067   0.08922   0.39274   0.00000  Uiso   1.00
H731   H     0.48880   0.10217   0.39347   0.00000  Uiso   1.00
H732   H     0.44907   0.14573   0.39901   0.00000  Uiso   1.00
H733   H     0.02926   0.41828   0.54188   0.00000  Uiso   1.00
H734   H     0.01552   0.38543   0.61322   0.00000  Uiso   1.00
H735   H     0.07117   0.40744   0.61346   0.00000  Uiso   1.00
H736   H     0.06159   0.34930   0.60366   0.00000  Uiso   1.00
H737   H     0.16027   0.28695   0.43323   0.00000  Uiso   1.00
H738   H     0.19167   0.27445   0.51119   0.00000  Uiso   1.00
H739   H     0.16596   0.22776   0.48247   0.00000  Uiso   1.00
H740   H     0.06896   0.26285   0.62454   0.00000  Uiso   1.00
H741   H     0.13567   0.25771   0.52578   0.00000  Uiso   1.00
H742   H     0.33626   0.21584   0.55953   0.00000  Uiso   1.00
H743   H     0.31001   0.22500   0.47895   0.00000  Uiso   1.00
H744   H     0.36688   0.24091   0.46737   0.00000  Uiso   1.00
H745   H     0.33415   0.27278   0.50710   0.00000  Uiso   1.00
H746   H     0.07875   0.13130   0.60729   0.00000  Uiso   1.00
H747   H     0.03217   0.07327   0.56272   0.00000  Uiso   1.00
H748   H     0.00855   0.12057   0.53662   0.00000  Uiso   1.00
H749   H     0.00320   0.11415   0.59685   0.00000  Uiso   1.00
H750   H     0.43063   0.37756   0.39756   0.00000  Uiso   1.00
H751   H     0.06895   0.26299   0.37570   0.00000  Uiso   1.00
H752   H     0.47326   0.43279   0.44689   0.00000  Uiso   1.00
H753   H     0.00558   0.39283   0.41497   0.00000  Uiso   1.00
H754   H     0.49464   0.38479   0.47413   0.00000  Uiso   1.00
H755   H     0.35469   0.30735   0.58831   0.00000  Uiso   1.00
H756   H     0.39174   0.37470   0.62637   0.00000  Uiso   1.00
H757   H     0.44221   0.35196   0.60357   0.00000  Uiso   1.00
H758   H     0.40981   0.32149   0.64368   0.00000  Uiso   1.00
H759   H     0.14103   0.18806   0.40675   0.00000  Uiso   1.00
H760   H     0.10085   0.12037   0.37325   0.00000  Uiso   1.00
H761   H     0.08216   0.17330   0.35576   0.00000  Uiso   1.00
H762   H     0.43109   0.23684   0.62429   0.00000  Uiso   1.00
H763   H     0.05229   0.14458   0.39896   0.00000  Uiso   1.00
H764   H     0.22071   0.33078   0.45792   0.00000  Uiso   1.00
H765   H     0.18051   0.34199   0.38591   0.00000  Uiso   1.00
H766   H     0.23571   0.36507   0.38729   0.00000  Uiso   1.00
H767   H     0.18875   0.40013   0.39645   0.00000  Uiso   1.00
H768   H     0.27691   0.17183   0.53111   0.00000  Uiso   1.00
H769   H     0.25360   0.13886   0.60062   0.00000  Uiso   1.00
H770   H     0.30777   0.16376   0.60777   0.00000  Uiso   1.00
H771   H     0.30211   0.10507   0.59886   0.00000  Uiso   1.00
H772   H     0.41336   0.03376   0.44139   0.00000  Uiso   1.00
H773   H     0.18354   0.47734   0.37509   0.00000  Uiso   1.00
H774   H     0.41596   0.47764   0.49468   0.00000  Uiso   1.00
H775   H     0.38366   0.01014   0.53427   0.00000  Uiso   1.00
H776   H     0.44042   0.02588   0.52173   0.00000  Uiso   1.00
H777   H     0.08807   0.46295   0.56432   0.00000  Uiso   1.00
H778   H     0.05861   0.47537   0.48612   0.00000  Uiso   1.00
H779   H     0.11512   0.49052   0.47176   0.00000  Uiso   1.00
H780   H     0.08526   0.02210   0.51411   0.00000  Uiso   1.00
H781   H     0.31956   0.37288   0.60247   0.00000  Uiso   1.00
H782   H     0.27720   0.31711   0.55367   0.00000  Uiso   1.00
H783   H     0.25575   0.36470   0.52573   0.00000  Uiso   1.00
H784   H     0.31643   0.02284   0.62489   0.00000  Uiso   1.00
H785   H     0.24462   0.35729   0.58497   0.00000  Uiso   1.00
H786   H     0.17357   0.12064   0.39332   0.00000  Uiso   1.00
H787   H     0.21963   0.17908   0.43526   0.00000  Uiso   1.00
H788   H     0.24942   0.13717   0.40339   0.00000  Uiso   1.00
H789   H     0.24348   0.13299   0.46379   0.00000  Uiso   1.00
H790   H     0.15270   0.11882   0.60849   0.00000  Uiso   1.00
H791   H     0.09361   0.05737   0.60789   0.00000  Uiso   1.00
H792   H     0.14383   0.04883   0.63841   0.00000  Uiso   1.00
H793   H     0.13707   0.02483   0.58249   0.00000  Uiso   1.00
H794   H     0.39629   0.44364   0.41262   0.00000  Uiso   1.00
H795   H     0.31653   0.02262   0.37592   0.00000  Uiso   1.00
H796   H     0.35928   0.37817   0.37220   0.00000  Uiso   1.00
H797   H     0.34012   0.43183   0.35741   0.00000  Uiso   1.00
H798   H     0.30870   0.39920   0.39645   0.00000  Uiso   1.00
H799   H     0.18413   0.47561   0.62415   0.00000  Uiso   1.00
H800   H     0.47238   0.07907   0.46686   0.00000  Uiso   1.00
N801   N     0.00000   0.25000   0.61907   0.00000  Uiso   1.00
N802   N     0.44070   0.37274   0.43037   0.00000  Uiso   1.00
N803   N     0.38348   0.32257   0.57775   0.00000  Uiso   1.00
N804   N     0.11275   0.17372   0.41971   0.00000  Uiso   1.00
N805   N     0.20521   0.35987   0.45108   0.00000  Uiso   1.00
N806   N     0.29117   0.14297   0.54083   0.00000  Uiso   1.00
N807   N     0.39415   0.03777   0.47013   0.00000  Uiso   1.00
N808   N     0.10660   0.46040   0.53498   0.00000  Uiso   1.00
N809   N     0.30949   0.37742   0.56960   0.00000  Uiso   1.00
N810   N     0.18610   0.11830   0.42560   0.00000  Uiso   1.00
N811   N     0.15013   0.09283   0.58528   0.00000  Uiso   1.00
N812   N     0.00000   0.25000   0.38093   0.00000  Uiso   1.00
N813   N     0.36731   0.42854   0.42279   0.00000  Uiso   1.00
N814   N     0.25000   0.00000   0.61907   0.00000  Uiso   1.00
N815   N     0.25000   0.00000   0.38093   0.00000  Uiso   1.00
N816   N     0.45734   0.10753   0.45710   0.00000  Uiso   1.00
N817   N     0.04517   0.38945   0.54887   0.00000  Uiso   1.00
N818   N     0.14272   0.28924   0.46320   0.00000  Uiso   1.00
N819   N     0.35568   0.21225   0.53089   0.00000  Uiso   1.00
N820   N     0.06655   0.13338   0.57484   0.00000  Uiso   1.00
O821   O     0.04581   0.20419   0.53821   0.00000  Uiso   1.00
O822   O     0.20420   0.04581   0.46179   0.00000  Uiso   1.00
O823   O     0.20420   0.04581   0.53821   0.00000  Uiso   1.00
O824   O     0.29581   0.45419   0.46179   0.00000  Uiso   1.00
O825   O     0.20420   0.45419   0.46179   0.00000  Uiso   1.00
O826   O     0.29581   0.04581   0.53821   0.00000  Uiso   1.00
O827   O     0.29581   0.04581   0.46179   0.00000  Uiso   1.00
O828   O     0.20420   0.45419   0.53821   0.00000  Uiso   1.00
O829   O     0.45420   0.29581   0.46179   0.00000  Uiso   1.00
O830   O     0.45420   0.29581   0.53821   0.00000  Uiso   1.00
O831   O     0.04581   0.20419   0.46179   0.00000  Uiso   1.00
O832   O     0.45420   0.20419   0.46179   0.00000  Uiso   1.00
O833   O     0.04581   0.29581   0.53821   0.00000  Uiso   1.00
O834   O     0.04581   0.29581   0.46179   0.00000  Uiso   1.00
O835   O     0.45420   0.20419   0.53821   0.00000  Uiso   1.00
O836   O     0.29581   0.45419   0.53821   0.00000  Uiso   1.00
Zn837  Zn    0.00000   0.25000   0.55104   0.00000  Uiso   1.00
Zn838  Zn    0.00000   0.25000   0.44896   0.00000  Uiso   1.00
Zn839  Zn    0.25000   0.00000   0.55104   0.00000  Uiso   1.00
Zn840  Zn    0.25000   0.00000   0.44896   0.00000  Uiso   1.00
C841   C     0.55903   0.18888   0.49935   0.00000  Uiso   1.00
C842   C     0.53833   0.25722   0.64273   0.00000  Uiso   1.00
C843   C     0.53831   0.25731   0.35741   0.00000  Uiso   1.00
C844   C     0.96171   0.24261   0.64258   0.00000  Uiso   1.00
C845   C     0.71314   0.48719   0.35710   0.00000  Uiso   1.00
C846   C     0.78690   0.01278   0.64290   0.00000  Uiso   1.00
C847   C     0.78693   0.01269   0.35757   0.00000  Uiso   1.00
C848   C     0.71335   0.48664   0.64245   0.00000  Uiso   1.00
C849   C     0.91589   0.11569   0.47895   0.00000  Uiso   1.00
C850   C     0.58535   0.38276   0.52410   0.00000  Uiso   1.00
C851   C     0.63377   0.33293   0.47957   0.00000  Uiso   1.00
C852   C     0.94094   0.31102   0.50067   0.00000  Uiso   1.00
C853   C     0.86521   0.16790   0.51730   0.00000  Uiso   1.00
C854   C     0.59771   0.13088   0.53811   0.00000  Uiso   1.00
C855   C     0.90692   0.37337   0.46458   0.00000  Uiso   1.00
C856   C     0.87899   0.34886   0.53867   0.00000  Uiso   1.00
C857   C     0.61912   0.14915   0.45975   0.00000  Uiso   1.00
C858   C     0.66486   0.36670   0.47551   0.00000  Uiso   1.00
C859   C     0.83354   0.13455   0.52100   0.00000  Uiso   1.00
C860   C     0.88447   0.08225   0.48319   0.00000  Uiso   1.00
C861   C     0.61616   0.41663   0.51954   0.00000  Uiso   1.00
C862   C     0.84328   0.37683   0.53539   0.00000  Uiso   1.00
C863   C     0.94020   0.18988   0.49942   0.00000  Uiso   1.00
C864   C     0.65501   0.12135   0.46234   0.00000  Uiso   1.00
C865   C     0.63514   0.10527   0.54153   0.00000  Uiso   1.00
C866   C     0.87133   0.40154   0.46142   0.00000  Uiso   1.00
C867   C     0.59396   0.34212   0.50226   0.00000  Uiso   1.00
C868   C     0.90632   0.15744   0.49783   0.00000  Uiso   1.00
C869   C     0.90926   0.34576   0.50208   0.00000  Uiso   1.00
C870   C     0.59122   0.15448   0.49815   0.00000  Uiso   1.00
C871   C     0.84333   0.09277   0.50235   0.00000  Uiso   1.00
C872   C     0.65627   0.40738   0.49745   0.00000  Uiso   1.00
C873   C     0.66096   0.09738   0.50210   0.00000  Uiso   1.00
C874   C     0.56005   0.30982   0.50059   0.00000  Uiso   1.00
C875   C     0.84093   0.40444   0.49791   0.00000  Uiso   1.00
C876   C     0.95628   0.11143   0.40818   0.00000  Uiso   1.00
C877   C     0.54869   0.38253   0.59719   0.00000  Uiso   1.00
C878   C     0.65987   0.26097   0.49754   0.00000  Uiso   1.00
C879   C     0.84096   0.23897   0.49409   0.00000  Uiso   1.00
C880   C     0.52561   0.10899   0.56725   0.00000  Uiso   1.00
C881   C     0.98053   0.39719   0.44237   0.00000  Uiso   1.00
C882   C     0.90801   0.34385   0.61465   0.00000  Uiso   1.00
C883   C     0.58570   0.15171   0.38523   0.00000  Uiso   1.00
C884   C     0.70226   0.36715   0.40280   0.00000  Uiso   1.00
C885   C     0.80913   0.43906   0.49933   0.00000  Uiso   1.00
C886   C     0.78872   0.13735   0.58945   0.00000  Uiso   1.00
C887   C     0.90930   0.01165   0.50721   0.00000  Uiso   1.00
C888   C     0.59058   0.48839   0.49982   0.00000  Uiso   1.00
C889   C     0.76979   0.35271   0.55771   0.00000  Uiso   1.00
C890   C     0.72668   0.14332   0.43254   0.00000  Uiso   1.00
C891   C     0.62987   0.05403   0.60421   0.00000  Uiso   1.00
C892   C     0.84265   0.40830   0.38537   0.00000  Uiso   1.00
C893   C     0.69178   0.06179   0.50071   0.00000  Uiso   1.00
C894   C     0.69015   0.43988   0.49936   0.00000  Uiso   1.00
C895   C     0.80962   0.06025   0.50061   0.00000  Uiso   1.00
C896   C     0.96169   0.24269   0.35727   0.00000  Uiso   1.00
H897   H     0.93107   0.23696   0.37546   0.00000  Uiso   1.00
H898   H     0.93067   0.08922   0.39274   0.00000  Uiso   1.00
H899   H     0.98880   0.10217   0.39347   0.00000  Uiso   1.00
H900   H     0.94907   0.14573   0.39901   0.00000  Uiso   1.00
H901   H     0.52926   0.41828   0.54188   0.00000  Uiso   1.00
H902   H     0.51552   0.38543   0.61322   0.00000  Uiso   1.00
H903   H     0.57117   0.40744   0.61346   0.00000  Uiso   1.00
H904   H     0.56159   0.34930   0.60366   0.00000  Uiso   1.00
H905   H     0.66027   0.28695   0.43323   0.00000  Uiso   1.00
H906   H     0.69167   0.27445   0.51119   0.00000  Uiso   1.00
H907   H     0.66596   0.22776   0.48247   0.00000  Uiso   1.00
H908   H     0.56896   0.26285   0.62454   0.00000  Uiso   1.00
H909   H     0.63567   0.25771   0.52578   0.00000  Uiso   1.00
H910   H     0.83626   0.21584   0.55953   0.00000  Uiso   1.00
H911   H     0.81001   0.22500   0.47895   0.00000  Uiso   1.00
H912   H     0.86688   0.24091   0.46737   0.00000  Uiso   1.00
H913   H     0.83415   0.27278   0.50710   0.00000  Uiso   1.00
H914   H     0.57875   0.13130   0.60729   0.00000  Uiso   1.00
H915   H     0.53217   0.07327   0.56272   0.00000  Uiso   1.00
H916   H     0.50855   0.12057   0.53662   0.00000  Uiso   1.00
H917   H     0.50320   0.11415   0.59685   0.00000  Uiso   1.00
H918   H     0.93063   0.37756   0.39756   0.00000  Uiso   1.00
H919   H     0.56895   0.26299   0.37570   0.00000  Uiso   1.00
H920   H     0.97326   0.43279   0.44689   0.00000  Uiso   1.00
H921   H     0.50558   0.39283   0.41497   0.00000  Uiso   1.00
H922   H     0.99464   0.38479   0.47413   0.00000  Uiso   1.00
H923   H     0.85469   0.30735   0.58831   0.00000  Uiso   1.00
H924   H     0.89174   0.37470   0.62637   0.00000  Uiso   1.00
H925   H     0.94221   0.35196   0.60357   0.00000  Uiso   1.00
H926   H     0.90981   0.32149   0.64368   0.00000  Uiso   1.00
H927   H     0.64103   0.18806   0.40675   0.00000  Uiso   1.00
H928   H     0.60085   0.12037   0.37325   0.00000  Uiso   1.00
H929   H     0.58216   0.17330   0.35576   0.00000  Uiso   1.00
H930   H     0.93109   0.23684   0.62429   0.00000  Uiso   1.00
H931   H     0.55229   0.14458   0.39896   0.00000  Uiso   1.00
H932   H     0.72071   0.33078   0.45792   0.00000  Uiso   1.00
H933   H     0.68051   0.34199   0.38591   0.00000  Uiso   1.00
H934   H     0.73571   0.36507   0.38729   0.00000  Uiso   1.00
H935   H     0.68875   0.40013   0.39645   0.00000  Uiso   1.00
H936   H     0.77691   0.17183   0.53111   0.00000  Uiso   1.00
H937   H     0.75360   0.13886   0.60062   0.00000  Uiso   1.00
H938   H     0.80777   0.16376   0.60777   0.00000  Uiso   1.00
H939   H     0.80211   0.10507   0.59886   0.00000  Uiso   1.00
H940   H     0.91336   0.03376   0.44139   0.00000  Uiso   1.00
H941   H     0.68354   0.47734   0.37509   0.00000  Uiso   1.00
H942   H     0.91596   0.47764   0.49468   0.00000  Uiso   1.00
H943   H     0.88366   0.01014   0.53427   0.00000  Uiso   1.00
H944   H     0.94042   0.02588   0.52173   0.00000  Uiso   1.00
H945   H     0.58807   0.46295   0.56432   0.00000  Uiso   1.00
H946   H     0.55861   0.47537   0.48612   0.00000  Uiso   1.00
H947   H     0.61512   0.49052   0.47176   0.00000  Uiso   1.00
H948   H     0.58526   0.02210   0.51411   0.00000  Uiso   1.00
H949   H     0.81956   0.37288   0.60247   0.00000  Uiso   1.00
H950   H     0.77720   0.31711   0.55367   0.00000  Uiso   1.00
H951   H     0.75575   0.36470   0.52573   0.00000  Uiso   1.00
H952   H     0.81643   0.02284   0.62489   0.00000  Uiso   1.00
H953   H     0.74462   0.35729   0.58497   0.00000  Uiso   1.00
H954   H     0.67357   0.12064   0.39332   0.00000  Uiso   1.00
H955   H     0.71963   0.17908   0.43526   0.00000  Uiso   1.00
H956   H     0.74942   0.13717   0.40339   0.00000  Uiso   1.00
H957   H     0.74348   0.13299   0.46379   0.00000  Uiso   1.00
H958   H     0.65270   0.11882   0.60849   0.00000  Uiso   1.00
H959   H     0.59361   0.05737   0.60789   0.00000  Uiso   1.00
H960   H     0.64383   0.04883   0.63841   0.00000  Uiso   1.00
H961   H     0.63707   0.02483   0.58249   0.00000  Uiso   1.00
H962   H     0.89629   0.44364   0.41262   0.00000  Uiso   1.00
H963   H     0.81653   0.02262   0.37592   0.00000  Uiso   1.00
H964   H     0.85928   0.37817   0.37220   0.00000  Uiso   1.00
H965   H     0.84012   0.43183   0.35741   0.00000  Uiso   1.00
H966   H     0.80870   0.39920   0.39645   0.00000  Uiso   1.00
H967   H     0.68413   0.47561   0.62415   0.00000  Uiso   1.00
H968   H     0.97238   0.07907   0.46686   0.00000  Uiso   1.00
N969   N     0.50000   0.25000   0.61907   0.00000  Uiso   1.00
N970   N     0.94070   0.37274   0.43037   0.00000  Uiso   1.00
N971   N     0.88348   0.32257   0.57775   0.00000  Uiso   1.00
N972   N     0.61275   0.17372   0.41971   0.00000  Uiso   1.00
N973   N     0.70521   0.35987   0.45108   0.00000  Uiso   1.00
N974   N     0.79117   0.14297   0.54083   0.00000  Uiso   1.00
N975   N     0.89415   0.03777   0.47013   0.00000  Uiso   1.00
N976   N     0.60660   0.46040   0.53498   0.00000  Uiso   1.00
N977   N     0.80949   0.37742   0.56960   0.00000  Uiso   1.00
N978   N     0.68610   0.11830   0.42560   0.00000  Uiso   1.00
N979   N     0.65013   0.09283   0.58528   0.00000  Uiso   1.00
N980   N     0.50000   0.25000   0.38093   0.00000  Uiso   1.00
N981   N     0.86731   0.42854   0.42279   0.00000  Uiso   1.00
N982   N     0.75000   0.00000   0.61907   0.00000  Uiso   1.00
N983   N     0.75000   0.00000   0.38093   0.00000  Uiso   1.00
N984   N     0.95734   0.10753   0.45710   0.00000  Uiso   1.00
N985   N     0.54517   0.38945   0.54887   0.00000  Uiso   1.00
N986   N     0.64272   0.28924   0.46320   0.00000  Uiso   1.00
N987   N     0.85568   0.21225   0.53089   0.00000  Uiso   1.00
N988   N     0.56655   0.13338   0.57484   0.00000  Uiso   1.00
O989   O     0.54581   0.20419   0.53821   0.00000  Uiso   1.00
O990   O     0.70420   0.04581   0.46179   0.00000  Uiso   1.00
O991   O     0.70420   0.04581   0.53821   0.00000  Uiso   1.00
O992   O     0.79581   0.45419   0.46179   0.00000  Uiso   1.00
O993   O     0.70420   0.45419   0.46179   0.00000  Uiso   1.00
O994   O     0.79581   0.04581   0.53821   0.00000  Uiso   1.00
O995   O     0.79581   0.04581   0.46179   0.00000  Uiso   1.00
O996   O     0.70420   0.45419   0.53821   0.00000  Uiso   1.00
O997   O     0.95420   0.29581   0.46179   0.00000  Uiso   1.00
O998   O     0.95420   0.29581   0.53821   0.00000  Uiso   1.00
O999   O     0.54581   0.20419   0.46179   0.00000  Uiso   1.00
O1000  O     0.95420   0.20419   0.46179   0.00000  Uiso   1.00
O1001  O     0.54581   0.29581   0.53821   0.00000  Uiso   1.00
O1002  O     0.54581   0.29581   0.46179   0.00000  Uiso   1.00
O1003  O     0.95420   0.20419   0.53821   0.00000  Uiso   1.00
O1004  O     0.79581   0.45419   0.53821   0.00000  Uiso   1.00
Zn1005 Zn    0.50000   0.25000   0.55104   0.00000  Uiso   1.00
Zn1006 Zn    0.50000   0.25000   0.44896   0.00000  Uiso   1.00
Zn1007 Zn    0.75000   0.00000   0.55104   0.00000  Uiso   1.00
Zn1008 Zn    0.75000   0.00000   0.44896   0.00000  Uiso   1.00
C1009  C     0.05903   0.68888   0.49935   0.00000  Uiso   1.00
C1010  C     0.03833   0.75722   0.64273   0.00000  Uiso   1.00
C1011  C     0.03831   0.75731   0.35741   0.00000  Uiso   1.00
C1012  C     0.46171   0.74261   0.64258   0.00000  Uiso   1.00
C1013  C     0.21314   0.98719   0.35710   0.00000  Uiso   1.00
C1014  C     0.28690   0.51278   0.64290   0.00000  Uiso   1.00
C1015  C     0.28693   0.51269   0.35757   0.00000  Uiso   1.00
C1016  C     0.21335   0.98664   0.64245   0.00000  Uiso   1.00
C1017  C     0.41589   0.61569   0.47895   0.00000  Uiso   1.00
C1018  C     0.08535   0.88276   0.52410   0.00000  Uiso   1.00
C1019  C     0.13377   0.83293   0.47957   0.00000  Uiso   1.00
C1020  C     0.44094   0.81102   0.50067   0.00000  Uiso   1.00
C1021  C     0.36521   0.66790   0.51730   0.00000  Uiso   1.00
C1022  C     0.09771   0.63088   0.53811   0.00000  Uiso   1.00
C1023  C     0.40692   0.87337   0.46458   0.00000  Uiso   1.00
C1024  C     0.37899   0.84886   0.53867   0.00000  Uiso   1.00
C1025  C     0.11912   0.64915   0.45975   0.00000  Uiso   1.00
C1026  C     0.16486   0.86670   0.47551   0.00000  Uiso   1.00
C1027  C     0.33354   0.63455   0.52100   0.00000  Uiso   1.00
C1028  C     0.38447   0.58225   0.48319   0.00000  Uiso   1.00
C1029  C     0.11616   0.91663   0.51954   0.00000  Uiso   1.00
C1030  C     0.34328   0.87683   0.53539   0.00000  Uiso   1.00
C1031  C     0.44020   0.68988   0.49942   0.00000  Uiso   1.00
C1032  C     0.15501   0.62135   0.46234   0.00000  Uiso   1.00
C1033  C     0.13514   0.60527   0.54153   0.00000  Uiso   1.00
C1034  C     0.37133   0.90154   0.46142   0.00000  Uiso   1.00
C1035  C     0.09396   0.84212   0.50226   0.00000  Uiso   1.00
C1036  C     0.40632   0.65744   0.49783   0.00000  Uiso   1.00
C1037  C     0.40926   0.84576   0.50208   0.00000  Uiso   1.00
C1038  C     0.09122   0.65448   0.49815   0.00000  Uiso   1.00
C1039  C     0.34333   0.59277   0.50235   0.00000  Uiso   1.00
C1040  C     0.15627   0.90738   0.49745   0.00000  Uiso   1.00
C1041  C     0.16096   0.59738   0.50210   0.00000  Uiso   1.00
C1042  C     0.06005   0.80982   0.50059   0.00000  Uiso   1.00
C1043  C     0.34093   0.90444   0.49791   0.00000  Uiso   1.00
C1044  C     0.45628   0.61143   0.40818   0.00000  Uiso   1.00
C1045  C     0.04869   0.88253   0.59719   0.00000  Uiso   1.00
C1046  C     0.15987   0.76097   0.49754   0.00000  Uiso   1.00
C1047  C     0.34096   0.73897   0.49409   0.00000  Uiso   1.00
C1048  C     0.02561   0.60899   0.56725   0.00000  Uiso   1.00
C1049  C     0.48053   0.89719   0.44237   0.00000  Uiso   1.00
C1050  C     0.40801   0.84385   0.61465   0.00000  Uiso   1.00
C1051  C     0.08570   0.65171   0.38523   0.00000  Uiso   1.00
C1052  C     0.20226   0.86715   0.40280   0.00000  Uiso   1.00
C1053  C     0.30913   0.93906   0.49933   0.00000  Uiso   1.00
C1054  C     0.28872   0.63735   0.58945   0.00000  Uiso   1.00
C1055  C     0.40930   0.51165   0.50721   0.00000  Uiso   1.00
C1056  C     0.09058   0.98839   0.49982   0.00000  Uiso   1.00
C1057  C     0.26979   0.85271   0.55771   0.00000  Uiso   1.00
C1058  C     0.22668   0.64332   0.43254   0.00000  Uiso   1.00
C1059  C     0.12987   0.55403   0.60421   0.00000  Uiso   1.00
C1060  C     0.34265   0.90830   0.38537   0.00000  Uiso   1.00
C1061  C     0.19178   0.56179   0.50071   0.00000  Uiso   1.00
C1062  C     0.19015   0.93988   0.49936   0.00000  Uiso   1.00
C1063  C     0.30962   0.56025   0.50061   0.00000  Uiso   1.00
C1064  C     0.46169   0.74269   0.35727   0.00000  Uiso   1.00
H1065  H     0.43107   0.73696   0.37546   0.00000  Uiso   1.00
H1066  H     0.43067   0.58922   0.39274   0.00000  Uiso   1.00
H1067  H     0.48880   0.60217   0.39347   0.00000  Uiso   1.00
H1068  H     0.44907   0.64573   0.39901   0.00000  Uiso   1.00
H1069  H     0.02926   0.91828   0.54188   0.00000  Uiso   1.00
H1070  H     0.01552   0.88543   0.61322   0.00000  Uiso   1.00
H1071  H     0.07117   0.90744   0.61346   0.00000  Uiso   1.00
H1072  H     0.06159   0.84930   0.60366   0.00000  Uiso   1.00
H1073  H     0.16027   0.78695   0.43323   0.00000  Uiso   1.00
H1074  H     0.19167   0.77445   0.51119   0.00000  Uiso   1.00
H1075  H     0.16596   0.72776   0.48247   0.00000  Uiso   1.00
H1076  H     0.06896   0.76285   0.62454   0.00000  Uiso   1.00
H1077  H     0.13567   0.75771   0.52578   0.00000  Uiso   1.00
H1078  H     0.33626   0.71584   0.55953   0.00000  Uiso   1.00
H1079  H     0.31001   0.72500   0.47895   0.00000  Uiso   1.00
H1080  H     0.36688   0.74091   0.46737   0.00000  Uiso   1.00
H1081  H     0.33415   0.77278   0.50710   0.00000  Uiso   1.00
H1082  H     0.07875   0.63130   0.60729   0.00000  Uiso   1.00
H1083  H     0.03217   0.57327   0.56272   0.00000  Uiso   1.00
H1084  H     0.00855   0.62057   0.53662   0.00000  Uiso   1.00
H1085  H     0.00320   0.61415   0.59685   0.00000  Uiso   1.00
H1086  H     0.43063   0.87756   0.39756   0.00000  Uiso   1.00
H1087  H     0.06895   0.76299   0.37570   0.00000  Uiso   1.00
H1088  H     0.47326   0.93279   0.44689   0.00000  Uiso   1.00
H1089  H     0.00558   0.89283   0.41497   0.00000  Uiso   1.00
H1090  H     0.49464   0.88479   0.47413   0.00000  Uiso   1.00
H1091  H     0.35469   0.80735   0.58831   0.00000  Uiso   1.00
H1092  H     0.39174   0.87470   0.62637   0.00000  Uiso   1.00
H1093  H     0.44221   0.85196   0.60357   0.00000  Uiso   1.00
H1094  H     0.40981   0.82149   0.64368   0.00000  Uiso   1.00
H1095  H     0.14103   0.68806   0.40675   0.00000  Uiso   1.00
H1096  H     0.10085   0.62037   0.37325   0.00000  Uiso   1.00
H1097  H     0.08216   0.67330   0.35576   0.00000  Uiso   1.00
H1098  H     0.43109   0.73684   0.62429   0.00000  Uiso   1.00
H1099  H     0.05229   0.64458   0.39896   0.00000  Uiso   1.00
H1100  H     0.22071   0.83078   0.45792   0.00000  Uiso   1.00
H1101  H     0.18051   0.84199   0.38591   0.00000  Uiso   1.00
H1102  H     0.23571   0.86507   0.38729   0.00000  Uiso   1.00
H1103  H     0.18875   0.90013   0.39645   0.00000  Uiso   1.00
H1104  H     0.27691   0.67183   0.53111   0.00000  Uiso   1.00
H1105  H     0.25360   0.63886   0.60062   0.00000  Uiso   1.00
H1106  H     0.30777   0.66376   0.60777   0.00000  Uiso   1.00
H1107  H     0.30211   0.60507   0.59886   0.00000  Uiso   1.00
H1108  H     0.41336   0.53376   0.44139   0.00000  Uiso   1.00
H1109  H     0.18354   0.97734   0.37509   0.00000  Uiso   1.00
H1110  H     0.41596   0.97764   0.49468   0.00000  Uiso   1.00
H1111  H     0.38366   0.51014   0.53427   0.00000  Uiso   1.00
H1112  H     0.44042   0.52588   0.52173   0.00000  Uiso   1.00
H1113  H     0.08807   0.96295   0.56432   0.00000  Uiso   1.00
H1114  H     0.05861   0.97537   0.48612   0.00000  Uiso   1.00
H1115  H     0.11512   0.99052   0.47176   0.00000  Uiso   1.00
H1116  H     0.08526   0.52210   0.51411   0.00000  Uiso   1.00
H1117  H     0.31956   0.87288   0.60247   0.00000  Uiso   1.00
H1118  H     0.27720   0.81711   0.55367   0.00000  Uiso   1.00
H1119  H     0.25575   0.86470   0.52573   0.00000  Uiso   1.00
H1120  H     0.31643   0.52284   0.62489   0.00000  Uiso   1.00
H1121  H     0.24462   0.85729   0.58497   0.00000  Uiso   1.00
H1122  H     0.17357   0.62064   0.39332   0.00000  Uiso   1.00
H1123  H     0.21963   0.67908   0.43526   0.00000  Uiso   1.00
H1124  H     0.24942   0.63717   0.40339   0.00000  Uiso   1.00
H1125  H     0.24348   0.63299   0.46379   0.00000  Uiso   1.00
H1126  H     0.15270   0.61882   0.60849   0.00000  Uiso   1.00
H1127  H     0.09361   0.55737   0.60789   0.00000  Uiso   1.00
H1128  H     0.14383   0.54883   0.63841   0.00000  Uiso   1.00
H1129  H     0.13707   0.52483   0.58249   0.00000  Uiso   1.00
H1130  H     0.39629   0.94364   0.41262   0.00000  Uiso   1.00
H1131  H     0.31653   0.52262   0.37592   0.00000  Uiso   1.00
H1132  H     0.35928   0.87817   0.37220   0.00000  Uiso   1.00
H1133  H     0.34012   0.93183   0.35741   0.00000  Uiso   1.00
H1134  H     0.30870   0.89920   0.39645   0.00000  Uiso   1.00
H1135  H     0.18413   0.97561   0.62415   0.00000  Uiso   1.00
H1136  H     0.47238   0.57907   0.46686   0.00000  Uiso   1.00
N1137  N     0.00000   0.75000   0.61907   0.00000  Uiso   1.00
N1138  N     0.44070   0.87274   0.43037   0.00000  Uiso   1.00
N1139  N     0.38348   0.82257   0.57775   0.00000  Uiso   1.00
N1140  N     0.11275   0.67372   0.41971   0.00000  Uiso   1.00
N1141  N     0.20521   0.85987   0.45108   0.00000  Uiso   1.00
N1142  N     0.29117   0.64297   0.54083   0.00000  Uiso   1.00
N1143  N     0.39415   0.53777   0.47013   0.00000  Uiso   1.00
N1144  N     0.10660   0.96040   0.53498   0.00000  Uiso   1.00
N1145  N     0.30949   0.87742   0.56960   0.00000  Uiso   1.00
N1146  N     0.18610   0.61830   0.42560   0.00000  Uiso   1.00
N1147  N     0.15013   0.59283   0.58528   0.00000  Uiso   1.00
N1148  N     0.00000   0.75000   0.38093   0.00000  Uiso   1.00
N1149  N     0.36731   0.92854   0.42279   0.00000  Uiso   1.00
N1150  N     0.25000   0.50000   0.61907   0.00000  Uiso   1.00
N1151  N     0.25000   0.50000   0.38093   0.00000  Uiso   1.00
N1152  N     0.45734   0.60753   0.45710   0.00000  Uiso   1.00
N1153  N     0.04517   0.88945   0.54887   0.00000  Uiso   1.00
N1154  N     0.14272   0.78924   0.46320   0.00000  Uiso   1.00
N1155  N     0.35568   0.71225   0.53089   0.00000  Uiso   1.00
N1156  N     0.06655   0.63338   0.57484   0.00000  Uiso   1.00
O1157  O     0.04581   0.70419   0.53821   0.00000  Uiso   1.00
O1158  O     0.20420   0.54581   0.46179   0.00000  Uiso   1.00
O1159  O     0.20420   0.54581   0.53821   0.00000  Uiso   1.00
O1160  O     0.29581   0.95419   0.46179   0.00000  Uiso   1.00
O1161  O     0.20420   0.95419   0.46179   0.00000  Uiso   1.00
O1162  O     0.29581   0.54581   0.53821   0.00000  Uiso   1.00
O1163  O     0.29581   0.54581   0.46179   0.00000  Uiso   1.00
O1164  O     0.20420   0.95419   0.53821   0.00000  Uiso   1.00
O1165  O     0.45420   0.79581   0.46179   0.00000  Uiso   1.00
O1166  O     0.45420   0.79581   0.53821   0.00000  Uiso   1.00
O1167  O     0.04581   0.70419   0.46179   0.00000  Uiso   1.00
O1168  O     0.45420   0.70419   0.46179   0.00000  Uiso   1.00
O1169  O     0.04581   0.79581   0.53821   0.00000  Uiso   1.00
O1170  O     0.04581   0.79581   0.46179   0.00000  Uiso   1.00
O1171  O     0.45420   0.70419   0.53821   0.00000  Uiso   1.00
O1172  O     0.29581   0.95419   0.53821   0.00000  Uiso   1.00
Zn1173 Zn    0.00000   0.75000   0.55104   0.00000  Uiso   1.00
Zn1174 Zn    0.00000   0.75000   0.44896   0.00000  Uiso   1.00
Zn1175 Zn    0.25000   0.50000   0.55104   0.00000  Uiso   1.00
Zn1176 Zn    0.25000   0.50000   0.44896   0.00000  Uiso   1.00
C1177  C     0.55903   0.68888   0.49935   0.00000  Uiso   1.00
C1178  C     0.53833   0.75722   0.64273   0.00000  Uiso   1.00
C1179  C     0.53831   0.75731   0.35741   0.00000  Uiso   1.00
C1180  C     0.96171   0.74261   0.64258   0.00000  Uiso   1.00
C1181  C     0.71314   0.98719   0.35710   0.00000  Uiso   1.00
C1182  C     0.78690   0.51278   0.64290   0.00000  Uiso   1.00
C1183  C     0.78693   0.51269   0.35757   0.00000  Uiso   1.00
C1184  C     0.71335   0.98664   0.64245   0.00000  Uiso   1.00
C1185  C     0.91589   0.61569   0.47895   0.00000  Uiso   1.00
C1186  C     0.58535   0.88276   0.52410   0.00000  Uiso   1.00
C1187  C     0.63377   0.83293   0.47957   0.00000  Uiso   1.00
C1188  C     0.94094   0.81102   0.50067   0.00000  Uiso   1.00
C1189  C     0.86521   0.66790   0.51730   0.00000  Uiso   1.00
C1190  C     0.59771   0.63088   0.53811   0.00000  Uiso   1.00
C1191  C     0.90692   0.87337   0.46458   0.00000  Uiso   1.00
C1192  C     0.87899   0.84886   0.53867   0.00000  Uiso   1.00
C1193  C     0.61912   0.64915   0.45975   0.00000  Uiso   1.00
C1194  C     0.66486   0.86670   0.47551   0.00000  Uiso   1.00
C1195  C     0.83354   0.63455   0.52100   0.00000  Uiso   1.00
C1196  C     0.88447   0.58225   0.48319   0.00000  Uiso   1.00
C1197  C     0.61616   0.91663   0.51954   0.00000  Uiso   1.00
C1198  C     0.84328   0.87683   0.53539   0.00000  Uiso   1.00
C1199  C     0.94020   0.68988   0.49942   0.00000  Uiso   1.00
C1200  C     0.65501   0.62135   0.46234   0.00000  Uiso   1.00
C1201  C     0.63514   0.60527   0.54153   0.00000  Uiso   1.00
C1202  C     0.87133   0.90154   0.46142   0.00000  Uiso   1.00
C1203  C     0.59396   0.84212   0.50226   0.00000  Uiso   1.00
C1204  C     0.90632   0.65744   0.49783   0.00000  Uiso   1.00
C1205  C     0.90926   0.84576   0.50208   0.00000  Uiso   1.00
C1206  C     0.59122   0.65448   0.49815   0.00000  Uiso   1.00
C1207  C     0.84333   0.59277   0.50235   0.00000  Uiso   1.00
C1208  C     0.65627   0.90738   0.49745   0.00000  Uiso   1.00
C1209  C     0.66096   0.59738   0.50210   0.00000  Uiso   1.00
C1210  C     0.56005   0.80982   0.50059   0.00000  Uiso   1.00
C1211  C     0.84093   0.90444   0.49791   0.00000  Uiso   1.00
C1212  C     0.95628   0.61143   0.40818   0.00000  Uiso   1.00
C1213  C     0.54869   0.88253   0.59719   0.00000  Uiso   1.00
C1214  C     0.65987   0.76097   0.49754   0.00000  Uiso   1.00
C1215  C     0.84096   0.73897   0.49409   0.00000  Uiso   1.00
C1216  C     0.52561   0.60899   0.56725   0.00000  Uiso   1.00
C1217  C     0.98053   0.89719   0.44237   0.00000  Uiso   1.00
C1218  C     0.90801   0.84385   0.61465   0.00000  Uiso   1.00
C1219  C     0.58570   0.65171   0.38523   0.00000  Uiso   1.00
C1220  C     0.70226   0.86715   0.40280   0.00000  Uiso   1.00
C1221  C     0.80913   0.93906   0.49933   0.00000  Uiso   1.00
C1222  C     0.78872   0.63735   0.58945   0.00000  Uiso   1.00
C1223  C     0.90930   0.51165   0.50721   0.00000  Uiso   1.00
C1224  C     0.59058   0.98839   0.49982   0.00000  Uiso   1.00
C1225  C     0.76979   0.85271   0.55771   0.00000  Uiso   1.00
C1226  C     0.72668   0.64332   0.43254   0.00000  Uiso   1.00
C1227  C     0.62987   0.55403   0.60421   0.00000  Uiso   1.00
C1228  C     0.84265   0.90830   0.38537   0.00000  Uiso   1.00
C1229  C     0.69178   0.56179   0.50071   0.00000  Uiso   1.00
C1230  C     0.69015   0.93988   0.49936   0.00000  Uiso   1.00
C1231  C     0.80962   0.56025   0.50061   0.00000  Uiso   1.00
C1232  C     0.96169   0.74269   0.35727   0.00000  Uiso   1.00
H1233  H     0.93107   0.73696   0.37546   0.00000  Uiso   1.00
H1234  H     0.93067   0.58922   0.39274   0.00000  Uiso   1.00
H1235  H     0.98880   0.60217   0.39347   0.00000  Uiso   1.00
H1236  H     0.94907   0.64573   0.39901   0.00000  Uiso   1.00
H1237  H     0.52926   0.91828   0.54188   0.00000  Uiso   1.00
H1238  H     0.51552   0.88543   0.61322   0.00000  Uiso   1.00
H1239  H     0.57117   0.90744   0.61346   0.00000  Uiso   1.00
H1240  H     0.56159   0.84930   0.60366   0.00000  Uiso   1.00
H1241  H     0.66027   0.78695   0.43323   0.00000  Uiso   1.00
H1242  H     0.69167   0.77445   0.51119   0.00000  Uiso   1.00
H1243  H     0.66596   0.72776   0.48247   0.00000  Uiso   1.00
H1244  H     0.56896   0.76285   0.62454   0.00000  Uiso   1.00
H1245  H     0.63567   0.75771   0.52578   0.00000  Uiso   1.00
H1246  H     0.83626   0.71584   0.55953   0.00000  Uiso   1.00
H1247  H     0.81001   0.72500   0.47895   0.00000  Uiso   1.00
H1248  H     0.86688   0.74091   0.46737   0.00000  Uiso   1.00
H1249  H     0.83415   0.77278   0.50710   0.00000  Uiso   1.00
H1250  H     0.57875   0.63130   0.60729   0.00000  Uiso   1.00
H1251  H     0.53217   0.57327   0.56272   0.00000  Uiso   1.00
H1252  H     0.50855   0.62057   0.53662   0.00000  Uiso   1.00
H1253  H     0.50320   0.61415   0.59685   0.00000  Uiso   1.00
H1254  H     0.93063   0.87756   0.39756   0.00000  Uiso   1.00
H1255  H     0.56895   0.76299   0.37570   0.00000  Uiso   1.00
H1256  H     0.97326   0.93279   0.44689   0.00000  Uiso   1.00
H1257  H     0.50558   0.89283   0.41497   0.00000  Uiso   1.00
H1258  H     0.99464   0.88479   0.47413   0.00000  Uiso   1.00
H1259  H     0.85469   0.80735   0.58831   0.00000  Uiso   1.00
H1260  H     0.89174   0.87470   0.62637   0.00000  Uiso   1.00
H1261  H     0.94221   0.85196   0.60357   0.00000  Uiso   1.00
H1262  H     0.90981   0.82149   0.64368   0.00000  Uiso   1.00
H1263  H     0.64103   0.68806   0.40675   0.00000  Uiso   1.00
H1264  H     0.60085   0.62037   0.37325   0.00000  Uiso   1.00
H1265  H     0.58216   0.67330   0.35576   0.00000  Uiso   1.00
H1266  H     0.93109   0.73684   0.62429   0.00000  Uiso   1.00
H1267  H     0.55229   0.64458   0.39896   0.00000  Uiso   1.00
H1268  H     0.72071   0.83078   0.45792   0.00000  Uiso   1.00
H1269  H     0.68051   0.84199   0.38591   0.00000  Uiso   1.00
H1270  H     0.73571   0.86507   0.38729   0.00000  Uiso   1.00
H1271  H     0.68875   0.90013   0.39645   0.00000  Uiso   1.00
H1272  H     0.77691   0.67183   0.53111   0.00000  Uiso   1.00
H1273  H     0.75360   0.63886   0.60062   0.00000  Uiso   1.00
H1274  H     0.80777   0.66376   0.60777   0.00000  Uiso   1.00
H1275  H     0.80211   0.60507   0.59886   0.00000  Uiso   1.00
H1276  H     0.91336   0.53376   0.44139   0.00000  Uiso   1.00
H1277  H     0.68354   0.97734   0.37509   0.00000  Uiso   1.00
H1278  H     0.91596   0.97764   0.49468   0.00000  Uiso   1.00
H1279  H     0.88366   0.51014   0.53427   0.00000  Uiso   1.00
H1280  H     0.94042   0.52588   0.52173   0.00000  Uiso   1.00
H1281  H     0.58807   0.96295   0.56432   0.00000  Uiso   1.00
H1282  H     0.55861   0.97537   0.48612   0.00000  Uiso   1.00
H1283  H     0.61512   0.99052   0.47176   0.00000  Uiso   1.00
H1284  H     0.58526   0.52210   0.51411   0.00000  Uiso   1.00
H1285  H     0.81956   0.87288   0.60247   0.00000  Uiso   1.00
H1286  H     0.77720   0.81711   0.55367   0.00000  Uiso   1.00
H1287  H     0.75575   0.86470   0.52573   0.00000  Uiso   1.00
H1288  H     0.81643   0.52284   0.62489   0.00000  Uiso   1.00
H1289  H     0.74462   0.85729   0.58497   0.00000  Uiso   1.00
H1290  H     0.67357   0.62064   0.39332   0.00000  Uiso   1.00
H1291  H     0.71963   0.67908   0.43526   0.00000  Uiso   1.00
H1292  H     0.74942   0.63717   0.40339   0.00000  Uiso   1.00
H1293  H     0.74348   0.63299   0.46379   0.00000  Uiso   1.00
H1294  H     0.65270   0.61882   0.60849   0.00000  Uiso   1.00
H1295  H     0.59361   0.55737   0.60789   0.00000  Uiso   1.00
H1296  H     0.64383   0.54883   0.63841   0.00000  Uiso   1.00
H1297  H     0.63707   0.52483   0.58249   0.00000  Uiso   1.00
H1298  H     0.89629   0.94364   0.41262   0.00000  Uiso   1.00
H1299  H     0.81653   0.52262   0.37592   0.00000  Uiso   1.00
H1300  H     0.85928   0.87817   0.37220   0.00000  Uiso   1.00
H1301  H     0.84012   0.93183   0.35741   0.00000  Uiso   1.00
H1302  H     0.80870   0.89920   0.39645   0.00000  Uiso   1.00
H1303  H     0.68413   0.97561   0.62415   0.00000  Uiso   1.00
H1304  H     0.97238   0.57907   0.46686   0.00000  Uiso   1.00
N1305  N     0.50000   0.75000   0.61907   0.00000  Uiso   1.00
N1306  N     0.94070   0.87274   0.43037   0.00000  Uiso   1.00
N1307  N     0.88348   0.82257   0.57775   0.00000  Uiso   1.00
N1308  N     0.61275   0.67372   0.41971   0.00000  Uiso   1.00
N1309  N     0.70521   0.85987   0.45108   0.00000  Uiso   1.00
N1310  N     0.79117   0.64297   0.54083   0.00000  Uiso   1.00
N1311  N     0.89415   0.53777   0.47013   0.00000  Uiso   1.00
N1312  N     0.60660   0.96040   0.53498   0.00000  Uiso   1.00
N1313  N     0.80949   0.87742   0.56960   0.00000  Uiso   1.00
N1314  N     0.68610   0.61830   0.42560   0.00000  Uiso   1.00
N1315  N     0.65013   0.59283   0.58528   0.00000  Uiso   1.00
N1316  N     0.50000   0.75000   0.38093   0.00000  Uiso   1.00
N1317  N     0.86731   0.92854   0.42279   0.00000  Uiso   1.00
N1318  N     0.75000   0.50000   0.61907   0.00000  Uiso   1.00
N1319  N     0.75000   0.50000   0.38093   0.00000  Uiso   1.00
N1320  N     0.95734   0.60753   0.45710   0.00000  Uiso   1.00
N1321  N     0.54517   0.88945   0.54887   0.00000  Uiso   1.00
N1322  N     0.64272   0.78924   0.46320   0.00000  Uiso   1.00
N1323  N     0.85568   0.71225   0.53089   0.00000  Uiso   1.00
N1324  N     0.56655   0.63338   0.57484   0.00000  Uiso   1.00
O1325  O     0.54581   0.70419   0.53821   0.00000  Uiso   1.00
O1326  O     0.70420   0.54581   0.46179   0.00000  Uiso   1.00
O1327  O     0.70420   0.54581   0.53821   0.00000  Uiso   1.00
O1328  O     0.79581   0.95419   0.46179   0.00000  Uiso   1.00
O1329  O     0.70420   0.95419   0.46179   0.00000  Uiso   1.00
O1330  O     0.79581   0.54581   0.53821   0.00000  Uiso   1.00
O1331  O     0.79581   0.54581   0.46179   0.00000  Uiso   1.00
O1332  O     0.70420   0.95419   0.53821   0.00000  Uiso   1.00
O1333  O     0.95420   0.79581   0.46179   0.00000  Uiso   1.00
O1334  O     0.95420   0.79581   0.53821   0.00000  Uiso   1.00
O1335  O     0.54581   0.70419   0.46179   0.00000  Uiso   1.00
O1336  O     0.95420   0.70419   0.46179   0.00000  Uiso   1.00
O1337  O     0.54581   0.79581   0.53821   0.00000  Uiso   1.00
O1338  O     0.54581   0.79581   0.46179   0.00000  Uiso   1.00
O1339  O     0.95420   0.70419   0.53821   0.00000  Uiso   1.00
O1340  O     0.79581   0.95419   0.53821   0.00000  Uiso   1.00
Zn1341 Zn    0.50000   0.75000   0.55104   0.00000  Uiso   1.00
Zn1342 Zn    0.50000   0.75000   0.44896   0.00000  Uiso   1.00
Zn1343 Zn    0.75000   0.50000   0.55104   0.00000  Uiso   1.00
Zn1344 Zn    0.75000   0.50000   0.44896   0.00000  Uiso   1.00
C1345  C     0.05903   0.18888   0.83268   0.00000  Uiso   1.00
C1346  C     0.03833   0.25722   0.97606   0.00000  Uiso   1.00
C1347  C     0.03831   0.25731   0.69075   0.00000  Uiso   1.00
C1348  C     0.46171   0.24261   0.97592   0.00000  Uiso   1.00
C1349  C     0.21314   0.48719   0.69043   0.00000  Uiso   1.00
C1350  C     0.28690   0.01278   0.97623   0.00000  Uiso   1.00
C1351  C     0.28693   0.01269   0.69090   0.00000  Uiso   1.00
C1352  C     0.21335   0.48664   0.97578   0.00000  Uiso   1.00
C1353  C     0.41589   0.11569   0.81229   0.00000  Uiso   1.00
C1354  C     0.08535   0.38276   0.85743   0.00000  Uiso   1.00
C1355  C     0.13377   0.33293   0.81291   0.00000  Uiso   1.00
C1356  C     0.44094   0.31102   0.83400   0.00000  Uiso   1.00
C1357  C     0.36521   0.16790   0.85064   0.00000  Uiso   1.00
C1358  C     0.09771   0.13088   0.87145   0.00000  Uiso   1.00
C1359  C     0.40692   0.37337   0.79791   0.00000  Uiso   1.00
C1360  C     0.37899   0.34886   0.87200   0.00000  Uiso   1.00
C1361  C     0.11912   0.14915   0.79309   0.00000  Uiso   1.00
C1362  C     0.16486   0.36670   0.80884   0.00000  Uiso   1.00
C1363  C     0.33354   0.13455   0.85433   0.00000  Uiso   1.00
C1364  C     0.38447   0.08225   0.81653   0.00000  Uiso   1.00
C1365  C     0.11616   0.41663   0.85287   0.00000  Uiso   1.00
C1366  C     0.34328   0.37683   0.86873   0.00000  Uiso   1.00
C1367  C     0.44020   0.18988   0.83276   0.00000  Uiso   1.00
C1368  C     0.15501   0.12135   0.79567   0.00000  Uiso   1.00
C1369  C     0.13514   0.10527   0.87486   0.00000  Uiso   1.00
C1370  C     0.37133   0.40154   0.79475   0.00000  Uiso   1.00
C1371  C     0.09396   0.34212   0.83559   0.00000  Uiso   1.00
C1372  C     0.40632   0.15744   0.83117   0.00000  Uiso   1.00
C1373  C     0.40926   0.34576   0.83541   0.00000  Uiso   1.00
C1374  C     0.09122   0.15448   0.83148   0.00000  Uiso   1.00
C1375  C     0.34333   0.09277   0.83569   0.00000  Uiso   1.00
C1376  C     0.15627   0.40738   0.83078   0.00000  Uiso   1.00
C1377  C     0.16096   0.09738   0.83544   0.00000  Uiso   1.00
C1378  C     0.06005   0.30982   0.83392   0.00000  Uiso   1.00
C1379  C     0.34093   0.40444   0.83124   0.00000  Uiso   1.00
C1380  C     0.45628   0.11143   0.74152   0.00000  Uiso   1.00
C1381  C     0.04869   0.38253   0.93052   0.00000  Uiso   1.00
C1382  C     0.15987   0.26097   0.83087   0.00000  Uiso   1.00
C1383  C     0.34096   0.23897   0.82742   0.00000  Uiso   1.00
C1384  C     0.02561   0.10899   0.90059   0.00000  Uiso   1.00
C1385  C     0.48053   0.39719   0.77571   0.00000  Uiso   1.00
C1386  C     0.40801   0.34385   0.94799   0.00000  Uiso   1.00
C1387  C     0.08570   0.15171   0.71857   0.00000  Uiso   1.00
C1388  C     0.20226   0.36715   0.73613   0.00000  Uiso   1.00
C1389  C     0.30913   0.43906   0.83266   0.00000  Uiso   1.00
C1390  C     0.28872   0.13735   0.92279   0.00000  Uiso   1.00
C1391  C     0.40930   0.01165   0.84054   0.00000  Uiso   1.00
C1392  C     0.09058   0.48839   0.83315   0.00000  Uiso   1.00
C1393  C     0.26979   0.35271   0.89105   0.00000  Uiso   1.00
C1394  C     0.22668   0.14332   0.76587   0.00000  Uiso   1.00
C1395  C     0.12987   0.05403   0.93754   0.00000  Uiso   1.00
C1396  C     0.34265   0.40830   0.71871   0.00000  Uiso   1.00
C1397  C     0.19178   0.06179   0.83404   0.00000  Uiso   1.00
C1398  C     0.19015   0.43988   0.83269   0.00000  Uiso   1.00
C1399  C     0.30962   0.06025   0.83394   0.00000  Uiso   1.00
C1400  C     0.46169   0.24269   0.69060   0.00000  Uiso   1.00
H1401  H     0.43107   0.23696   0.70879   0.00000  Uiso   1.00
H1402  H     0.43067   0.08922   0.72608   0.00000  Uiso   1.00
H1403  H     0.48880   0.10217   0.72680   0.00000  Uiso   1.00
H1404  H     0.44907   0.14573   0.73234   0.00000  Uiso   1.00
H1405  H     0.02926   0.41828   0.87521   0.00000  Uiso   1.00
H1406  H     0.01552   0.38543   0.94655   0.00000  Uiso   1.00
H1407  H     0.07117   0.40744   0.94679   0.00000  Uiso   1.00
H1408  H     0.06159   0.34930   0.93700   0.00000  Uiso   1.00
H1409  H     0.16027   0.28695   0.76656   0.00000  Uiso   1.00
H1410  H     0.19167   0.27445   0.84452   0.00000  Uiso   1.00
H1411  H     0.16596   0.22776   0.81581   0.00000  Uiso   1.00
H1412  H     0.06896   0.26285   0.95787   0.00000  Uiso   1.00
H1413  H     0.13567   0.25771   0.85911   0.00000  Uiso   1.00
H1414  H     0.33626   0.21584   0.89286   0.00000  Uiso   1.00
H1415  H     0.31001   0.22500   0.81228   0.00000  Uiso   1.00
H1416  H     0.36688   0.24091   0.80070   0.00000  Uiso   1.00
H1417  H     0.33415   0.27278   0.84044   0.00000  Uiso   1.00
H1418  H     0.07875   0.13130   0.94062   0.00000  Uiso   1.00
H1419  H     0.03217   0.07327   0.89605   0.00000  Uiso   1.00
H1420  H     0.00855   0.12057   0.86996   0.00000  Uiso   1.00
H1421  H     0.00320   0.11415   0.93019   0.00000  Uiso   1.00
H1422  H     0.43063   0.37756   0.73089   0.00000  Uiso   1.00
H1423  H     0.06895   0.26299   0.70904   0.00000  Uiso   1.00
H1424  H     0.47326   0.43279   0.78022   0.00000  Uiso   1.00
H1425  H     0.00558   0.39283   0.74830   0.00000  Uiso   1.00
H1426  H     0.49464   0.38479   0.80746   0.00000  Uiso   1.00
H1427  H     0.35469   0.30735   0.92164   0.00000  Uiso   1.00
H1428  H     0.39174   0.37470   0.95971   0.00000  Uiso   1.00
H1429  H     0.44221   0.35196   0.93691   0.00000  Uiso   1.00
H1430  H     0.40981   0.32149   0.97702   0.00000  Uiso   1.00
H1431  H     0.14103   0.18806   0.74009   0.00000  Uiso   1.00
H1432  H     0.10085   0.12037   0.70658   0.00000  Uiso   1.00
H1433  H     0.08216   0.17330   0.68909   0.00000  Uiso   1.00
H1434  H     0.43109   0.23684   0.95763   0.00000  Uiso   1.00
H1435  H     0.05229   0.14458   0.73229   0.00000  Uiso   1.00
H1436  H     0.22071   0.33078   0.79125   0.00000  Uiso   1.00
H1437  H     0.18051   0.34199   0.71925   0.00000  Uiso   1.00
H1438  H     0.23571   0.36507   0.72062   0.00000  Uiso   1.00
H1439  H     0.18875   0.40013   0.72979   0.00000  Uiso   1.00
H1440  H     0.27691   0.17183   0.86444   0.00000  Uiso   1.00
H1441  H     0.25360   0.13886   0.93395   0.00000  Uiso   1.00
H1442  H     0.30777   0.16376   0.94110   0.00000  Uiso   1.00
H1443  H     0.30211   0.10507   0.93219   0.00000  Uiso   1.00
H1444  H     0.41336   0.03376   0.77472   0.00000  Uiso   1.00
H1445  H     0.18354   0.47734   0.70842   0.00000  Uiso   1.00
H1446  H     0.41596   0.47764   0.82801   0.00000  Uiso   1.00
H1447  H     0.38366   0.01014   0.86760   0.00000  Uiso   1.00
H1448  H     0.44042   0.02588   0.85506   0.00000  Uiso   1.00
H1449  H     0.08807   0.46295   0.89766   0.00000  Uiso   1.00
H1450  H     0.05861   0.47537   0.81946   0.00000  Uiso   1.00
H1451  H     0.11512   0.49052   0.80509   0.00000  Uiso   1.00
H1452  H     0.08526   0.02210   0.84745   0.00000  Uiso   1.00
H1453  H     0.31956   0.37288   0.93580   0.00000  Uiso   1.00
H1454  H     0.27720   0.31711   0.88700   0.00000  Uiso   1.00
H1455  H     0.25575   0.36470   0.85907   0.00000  Uiso   1.00
H1456  H     0.31643   0.02284   0.95822   0.00000  Uiso   1.00
H1457  H     0.24462   0.35729   0.91830   0.00000  Uiso   1.00
H1458  H     0.17357   0.12064   0.72665   0.00000  Uiso   1.00
H1459  H     0.21963   0.17908   0.76859   0.00000  Uiso   1.00
H1460  H     0.24942   0.13717   0.73672   0.00000  Uiso   1.00
H1461  H     0.24348   0.13299   0.79712   0.00000  Uiso   1.00
H1462  H     0.15270   0.11882   0.94182   0.00000  Uiso   1.00
H1463  H     0.09361   0.05737   0.94123   0.00000  Uiso   1.00
H1464  H     0.14383   0.04883   0.97175   0.00000  Uiso   1.00
H1465  H     0.13707   0.02483   0.91583   0.00000  Uiso   1.00
H1466  H     0.39629   0.44364   0.74595   0.00000  Uiso   1.00
H1467  H     0.31653   0.02262   0.70925   0.00000  Uiso   1.00
H1468  H     0.35928   0.37817   0.70554   0.00000  Uiso   1.00
H1469  H     0.34012   0.43183   0.69074   0.00000  Uiso   1.00
H1470  H     0.30870   0.39920   0.72978   0.00000  Uiso   1.00
H1471  H     0.18413   0.47561   0.95748   0.00000  Uiso   1.00
H1472  H     0.47238   0.07907   0.80019   0.00000  Uiso   1.00
N1473  N     0.00000   0.25000   0.95240   0.00000  Uiso   1.00
N1474  N     0.44070   0.37274   0.76371   0.00000  Uiso   1.00
N1475  N     0.38348   0.32257   0.91108   0.00000  Uiso   1.00
N1476  N     0.11275   0.17372   0.75304   0.00000  Uiso   1.00
N1477  N     0.20521   0.35987   0.78442   0.00000  Uiso   1.00
N1478  N     0.29117   0.14297   0.87417   0.00000  Uiso   1.00
N1479  N     0.39415   0.03777   0.80346   0.00000  Uiso   1.00
N1480  N     0.10660   0.46040   0.86831   0.00000  Uiso   1.00
N1481  N     0.30949   0.37742   0.90293   0.00000  Uiso   1.00
N1482  N     0.18610   0.11830   0.75893   0.00000  Uiso   1.00
N1483  N     0.15013   0.09283   0.91862   0.00000  Uiso   1.00
N1484  N     0.00000   0.25000   0.71427   0.00000  Uiso   1.00
N1485  N     0.36731   0.42854   0.75612   0.00000  Uiso   1.00
N1486  N     0.25000   0.00000   0.95240   0.00000  Uiso   1.00
N1487  N     0.25000   0.00000   0.71427   0.00000  Uiso   1.00
N1488  N     0.45734   0.10753   0.79043   0.00000  Uiso   1.00
N1489  N     0.04517   0.38945   0.88220   0.00000  Uiso   1.00
N1490  N     0.14272   0.28924   0.79654   0.00000  Uiso   1.00
N1491  N     0.35568   0.21225   0.86423   0.00000  Uiso   1.00
N1492  N     0.06655   0.13338   0.90817   0.00000  Uiso   1.00
O1493  O     0.04581   0.20419   0.87154   0.00000  Uiso   1.00
O1494  O     0.20420   0.04581   0.79513   0.00000  Uiso   1.00
O1495  O     0.20420   0.04581   0.87154   0.00000  Uiso   1.00
O1496  O     0.29581   0.45419   0.79513   0.00000  Uiso   1.00
O1497  O     0.20420   0.45419   0.79513   0.00000  Uiso   1.00
O1498  O     0.29581   0.04581   0.87154   0.00000  Uiso   1.00
O1499  O     0.29581   0.04581   0.79513   0.00000  Uiso   1.00
O1500  O     0.20420   0.45419   0.87154   0.00000  Uiso   1.00
O1501  O     0.45420   0.29581   0.79513   0.00000  Uiso   1.00
O1502  O     0.45420   0.29581   0.87154   0.00000  Uiso   1.00
O1503  O     0.04581   0.20419   0.79513   0.00000  Uiso   1.00
O1504  O     0.45420   0.20419   0.79513   0.00000  Uiso   1.00
O1505  O     0.04581   0.29581   0.87154   0.00000  Uiso   1.00
O1506  O     0.04581   0.29581   0.79513   0.00000  Uiso   1.00
O1507  O     0.45420   0.20419   0.87154   0.00000  Uiso   1.00
O1508  O     0.29581   0.45419   0.87154   0.00000  Uiso   1.00
Zn1509 Zn    0.00000   0.25000   0.88437   0.00000  Uiso   1.00
Zn1510 Zn    0.00000   0.25000   0.78229   0.00000  Uiso   1.00
Zn1511 Zn    0.25000   0.00000   0.88437   0.00000  Uiso   1.00
Zn1512 Zn    0.25000   0.00000   0.78229   0.00000  Uiso   1.00
C1513  C     0.55903   0.18888   0.83268   0.00000  Uiso   1.00
C1514  C     0.53833   0.25722   0.97606   0.00000  Uiso   1.00
C1515  C     0.53831   0.25731   0.69075   0.00000  Uiso   1.00
C1516  C     0.96171   0.24261   0.97592   0.00000  Uiso   1.00
C1517  C     0.71314   0.48719   0.69043   0.00000  Uiso   1.00
C1518  C     0.78690   0.01278   0.97623   0.00000  Uiso   1.00
C1519  C     0.78693   0.01269   0.69090   0.00000  Uiso   1.00
C1520  C     0.71335   0.48664   0.97578   0.00000  Uiso   1.00
C1521  C     0.91589   0.11569   0.81229   0.00000  Uiso   1.00
C1522  C     0.58535   0.38276   0.85743   0.00000  Uiso   1.00
C1523  C     0.63377   0.33293   0.81291   0.00000  Uiso   1.00
C1524  C     0.94094   0.31102   0.83400   0.00000  Uiso   1.00
C1525  C     0.86521   0.16790   0.85064   0.00000  Uiso   1.00
C1526  C     0.59771   0.13088   0.87145   0.00000  Uiso   1.00
C1527  C     0.90692   0.37337   0.79791   0.00000  Uiso   1.00
C1528  C     0.87899   0.34886   0.87200   0.00000  Uiso   1.00
C1529  C     0.61912   0.14915   0.79309   0.00000  Uiso   1.00
C1530  C     0.66486   0.36670   0.80884   0.00000  Uiso   1.00
C1531  C     0.83354   0.13455   0.85433   0.00000  Uiso   1.00
C1532  C     0.88447   0.08225   0.81653   0.00000  Uiso   1.00
C1533  C     0.61616   0.41663   0.85287   0.00000  Uiso   1.00
C1534  C     0.84328   0.37683   0.86873   0.00000  Uiso   1.00
C1535  C     0.94020   0.18988   0.83276   0.00000  Uiso   1.00
C1536  C     0.65501   0.12135   0.79567   0.00000  Uiso   1.00
C1537  C     0.63514   0.10527   0.87486   0.00000  Uiso   1.00
C1538  C     0.87133   0.40154   0.79475   0.00000  Uiso   1.00
C1539  C     0.59396   0.34212   0.83559   0.00000  Uiso   1.00
C1540  C     0.90632   0.15744   0.83117   0.00000  Uiso   1.00
C1541  C     0.90926   0.34576   0.83541   0.00000  Uiso   1.00
C1542  C     0.59122   0.15448   0.83148   0.00000  Uiso   1.00
C1543  C     0.84333   0.09277   0.83569   0.00000  Uiso   1.00
C1544  C     0.65627   0.40738   0.83078   0.00000  Uiso   1.00
C1545  C     0.66096   0.09738   0.83544   0.00000  Uiso   1.00
C1546  C     0.56005   0.30982   0.83392   0.00000  Uiso   1.00
C1547  C     0.84093   0.40444   0.83124   0.00000  Uiso   1.00
C1548  C     0.95628   0.11143   0.74152   0.00000  Uiso   1.00
C1549  C     0.54869   0.38253   0.93052   0.00000  Uiso   1.00
C1550  C     0.65987   0.26097   0.83087   0.00000  Uiso   1.00
C1551  C     0.84096   0.23897   0.82742   0.00000  Uiso   1.00
C1552  C     0.52561   0.10899   0.90059   0.00000  Uiso   1.00
C1553  C     0.98053   0.39719   0.77571   0.00000  Uiso   1.00
C1554  C     0.90801   0.34385   0.94799   0.00000  Uiso   1.00
C1555  C     0.58570   0.15171   0.71857   0.00000  Uiso   1.00
C1556  C     0.70226   0.36715   0.73613   0.00000  Uiso   1.00
C1557  C     0.80913   0.43906   0.83266   0.00000  Uiso   1.00
C1558  C     0.78872   0.13735   0.92279   0.00000  Uiso   1.00
C1559  C     0.90930   0.01165   0.84054   0.00000  Uiso   1.00
C1560  C     0.59058   0.48839   0.83315   0.00000  Uiso   1.00
C1561  C     0.76979   0.35271   0.89105   0.00000  Uiso   1.00
C1562  C     0.72668   0.14332   0.76587   0.00000  Uiso   1.00
C1563  C     0.62987   0.05403   0.93754   0.00000  Uiso   1.00
C1564  C     0.84265   0.40830   0.71871   0.00000  Uiso   1.00
C1565  C     0.69178   0.06179   0.83404   0.00000  Uiso   1.00
C1566  C     0.69015   0.43988   0.83269   0.00000  Uiso   1.00
C1567  C     0.80962   0.06025   0.83394   0.00000  Uiso   1.00
C1568  C     0.96169   0.24269   0.69060   0.00000  Uiso   1.00
H1569  H     0.93107   0.23696   0.70879   0.00000  Uiso   1.00
H1570  H     0.93067   0.08922   0.72608   0.00000  Uiso   1.00
H1571  H     0.98880   0.10217   0.72680   0.00000  Uiso   1.00
H1572  H     0.94907   0.14573   0.73234   0.00000  Uiso   1.00
H1573  H     0.52926   0.41828   0.87521   0.00000  Uiso   1.00
H1574  H     0.51552   0.38543   0.94655   0.00000  Uiso   1.00
H1575  H     0.57117   0.40744   0.94679   0.00000  Uiso   1.00
H1576  H     0.56159   0.34930   0.93700   0.00000  Uiso   1.00
H1577  H     0.66027   0.28695   0.76656   0.00000  Uiso   1.00
H1578  H     0.69167   0.27445   0.84452   0.00000  Uiso   1.00
H1579  H     0.66596   0.22776   0.81581   0.00000  Uiso   1.00
H1580  H     0.56896   0.26285   0.95787   0.00000  Uiso   1.00
H1581  H     0.63567   0.25771   0.85911   0.00000  Uiso   1.00
H1582  H     0.83626   0.21584   0.89286   0.00000  Uiso   1.00
H1583  H     0.81001   0.22500   0.81228   0.00000  Uiso   1.00
H1584  H     0.86688   0.24091   0.80070   0.00000  Uiso   1.00
H1585  H     0.83415   0.27278   0.84044   0.00000  Uiso   1.00
H1586  H     0.57875   0.13130   0.94062   0.00000  Uiso   1.00
H1587  H     0.53217   0.07327   0.89605   0.00000  Uiso   1.00
H1588  H     0.50855   0.12057   0.86996   0.00000  Uiso   1.00
H1589  H     0.50320   0.11415   0.93019   0.00000  Uiso   1.00
H1590  H     0.93063   0.37756   0.73089   0.00000  Uiso   1.00
H1591  H     0.56895   0.26299   0.70904   0.00000  Uiso   1.00
H1592  H     0.97326   0.43279   0.78022   0.00000  Uiso   1.00
H1593  H     0.50558   0.39283   0.74830   0.00000  Uiso   1.00
H1594  H     0.99464   0.38479   0.80746   0.00000  Uiso   1.00
H1595  H     0.85469   0.30735   0.92164   0.00000  Uiso   1.00
H1596  H     0.89174   0.37470   0.95971   0.00000  Uiso   1.00
H1597  H     0.94221   0.35196   0.93691   0.00000  Uiso   1.00
H1598  H     0.90981   0.32149   0.97702   0.00000  Uiso   1.00
H1599  H     0.64103   0.18806   0.74009   0.00000  Uiso   1.00
H1600  H     0.60085   0.12037   0.70658   0.00000  Uiso   1.00
H1601  H     0.58216   0.17330   0.68909   0.00000  Uiso   1.00
H1602  H     0.93109   0.23684   0.95763   0.00000  Uiso   1.00
H1603  H     0.55229   0.14458   0.73229   0.00000  Uiso   1.00
H1604  H     0.72071   0.33078   0.79125   0.00000  Uiso   1.00
H1605  H     0.68051   0.34199   0.71925   0.00000  Uiso   1.00
H1606  H     0.73571   0.36507   0.72062   0.00000  Uiso   1.00
H1607  H     0.68875   0.40013   0.72979   0.00000  Uiso   1.00
H1608  H     0.77691   0.17183   0.86444   0.00000  Uiso   1.00
H1609  H     0.75360   0.13886   0.93395   0.00000  Uiso   1.00
H1610  H     0.80777   0.16376   0.94110   0.00000  Uiso   1.00
H1611  H     0.80211   0.10507   0.93219   0.00000  Uiso   1.00
H1612  H     0.91336   0.03376   0.77472   0.00000  Uiso   1.00
H1613  H     0.68354   0.47734   0.70842   0.00000  Uiso   1.00
H1614  H     0.91596   0.47764   0.82801   0.00000  Uiso   1.00
H1615  H     0.88366   0.01014   0.86760   0.00000  Uiso   1.00
H1616  H     0.94042   0.02588   0.85506   0.00000  Uiso   1.00
H1617  H     0.58807   0.46295   0.89766   0.00000  Uiso   1.00
H1618  H     0.55861   0.47537   0.81946   0.00000  Uiso   1.00
H1619  H     0.61512   0.49052   0.80509   0.00000  Uiso   1.00
H1620  H     0.58526   0.02210   0.84745   0.00000  Uiso   1.00
H1621  H     0.81956   0.37288   0.93580   0.00000  Uiso   1.00
H1622  H     0.77720   0.31711   0.88700   0.00000  Uiso   1.00
H1623  H     0.75575   0.36470   0.85907   0.00000  Uiso   1.00
H1624  H     0.81643   0.02284   0.95822   0.00000  Uiso   1.00
H1625  H     0.74462   0.35729   0.91830   0.00000  Uiso   1.00
H1626  H     0.67357   0.12064   0.72665   0.00000  Uiso   1.00
H1627  H     0.71963   0.17908   0.76859   0.00000  Uiso   1.00
H1628  H     0.74942   0.13717   0.73672   0.00000  Uiso   1.00
H1629  H     0.74348   0.13299   0.79712   0.00000  Uiso   1.00
H1630  H     0.65270   0.11882   0.94182   0.00000  Uiso   1.00
H1631  H     0.59361   0.05737   0.94123   0.00000  Uiso   1.00
H1632  H     0.64383   0.04883   0.97175   0.00000  Uiso   1.00
H1633  H     0.63707   0.02483   0.91583   0.00000  Uiso   1.00
H1634  H     0.89629   0.44364   0.74595   0.00000  Uiso   1.00
H1635  H     0.81653   0.02262   0.70925   0.00000  Uiso   1.00
H1636  H     0.85928   0.37817   0.70554   0.00000  Uiso   1.00
H1637  H     0.84012   0.43183   0.69074   0.00000  Uiso   1.00
H1638  H     0.80870   0.39920   0.72978   0.00000  Uiso   1.00
H1639  H     0.68413   0.47561   0.95748   0.00000  Uiso   1.00
H1640  H     0.97238   0.07907   0.80019   0.00000  Uiso   1.00
N1641  N     0.50000   0.25000   0.95240   0.00000  Uiso   1.00
N1642  N     0.94070   0.37274   0.76371   0.00000  Uiso   1.00
N1643  N     0.88348   0.32257   0.91108   0.00000  Uiso   1.00
N1644  N     0.61275   0.17372   0.75304   0.00000  Uiso   1.00
N1645  N     0.70521   0.35987   0.78442   0.00000  Uiso   1.00
N1646  N     0.79117   0.14297   0.87417   0.00000  Uiso   1.00
N1647  N     0.89415   0.03777   0.80346   0.00000  Uiso   1.00
N1648  N     0.60660   0.46040   0.86831   0.00000  Uiso   1.00
N1649  N     0.80949   0.37742   0.90293   0.00000  Uiso   1.00
N1650  N     0.68610   0.11830   0.75893   0.00000  Uiso   1.00
N1651  N     0.65013   0.09283   0.91862   0.00000  Uiso   1.00
N1652  N     0.50000   0.25000   0.71427   0.00000  Uiso   1.00
N1653  N     0.86731   0.42854   0.75612   0.00000  Uiso   1.00
N1654  N     0.75000   0.00000   0.95240   0.00000  Uiso   1.00
N1655  N     0.75000   0.00000   0.71427   0.00000  Uiso   1.00
N1656  N     0.95734   0.10753   0.79043   0.00000  Uiso   1.00
N1657  N     0.54517   0.38945   0.88220   0.00000  Uiso   1.00
N1658  N     0.64272   0.28924   0.79654   0.00000  Uiso   1.00
N1659  N     0.85568   0.21225   0.86423   0.00000  Uiso   1.00
N1660  N     0.56655   0.13338   0.90817   0.00000  Uiso   1.00
O1661  O     0.54581   0.20419   0.87154   0.00000  Uiso   1.00
O1662  O     0.70420   0.04581   0.79513   0.00000  Uiso   1.00
O1663  O     0.70420   0.04581   0.87154   0.00000  Uiso   1.00
O1664  O     0.79581   0.45419   0.79513   0.00000  Uiso   1.00
O1665  O     0.70420   0.45419   0.79513   0.00000  Uiso   1.00
O1666  O     0.79581   0.04581   0.87154   0.00000  Uiso   1.00
O1667  O     0.79581   0.04581   0.79513   0.00000  Uiso   1.00
O1668  O     0.70420   0.45419   0.87154   0.00000  Uiso   1.00
O1669  O     0.95420   0.29581   0.79513   0.00000  Uiso   1.00
O1670  O     0.95420   0.29581   0.87154   0.00000  Uiso   1.00
O1671  O     0.54581   0.20419   0.79513   0.00000  Uiso   1.00
O1672  O     0.95420   0.20419   0.79513   0.00000  Uiso   1.00
O1673  O     0.54581   0.29581   0.87154   0.00000  Uiso   1.00
O1674  O     0.54581   0.29581   0.79513   0.00000  Uiso   1.00
O1675  O     0.95420   0.20419   0.87154   0.00000  Uiso   1.00
O1676  O     0.79581   0.45419   0.87154   0.00000  Uiso   1.00
Zn1677 Zn    0.50000   0.25000   0.88437   0.00000  Uiso   1.00
Zn1678 Zn    0.50000   0.25000   0.78229   0.00000  Uiso   1.00
Zn1679 Zn    0.75000   0.00000   0.88437   0.00000  Uiso   1.00
Zn1680 Zn    0.75000   0.00000   0.78229   0.00000  Uiso   1.00
C1681  C     0.05903   0.68888   0.83268   0.00000  Uiso   1.00
C1682  C     0.03833   0.75722   0.97606   0.00000  Uiso   1.00
C1683  C     0.03831   0.75731   0.69075   0.00000  Uiso   1.00
C1684  C     0.46171   0.74261   0.97592   0.00000  Uiso   1.00
C1685  C     0.21314   0.98719   0.69043   0.00000  Uiso   1.00
C1686  C     0.28690   0.51278   0.97623   0.00000  Uiso   1.00
C1687  C     0.28693   0.51269   0.69090   0.00000  Uiso   1.00
C1688  C     0.21335   0.98664   0.97578   0.00000  Uiso   1.00
C1689  C     0.41589   0.61569   0.81229   0.00000  Uiso   1.00
C1690  C     0.08535   0.88276   0.85743   0.00000  Uiso   1.00
C1691  C     0.13377   0.83293   0.81291   0.00000  Uiso   1.00
C1692  C     0.44094   0.81102   0.83400   0.00000  Uiso   1.00
C1693  C     0.36521   0.66790   0.85064   0.00000  Uiso   1.00
C1694  C     0.09771   0.63088   0.87145   0.00000  Uiso   1.00
C1695  C     0.40692   0.87337   0.79791   0.00000  Uiso   1.00
C1696  C     0.37899   0.84886   0.87200   0.00000  Uiso   1.00
C1697  C     0.11912   0.64915   0.79309   0.00000  Uiso   1.00
C1698  C     0.16486   0.86670   0.80884   0.00000  Uiso   1.00
C1699  C     0.33354   0.63455   0.85433   0.00000  Uiso   1.00
C1700  C     0.38447   0.58225   0.81653   0.00000  Uiso   1.00
C1701  C     0.11616   0.91663   0.85287   0.00000  Uiso   1.00
C1702  C     0.34328   0.87683   0.86873   0.00000  Uiso   1.00
C1703  C     0.44020   0.68988   0.83276   0.00000  Uiso   1.00
C1704  C     0.15501   0.62135   0.79567   0.00000  Uiso   1.00
C1705  C     0.13514   0.60527   0.87486   0.00000  Uiso   1.00
C1706  C     0.37133   0.90154   0.79475   0.00000  Uiso   1.00
C1707  C     0.09396   0.84212   0.83559   0.00000  Uiso   1.00
C1708  C     0.40632   0.65744   0.83117   0.00000  Uiso   1.00
C1709  C     0.40926   0.84576   0.83541   0.00000  Uiso   1.00
C1710  C     0.09122   0.65448   0.83148   0.00000  Uiso   1.00
C1711  C     0.34333   0.59277   0.83569   0.00000  Uiso   1.00
C1712  C     0.15627   0.90738   0.83078   0.00000  Uiso   1.00
C1713  C     0.16096   0.59738   0.83544   0.00000  Uiso   1.00
C1714  C     0.06005   0.80982   0.83392   0.00000  Uiso   1.00
C1715  C     0.34093   0.90444   0.83124   0.00000  Uiso   1.00
C1716  C     0.45628   0.61143   0.74152   0.00000  Uiso   1.00
C1717  C     0.04869   0.88253   0.93052   0.00000  Uiso   1.00
C1718  C     0.15987   0.76097   0.83087   0.00000  Uiso   1.00
C1719  C     0.34096   0.73897   0.82742   0.00000  Uiso   1.00
C1720  C     0.02561   0.60899   0.90059   0.00000  Uiso   1.00
C1721  C     0.48053   0.89719   0.77571   0.00000  Uiso   1.00
C1722  C     0.40801   0.84385   0.94799   0.00000  Uiso   1.00
C1723  C     0.08570   0.65171   0.71857   0.00000  Uiso   1.00
C1724  C     0.20226   0.86715   0.73613   0.00000  Uiso   1.00
C1725  C     0.30913   0.93906   0.83266   0.00000  Uiso   1.00
C1726  C     0.28872   0.63735   0.92279   0.00000  Uiso   1.00
C1727  C     0.40930   0.51165   0.84054   0.00000  Uiso   1.00
C1728  C     0.09058   0.98839   0.83315   0.00000  Uiso   1.00
C1729  C     0.26979   0.85271   0.89105   0.00000  Uiso   1.00
C1730  C     0.22668   0.64332   0.76587   0.00000  Uiso   1.00
C1731  C     0.12987   0.55403   0.93754   0.00000  Uiso   1.00
C1732  C     0.34265   0.90830   0.71871   0.00000  Uiso   1.00
C1733  C     0.19178   0.56179   0.83404   0.00000  Uiso   1.00
C1734  C     0.19015   0.93988   0.83269   0.00000  Uiso   1.00
C1735  C     0.30962   0.56025   0.83394   0.00000  Uiso   1.00
C1736  C     0.46169   0.74269   0.69060   0.00000  Uiso   1.00
H1737  H     0.43107   0.73696   0.70879   0.00000  Uiso   1.00
H1738  H     0.43067   0.58922   0.72608   0.00000  Uiso   1.00
H1739  H     0.48880   0.60217   0.72680   0.00000  Uiso   1.00
H1740  H     0.44907   0.64573   0.73234   0.00000  Uiso   1.00
H1741  H     0.02926   0.91828   0.87521   0.00000  Uiso   1.00
H1742  H     0.01552   0.88543   0.94655   0.00000  Uiso   1.00
H1743  H     0.07117   0.90744   0.94679   0.00000  Uiso   1.00
H1744  H     0.06159   0.84930   0.93700   0.00000  Uiso   1.00
H1745  H     0.16027   0.78695   0.76656   0.00000  Uiso   1.00
H1746  H     0.19167   0.77445   0.84452   0.00000  Uiso   1.00
H1747  H     0.16596   0.72776   0.81581   0.00000  Uiso   1.00
H1748  H     0.06896   0.76285   0.95787   0.00000  Uiso   1.00
H1749  H     0.13567   0.75771   0.85911   0.00000  Uiso   1.00
H1750  H     0.33626   0.71584   0.89286   0.00000  Uiso   1.00
H1751  H     0.31001   0.72500   0.81228   0.00000  Uiso   1.00
H1752  H     0.36688   0.74091   0.80070   0.00000  Uiso   1.00
H1753  H     0.33415   0.77278   0.84044   0.00000  Uiso   1.00
H1754  H     0.07875   0.63130   0.94062   0.00000  Uiso   1.00
H1755  H     0.03217   0.57327   0.89605   0.00000  Uiso   1.00
H1756  H     0.00855   0.62057   0.86996   0.00000  Uiso   1.00
H1757  H     0.00320   0.61415   0.93019   0.00000  Uiso   1.00
H1758  H     0.43063   0.87756   0.73089   0.00000  Uiso   1.00
H1759  H     0.06895   0.76299   0.70904   0.00000  Uiso   1.00
H1760  H     0.47326   0.93279   0.78022   0.00000  Uiso   1.00
H1761  H     0.00558   0.89283   0.74830   0.00000  Uiso   1.00
H1762  H     0.49464   0.88479   0.80746   0.00000  Uiso   1.00
H1763  H     0.35469   0.80735   0.92164   0.00000  Uiso   1.00
H1764  H     0.39174   0.87470   0.95971   0.00000  Uiso   1.00
H1765  H     0.44221   0.85196   0.93691   0.00000  Uiso   1.00
H1766  H     0.40981   0.82149   0.97702   0.00000  Uiso   1.00
H1767  H     0.14103   0.68806   0.74009   0.00000  Uiso   1.00
H1768  H     0.10085   0.62037   0.70658   0.00000  Uiso   1.00
H1769  H     0.08216   0.67330   0.68909   0.00000  Uiso   1.00
H1770  H     0.43109   0.73684   0.95763   0.00000  Uiso   1.00
H1771  H     0.05229   0.64458   0.73229   0.00000  Uiso   1.00
H1772  H     0.22071   0.83078   0.79125   0.00000  Uiso   1.00
H1773  H     0.18051   0.84199   0.71925   0.00000  Uiso   1.00
H1774  H     0.23571   0.86507   0.72062   0.00000  Uiso   1.00
H1775  H     0.18875   0.90013   0.72979   0.00000  Uiso   1.00
H1776  H     0.27691   0.67183   0.86444   0.00000  Uiso   1.00
H1777  H     0.25360   0.63886   0.93395   0.00000  Uiso   1.00
H1778  H     0.30777   0.66376   0.94110   0.00000  Uiso   1.00
H1779  H     0.30211   0.60507   0.93219   0.00000  Uiso   1.00
H1780  H     0.41336   0.53376   0.77472   0.00000  Uiso   1.00
H1781  H     0.18354   0.97734   0.70842   0.00000  Uiso   1.00
H1782  H     0.41596   0.97764   0.82801   0.00000  Uiso   1.00
H1783  H     0.38366   0.51014   0.86760   0.00000  Uiso   1.00
H1784  H     0.44042   0.52588   0.85506   0.00000  Uiso   1.00
H1785  H     0.08807   0.96295   0.89766   0.00000  Uiso   1.00
H1786  H     0.05861   0.97537   0.81946   0.00000  Uiso   1.00
H1787  H     0.11512   0.99052   0.80509   0.00000  Uiso   1.00
H1788  H     0.08526   0.52210   0.84745   0.00000  Uiso   1.00
H1789  H     0.31956   0.87288   0.93580   0.00000  Uiso   1.00
H1790  H     0.27720   0.81711   0.88700   0.00000  Uiso   1.00
H1791  H     0.25575   0.86470   0.85907   0.00000  Uiso   1.00
H1792  H     0.31643   0.52284   0.95822   0.00000  Uiso   1.00
H1793  H     0.24462   0.85729   0.91830   0.00000  Uiso   1.00
H1794  H     0.17357   0.62064   0.72665   0.00000  Uiso   1.00
H1795  H     0.21963   0.67908   0.76859   0.00000  Uiso   1.00
H1796  H     0.24942   0.63717   0.73672   0.00000  Uiso   1.00
H1797  H     0.24348   0.63299   0.79712   0.00000  Uiso   1.00
H1798  H     0.15270   0.61882   0.94182   0.00000  Uiso   1.00
H1799  H     0.09361   0.55737   0.94123   0.00000  Uiso   1.00
H1800  H     0.14383   0.54883   0.97175   0.00000  Uiso   1.00
H1801  H     0.13707   0.52483   0.91583   0.00000  Uiso   1.00
H1802  H     0.39629   0.94364   0.74595   0.00000  Uiso   1.00
H1803  H     0.31653   0.52262   0.70925   0.00000  Uiso   1.00
H1804  H     0.35928   0.87817   0.70554   0.00000  Uiso   1.00
H1805  H     0.34012   0.93183   0.69074   0.00000  Uiso   1.00
H1806  H     0.30870   0.89920   0.72978   0.00000  Uiso   1.00
H1807  H     0.18413   0.97561   0.95748   0.00000  Uiso   1.00
H1808  H     0.47238   0.57907   0.80019   0.00000  Uiso   1.00
N1809  N     0.00000   0.75000   0.95240   0.00000  Uiso   1.00
N1810  N     0.44070   0.87274   0.76371   0.00000  Uiso   1.00
N1811  N     0.38348   0.82257   0.91108   0.00000  Uiso   1.00
N1812  N     0.11275   0.67372   0.75304   0.00000  Uiso   1.00
N1813  N     0.20521   0.85987   0.78442   0.00000  Uiso   1.00
N1814  N     0.29117   0.64297   0.87417   0.00000  Uiso   1.00
N1815  N     0.39415   0.53777   0.80346   0.00000  Uiso   1.00
N1816  N     0.10660   0.96040   0.86831   0.00000  Uiso   1.00
N1817  N     0.30949   0.87742   0.90293   0.00000  Uiso   1.00
N1818  N     0.18610   0.61830   0.75893   0.00000  Uiso   1.00
N1819  N     0.15013   0.59283   0.91862   0.00000  Uiso   1.00
N1820  N     0.00000   0.75000   0.71427   0.00000  Uiso   1.00
N1821  N     0.36731   0.92854   0.75612   0.00000  Uiso   1.00
N1822  N     0.25000   0.50000   0.95240   0.00000  Uiso   1.00
N1823  N     0.25000   0.50000   0.71427   0.00000  Uiso   1.00
N1824  N     0.45734   0.60753   0.79043   0.00000  Uiso   1.00
N1825  N     0.04517   0.88945   0.88220   0.00000  Uiso   1.00
N1826  N     0.14272   0.78924   0.79654   0.00000  Uiso   1.00
N1827  N     0.35568   0.71225   0.86423   0.00000  Uiso   1.00
N1828  N     0.06655   0.63338   0.90817   0.00000  Uiso   1.00
O1829  O     0.04581   0.70419   0.87154   0.00000  Uiso   1.00
O1830  O     0.20420   0.54581   0.79513   0.00000  Uiso   1.00
O1831  O     0.20420   0.54581   0.87154   0.00000  Uiso   1.00
O1832  O     0.29581   0.95419   0.79513   0.00000  Uiso   1.00
O1833  O     0.20420   0.95419   0.79513   0.00000  Uiso   1.00
O1834  O     0.29581   0.54581   0.87154   0.00000  Uiso   1.00
O1835  O     0.29581   0.54581   0.79513   0.00000  Uiso   1.00
O1836  O     0.20420   0.95419   0.87154   0.00000  Uiso   1.00
O1837  O     0.45420   0.79581   0.79513   0.00000  Uiso   1.00
O1838  O     0.45420   0.79581   0.87154   0.00000  Uiso   1.00
O1839  O     0.04581   0.70419   0.79513   0.00000  Uiso   1.00
O1840  O     0.45420   0.70419   0.79513   0.00000  Uiso   1.00
O1841  O     0.04581   0.79581   0.87154   0.00000  Uiso   1.00
O1842  O     0.04581   0.79581   0.79513   0.00000  Uiso   1.00
O1843  O     0.45420   0.70419   0.87154   0.00000  Uiso   1.00
O1844  O     0.29581   0.95419   0.87154   0.00000  Uiso   1.00
Zn1845 Zn    0.00000   0.75000   0.88437   0.00000  Uiso   1.00
Zn1846 Zn    0.00000   0.75000   0.78229   0.00000  Uiso   1.00
Zn1847 Zn    0.25000   0.50000   0.88437   0.00000  Uiso   1.00
Zn1848 Zn    0.25000   0.50000   0.78229   0.00000  Uiso   1.00
C1849  C     0.55903   0.68888   0.83268   0.00000  Uiso   1.00
C1850  C     0.53833   0.75722   0.97606   0.00000  Uiso   1.00
C1851  C     0.53831   0.75731   0.69075   0.00000  Uiso   1.00
C1852  C     0.96171   0.74261   0.97592   0.00000  Uiso   1.00
C1853  C     0.71314   0.98719   0.69043   0.00000  Uiso   1.00
C1854  C     0.78690   0.51278   0.97623   0.00000  Uiso   1.00
C1855  C     0.78693   0.51269   0.69090   0.00000  Uiso   1.00
C1856  C     0.71335   0.98664   0.97578   0.00000  Uiso   1.00
C1857  C     0.91589   0.61569   0.81229   0.00000  Uiso   1.00
C1858  C     0.58535   0.88276   0.85743   0.00000  Uiso   1.00
C1859  C     0.63377   0.83293   0.81291   0.00000  Uiso   1.00
C1860  C     0.94094   0.81102   0.83400   0.00000  Uiso   1.00
C1861  C     0.86521   0.66790   0.85064   0.00000  Uiso   1.00
C1862  C     0.59771   0.63088   0.87145   0.00000  Uiso   1.00
C1863  C     0.90692   0.87337   0.79791   0.00000  Uiso   1.00
C1864  C     0.87899   0.84886   0.87200   0.00000  Uiso   1.00
C1865  C     0.61912   0.64915   0.79309   0.00000  Uiso   1.00
C1866  C     0.66486   0.86670   0.80884   0.00000  Uiso   1.00
C1867  C     0.83354   0.63455   0.85433   0.00000  Uiso   1.00
C1868  C     0.88447   0.58225   0.81653   0.00000  Uiso   1.00
C1869  C     0.61616   0.91663   0.85287   0.00000  Uiso   1.00
C1870  C     0.84328   0.87683   0.86873   0.00000  Uiso   1.00
C1871  C     0.94020   0.68988   0.83276   0.00000  Uiso   1.00
C1872  C     0.65501   0.62135   0.79567   0.00000  Uiso   1.00
C1873  C     0.63514   0.60527   0.87486   0.00000  Uiso   1.00
C1874  C     0.87133   0.90154   0.79475   0.00000  Uiso   1.00
C1875  C     0.59396   0.84212   0.83559   0.00000  Uiso   1.00
C1876  C     0.90632   0.65744   0.83117   0.00000  Uiso   1.00
C1877  C     0.90926   0.84576   0.83541   0.00000  Uiso   1.00
C1878  C     0.59122   0.65448   0.83148   0.00000  Uiso   1.00
C1879  C     0.84333   0.59277   0.83569   0.00000  Uiso   1.00
C1880  C     0.65627   0.90738   0.83078   0.00000  Uiso   1.00
C1881  C     0.66096   0.59738   0.83544   0.00000  Uiso   1.00
C1882  C     0.56005   0.80982   0.83392   0.00000  Uiso   1.00
C1883  C     0.84093   0.90444   0.83124   0.00000  Uiso   1.00
C1884  C     0.95628   0.61143   0.74152   0.00000  Uiso   1.00
C1885  C     0.54869   0.88253   0.93052   0.00000  Uiso   1.00
C1886  C     0.65987   0.76097   0.83087   0.00000  Uiso   1.00
C1887  C     0.84096   0.73897   0.82742   0.00000  Uiso   1.00
C1888  C     0.52561   0.60899   0.90059   0.00000  Uiso   1.00
C1889  C     0.98053   0.89719   0.77571   0.00000  Uiso   1.00
C1890  C     0.90801   0.84385   0.94799   0.00000  Uiso   1.00
C1891  C     0.58570   0.65171   0.71857   0.00000  Uiso   1.00
C1892  C     0.70226   0.86715   0.73613   0.00000  Uiso   1.00
C1893  C     0.80913   0.93906   0.83266   0.00000  Uiso   1.00
C1894  C     0.78872   0.63735   0.92279   0.00000  Uiso   1.00
C1895  C     0.90930   0.51165   0.84054   0.00000  Uiso   1.00
C1896  C     0.59058   0.98839   0.83315   0.00000  Uiso   1.00
C1897  C     0.76979   0.85271   0.89105   0.00000  Uiso   1.00
C1898  C     0.72668   0.64332   0.76587   0.00000  Uiso   1.00
C1899  C     0.62987   0.55403   0.93754   0.00000  Uiso   1.00
C1900  C     0.84265   0.90830   0.71871   0.00000  Uiso   1.00
C1901  C     0.69178   0.56179   0.83404   0.00000  Uiso   1.00
C1902  C     0.69015   0.93988   0.83269   0.00000  Uiso   1.00
C1903  C     0.80962   0.56025   0.83394   0.00000  Uiso   1.00
C1904  C     0.96169   0.74269   0.69060   0.00000  Uiso   1.00
H1905  H     0.93107   0.73696   0.70879   0.00000  Uiso   1.00
H1906  H     0.93067   0.58922   0.72608   0.00000  Uiso   1.00
H1907  H     0.98880   0.60217   0.72680   0.00000  Uiso   1.00
H1908  H     0.94907   0.64573   0.73234   0.00000  Uiso   1.00
H1909  H     0.52926   0.91828   0.87521   0.00000  Uiso   1.00
H1910  H     0.51552   0.88543   0.94655   0.00000  Uiso   1.00
H1911  H     0.57117   0.90744   0.94679   0.00000  Uiso   1.00
H1912  H     0.56159   0.84930   0.93700   0.00000  Uiso   1.00
H1913  H     0.66027   0.78695   0.76656   0.00000  Uiso   1.00
H1914  H     0.69167   0.77445   0.84452   0.00000  Uiso   1.00
H1915  H     0.66596   0.72776   0.81581   0.00000  Uiso   1.00
H1916  H     0.56896   0.76285   0.95787   0.00000  Uiso   1.00
H1917  H     0.63567   0.75771   0.85911   0.00000  Uiso   1.00
H1918  H     0.83626   0.71584   0.89286   0.00000  Uiso   1.00
H1919  H     0.81001   0.72500   0.81228   0.00000  Uiso   1.00
H1920  H     0.86688   0.74091   0.80070   0.00000  Uiso   1.00
H1921  H     0.83415   0.77278   0.84044   0.00000  Uiso   1.00
H1922  H     0.57875   0.63130   0.94062   0.00000  Uiso   1.00
H1923  H     0.53217   0.57327   0.89605   0.00000  Uiso   1.00
H1924  H     0.50855   0.62057   0.86996   0.00000  Uiso   1.00
H1925  H     0.50320   0.61415   0.93019   0.00000  Uiso   1.00
H1926  H     0.93063   0.87756   0.73089   0.00000  Uiso   1.00
H1927  H     0.56895   0.76299   0.70904   0.00000  Uiso   1.00
H1928  H     0.97326   0.93279   0.78022   0.00000  Uiso   1.00
H1929  H     0.50558   0.89283   0.74830   0.00000  Uiso   1.00
H1930  H     0.99464   0.88479   0.80746   0.00000  Uiso   1.00
H1931  H     0.85469   0.80735   0.92164   0.00000  Uiso   1.00
H1932  H     0.89174   0.87470   0.95971   0.00000  Uiso   1.00
H1933  H     0.94221   0.85196   0.93691   0.00000  Uiso   1.00
H1934  H     0.90981   0.82149   0.97702   0.00000  Uiso   1.00
H1935  H     0.64103   0.68806   0.74009   0.00000  Uiso   1.00
H1936  H     0.60085   0.62037   0.70658   0.00000  Uiso   1.00
H1937  H     0.58216   0.67330   0.68909   0.00000  Uiso   1.00
H1938  H     0.93109   0.73684   0.95763   0.00000  Uiso   1.00
H1939  H     0.55229   0.64458   0.73229   0.00000  Uiso   1.00
H1940  H     0.72071   0.83078   0.79125   0.00000  Uiso   1.00
H1941  H     0.68051   0.84199   0.71925   0.00000  Uiso   1.00
H1942  H     0.73571   0.86507   0.72062   0.00000  Uiso   1.00
H1943  H     0.68875   0.90013   0.72979   0.00000  Uiso   1.00
H1944  H     0.77691   0.67183   0.86444   0.00000  Uiso   1.00
H1945  H     0.75360   0.63886   0.93395   0.00000  Uiso   1.00
H1946  H     0.80777   0.66376   0.94110   0.00000  Uiso   1.00
H1947  H     0.80211   0.60507   0.93219   0.00000  Uiso   1.00
H1948  H     0.91336   0.53376   0.77472   0.00000  Uiso   1.00
H1949  H     0.68354   0.97734   0.70842   0.00000  Uiso   1.00
H1950  H     0.91596   0.97764   0.82801   0.00000  Uiso   1.00
H1951  H     0.88366   0.51014   0.86760   0.00000  Uiso   1.00
H1952  H     0.94042   0.52588   0.85506   0.00000  Uiso   1.00
H1953  H     0.58807   0.96295   0.89766   0.00000  Uiso   1.00
H1954  H     0.55861   0.97537   0.81946   0.00000  Uiso   1.00
H1955  H     0.61512   0.99052   0.80509   0.00000  Uiso   1.00
H1956  H     0.58526   0.52210   0.84745   0.00000  Uiso   1.00
H1957  H     0.81956   0.87288   0.93580   0.00000  Uiso   1.00
H1958  H     0.77720   0.81711   0.88700   0.00000  Uiso   1.00
H1959  H     0.75575   0.86470   0.85907   0.00000  Uiso   1.00
H1960  H     0.81643   0.52284   0.95822   0.00000  Uiso   1.00
H1961  H     0.74462   0.85729   0.91830   0.00000  Uiso   1.00
H1962  H     0.67357   0.62064   0.72665   0.00000  Uiso   1.00
H1963  H     0.71963   0.67908   0.76859   0.00000  Uiso   1.00
H1964  H     0.74942   0.63717   0.73672   0.00000  Uiso   1.00
H1965  H     0.74348   0.63299   0.79712   0.00000  Uiso   1.00
H1966  H     0.65270   0.61882   0.94182   0.00000  Uiso   1.00
H1967  H     0.59361   0.55737   0.94123   0.00000  Uiso   1.00
H1968  H     0.64383   0.54883   0.97175   0.00000  Uiso   1.00
H1969  H     0.63707   0.52483   0.91583   0.00000  Uiso   1.00
H1970  H     0.89629   0.94364   0.74595   0.00000  Uiso   1.00
H1971  H     0.81653   0.52262   0.70925   0.00000  Uiso   1.00
H1972  H     0.85928   0.87817   0.70554   0.00000  Uiso   1.00
H1973  H     0.84012   0.93183   0.69074   0.00000  Uiso   1.00
H1974  H     0.80870   0.89920   0.72978   0.00000  Uiso   1.00
H1975  H     0.68413   0.97561   0.95748   0.00000  Uiso   1.00
H1976  H     0.97238   0.57907   0.80019   0.00000  Uiso   1.00
N1977  N     0.50000   0.75000   0.95240   0.00000  Uiso   1.00
N1978  N     0.94070   0.87274   0.76371   0.00000  Uiso   1.00
N1979  N     0.88348   0.82257   0.91108   0.00000  Uiso   1.00
N1980  N     0.61275   0.67372   0.75304   0.00000  Uiso   1.00
N1981  N     0.70521   0.85987   0.78442   0.00000  Uiso   1.00
N1982  N     0.79117   0.64297   0.87417   0.00000  Uiso   1.00
N1983  N     0.89415   0.53777   0.80346   0.00000  Uiso   1.00
N1984  N     0.60660   0.96040   0.86831   0.00000  Uiso   1.00
N1985  N     0.80949   0.87742   0.90293   0.00000  Uiso   1.00
N1986  N     0.68610   0.61830   0.75893   0.00000  Uiso   1.00
N1987  N     0.65013   0.59283   0.91862   0.00000  Uiso   1.00
N1988  N     0.50000   0.75000   0.71427   0.00000  Uiso   1.00
N1989  N     0.86731   0.92854   0.75612   0.00000  Uiso   1.00
N1990  N     0.75000   0.50000   0.95240   0.00000  Uiso   1.00
N1991  N     0.75000   0.50000   0.71427   0.00000  Uiso   1.00
N1992  N     0.95734   0.60753   0.79043   0.00000  Uiso   1.00
N1993  N     0.54517   0.88945   0.88220   0.00000  Uiso   1.00
N1994  N     0.64272   0.78924   0.79654   0.00000  Uiso   1.00
N1995  N     0.85568   0.71225   0.86423   0.00000  Uiso   1.00
N1996  N     0.56655   0.63338   0.90817   0.00000  Uiso   1.00
O1997  O     0.54581   0.70419   0.87154   0.00000  Uiso   1.00
O1998  O     0.70420   0.54581   0.79513   0.00000  Uiso   1.00
O1999  O     0.70420   0.54581   0.87154   0.00000  Uiso   1.00
O2000  O     0.79581   0.95419   0.79513   0.00000  Uiso   1.00
O2001  O     0.70420   0.95419   0.79513   0.00000  Uiso   1.00
O2002  O     0.79581   0.54581   0.87154   0.00000  Uiso   1.00
O2003  O     0.79581   0.54581   0.79513   0.00000  Uiso   1.00
O2004  O     0.70420   0.95419   0.87154   0.00000  Uiso   1.00
O2005  O     0.95420   0.79581   0.79513   0.00000  Uiso   1.00
O2006  O     0.95420   0.79581   0.87154   0.00000  Uiso   1.00
O2007  O     0.54581   0.70419   0.79513   0.00000  Uiso   1.00
O2008  O     0.95420   0.70419   0.79513   0.00000  Uiso   1.00
O2009  O     0.54581   0.79581   0.87154   0.00000  Uiso   1.00
O2010  O     0.54581   0.79581   0.79513   0.00000  Uiso   1.00
O2011  O     0.95420   0.70419   0.87154   0.00000  Uiso   1.00
O2012  O     0.79581   0.95419   0.87154   0.00000  Uiso   1.00
Zn2013 Zn    0.50000   0.75000   0.88437   0.00000  Uiso   1.00
Zn2014 Zn    0.50000   0.75000   0.78229   0.00000  Uiso   1.00
Zn2015 Zn    0.75000   0.50000   0.88437   0.00000  Uiso   1.00
Zn2016 Zn    0.75000   0.50000   0.78229   0.00000  Uiso   1.00
loop_
_geom_bond_atom_site_label_1
_geom_bond_atom_site_label_2
_geom_bond_distance
_geom_bond_site_symmetry_2
_ccdc_geom_bond_type
C1     O149    1.287   .     A
C1     O159    1.279   .     A
C1     C30     1.436   .     S
C2     H68     1.082   .     S
C2     C675    1.414   .     S
C2     N129    1.365   .     S
C3     H79     1.082   .     S
C3     C1346   1.414   1_554 S
C3     N140    1.366   .     S
C4     H90     1.082   .     S
C4     N297    1.366   .     A
C4     C728    1.414   .     S
C5     H101    1.081   .     S
C5     C1352   1.413   1_554 S
C5     N479    1.365   .     S
C6     N142    1.365   .     A
C6     H112    1.082   .     S
C6     C679    1.414   .     S
C7     N143    1.366   .     A
C7     H123    1.082   .     S
C7     C1350   1.414   1_554 S
C8     H127    1.080   .     S
C8     C677    1.413   .     S
C8     N478    1.365   .     S
C9     N144    1.427   .     S
C9     C20     1.390   .     A
C9     C28     1.403   .     A
C10    C27     1.403   .     A
C10    C21     1.388   .     A
C10    N145    1.428   .     S
C11    C18     1.390   .     A
C11    C27     1.401   .     A
C11    N146    1.428   .     S
C12    C29     1.434   .     S
C12    O157    1.286   .     A
C12    O158    1.278   .     A
C13    C28     1.402   .     A
C13    N147    1.428   .     S
C13    C19     1.391   .     A
C14    N148    1.432   .     S
C14    C30     1.412   .     A
C14    C25     1.386   .     A
C15    C29     1.409   .     A
C15    C26     1.388   .     A
C15    N130    1.431   .     S
C16    N131    1.428   .     S
C16    C29     1.412   .     A
C16    C22     1.387   .     A
C17    N132    1.429   .     S
C17    C30     1.414   .     A
C17    C24     1.387   .     A
C18    N133    1.427   .     S
C18    C32     1.405   .     A
C19    C31     1.404   .     A
C19    N134    1.428   .     S
C20    N135    1.428   .     S
C20    C31     1.400   .     A
C21    N136    1.426   .     S
C21    C32     1.401   .     A
C22    C35     1.409   .     A
C22    N137    1.431   .     S
C23    O163    1.281   .     A
C23    O160    1.271   .     A
C23    C28     1.412   .     S
C24    N138    1.432   .     S
C24    C33     1.410   .     A
C25    N139    1.430   .     S
C25    C33     1.413   .     A
C26    N141    1.428   .     S
C26    C35     1.412   .     A
C27    C34     1.410   .     S
C31    C55     1.410   .     S
C32    C54     1.414   .     S
C33    C53     1.436   .     S
C34    O161    1.270   .     A
C34    O162    1.281   .     A
C35    C45     1.433   .     S
C36    H59     1.108   .     S
C36    H60     1.109   .     S
C36    H58     1.110   .     S
C36    N144    1.449   .     S
C37    H62     1.109   .     S
C37    H63     1.110   .     S
C37    N145    1.449   .     S
C37    H64     1.109   .     S
C38    N146    1.447   .     S
C38    H66     1.111   .     S
C38    H69     1.111   .     S
C38    H67     1.108   .     S
C39    H72     1.111   .     S
C39    H73     1.108   .     S
C39    N147    1.448   .     S
C39    H71     1.111   .     S
C40    N148    1.449   .     S
C40    H76     1.109   .     S
C40    H75     1.110   .     S
C40    H77     1.110   .     S
C41    N130    1.446   .     S
C41    H82     1.107   .     S
C41    H80     1.111   .     S
C41    H249    1.110   .     S
C42    N131    1.450   .     S
C42    H86     1.110   .     S
C42    H84     1.110   .     S
C42    H85     1.109   .     S
C43    H89     1.110   .     S
C43    H88     1.110   .     S
C43    N132    1.449   .     S
C43    H91     1.107   .     S
C44    H93     1.110   .     S
C44    N133    1.449   .     S
C44    H95     1.108   .     S
C44    H94     1.109   .     S
C45    O164    1.286   .     A
C45    O152    1.278   .     A
C46    H99     1.109   .     S
C46    H98     1.110   .     S
C46    N134    1.448   .     S
C46    H97     1.110   .     S
C47    N135    1.448   .     S
C47    H103    1.111   .     S
C47    H104    1.111   .     S
C47    H438    1.108   1_545 S
C48    H107    1.111   .     S
C48    H106    1.112   .     S
C48    N136    1.448   .     S
C48    H444    1.110   .     S
C49    H113    1.110   .     S
C49    N137    1.446   .     S
C49    H111    1.107   .     S
C49    H110    1.111   .     S
C50    H117    1.108   .     S
C50    H115    1.111   .     S
C50    N138    1.446   .     S
C50    H116    1.110   .     S
C51    H119    1.106   .     S
C51    H120    1.110   .     S
C51    H121    1.102   .     S
C51    N139    1.447   .     S
C52    H126    1.109   .     S
C52    N141    1.450   .     S
C52    H125    1.110   .     S
C52    H124    1.109   .     S
C53    O150    1.288   .     A
C53    O151    1.279   .     A
C54    O153    1.270   .     A
C54    O156    1.284   .     A
C55    O154    1.270   .     A
C55    O155    1.282   .     A
C56    N308    1.365   .     A
C56    H57     1.082   .     S
C56    C1348   1.414   1_554 S
H61    N145    1.031   .     S
H65    N146    1.029   .     S
H70    N147    1.029   .     S
H74    N148    1.029   .     S
H78    N130    1.029   .     S
H81    C209    1.110   1_455 S
H83    N131    1.031   .     S
H87    N132    1.031   .     S
H92    N133    1.031   .     S
H96    N134    1.031   .     S
H100   N135    1.029   .     S
H102   C383    1.108   .     S
H105   N136    1.029   .     S
H108   C384    1.110   1_545 S
H109   N137    1.029   .     S
H114   N138    1.029   .     S
H118   N139    1.032   .     S
H122   N141    1.031   .     S
H128   N144    1.031   .     S
N129   C172    1.366   1_455 A
N129   Zn165   2.003   .     S
N140   C224    1.365   1_455 A
N140   Zn166   2.003   .     S
N142   Zn167   2.003   .     S
N142   C344    1.365   1_545 S
N143   Zn168   2.003   .     S
N143   C341    1.365   1_545 S
O149   Zn165   2.002   .     S
O150   Zn168   2.002   .     S
O151   Zn167   2.020   .     S
O152   Zn504   2.020   .     S
O153   Zn504   1.994   .     S
O154   Zn167   1.994   .     S
O155   Zn168   1.980   .     S
O156   Zn503   1.980   .     S
O157   Zn334   2.002   .     S
O158   Zn333   2.020   .     S
O159   Zn166   2.020   .     S
O160   Zn334   1.994   .     S
O161   Zn165   1.994   .     S
O162   Zn166   1.980   .     S
O163   Zn333   1.980   .     S
O164   Zn503   2.002   .     S
Zn165  O331    1.980   1_455 S
Zn165  O326    2.020   1_455 S
Zn166  O328    1.994   1_455 S
Zn166  O325    2.002   1_455 S
Zn167  O492    1.980   1_545 S
Zn167  O500    2.002   1_545 S
Zn168  O489    1.994   1_545 S
Zn168  O488    2.020   1_545 S
C169   O317    1.287   .     A
C169   O327    1.279   .     A
C169   C198    1.436   .     S
C170   H236    1.082   .     S
C170   C843    1.414   .     S
C170   N297    1.365   .     S
C171   H247    1.082   .     S
C171   C1514   1.414   1_554 S
C171   N308    1.366   .     S
C172   H258    1.082   .     S
C172   N129    1.366   1_655 A
C172   C896    1.414   .     S
C173   H269    1.081   .     S
C173   C1520   1.413   1_554 S
C173   N647    1.365   .     S
C174   N310    1.365   .     A
C174   H280    1.082   .     S
C174   C847    1.414   .     S
C175   N311    1.366   .     A
C175   H291    1.082   .     S
C175   C1518   1.414   1_554 S
C176   H295    1.080   .     S
C176   C845    1.413   .     S
C176   N646    1.365   .     S
C177   N312    1.427   .     S
C177   C188    1.390   .     A
C177   C196    1.403   .     A
C178   C195    1.403   .     A
C178   C189    1.388   .     A
C178   N313    1.428   .     S
C179   C186    1.390   .     A
C179   C195    1.401   .     A
C179   N314    1.428   .     S
C180   C197    1.434   .     S
C180   O325    1.286   .     A
C180   O326    1.278   .     A
C181   C196    1.402   .     A
C181   N315    1.428   .     S
C181   C187    1.391   .     A
C182   N316    1.432   .     S
C182   C198    1.412   .     A
C182   C193    1.386   .     A
C183   C197    1.409   .     A
C183   C194    1.388   .     A
C183   N298    1.431   .     S
C184   N299    1.428   .     S
C184   C197    1.412   .     A
C184   C190    1.387   .     A
C185   N300    1.429   .     S
C185   C198    1.414   .     A
C185   C192    1.387   .     A
C186   N301    1.427   .     S
C186   C200    1.405   .     A
C187   C199    1.404   .     A
C187   N302    1.428   .     S
C188   N303    1.428   .     S
C188   C199    1.400   .     A
C189   N304    1.426   .     S
C189   C200    1.401   .     A
C190   C203    1.409   .     A
C190   N305    1.431   .     S
C191   O331    1.281   .     A
C191   O328    1.271   .     A
C191   C196    1.412   .     S
C192   N306    1.432   .     S
C192   C201    1.410   .     A
C193   N307    1.430   .     S
C193   C201    1.413   .     A
C194   N309    1.428   .     S
C194   C203    1.412   .     A
C195   C202    1.410   .     S
C199   C223    1.410   .     S
C200   C222    1.414   .     S
C201   C221    1.436   .     S
C202   O329    1.270   .     A
C202   O330    1.281   .     A
C203   C213    1.433   .     S
C204   H227    1.108   .     S
C204   H228    1.109   .     S
C204   H226    1.110   .     S
C204   N312    1.449   .     S
C205   H230    1.109   .     S
C205   H231    1.110   .     S
C205   N313    1.449   .     S
C205   H232    1.109   .     S
C206   N314    1.447   .     S
C206   H234    1.111   .     S
C206   H237    1.111   .     S
C206   H235    1.108   .     S
C207   H240    1.111   .     S
C207   H241    1.108   .     S
C207   N315    1.448   .     S
C207   H239    1.111   .     S
C208   N316    1.449   .     S
C208   H244    1.109   .     S
C208   H243    1.110   .     S
C208   H245    1.110   .     S
C209   N298    1.446   .     S
C209   H250    1.107   .     S
C209   H248    1.111   .     S
C209   H81     1.110   1_655 S
C210   N299    1.450   .     S
C210   H254    1.110   .     S
C210   H252    1.110   .     S
C210   H253    1.109   .     S
C211   H257    1.110   .     S
C211   H256    1.110   .     S
C211   N300    1.449   .     S
C211   H259    1.107   .     S
C212   H261    1.110   .     S
C212   N301    1.449   .     S
C212   H263    1.108   .     S
C212   H262    1.109   .     S
C213   O332    1.286   .     A
C213   O320    1.278   .     A
C214   H267    1.109   .     S
C214   H266    1.110   .     S
C214   N302    1.448   .     S
C214   H265    1.110   .     S
C215   N303    1.448   .     S
C215   H271    1.111   .     S
C215   H272    1.111   .     S
C215   H606    1.108   1_545 S
C216   H275    1.111   .     S
C216   H274    1.112   .     S
C216   N304    1.448   .     S
C216   H612    1.110   .     S
C217   H281    1.110   .     S
C217   N305    1.446   .     S
C217   H279    1.107   .     S
C217   H278    1.111   .     S
C218   H285    1.108   .     S
C218   H283    1.111   .     S
C218   N306    1.446   .     S
C218   H284    1.110   .     S
C219   H287    1.106   .     S
C219   H288    1.110   .     S
C219   H289    1.102   .     S
C219   N307    1.447   .     S
C220   H294    1.109   .     S
C220   N309    1.450   .     S
C220   H293    1.110   .     S
C220   H292    1.109   .     S
C221   O318    1.288   .     A
C221   O319    1.279   .     A
C222   O321    1.270   .     A
C222   O324    1.284   .     A
C223   O322    1.270   .     A
C223   O323    1.282   .     A
C224   N140    1.365   1_655 A
C224   H225    1.082   .     S
C224   C1516   1.414   1_554 S
H229   N313    1.031   .     S
H233   N314    1.029   .     S
H238   N315    1.029   .     S
H242   N316    1.029   .     S
H246   N298    1.029   .     S
H251   N299    1.031   .     S
H255   N300    1.031   .     S
H260   N301    1.031   .     S
H264   N302    1.031   .     S
H268   N303    1.029   .     S
H270   C551    1.108   .     S
H273   N304    1.029   .     S
H276   C552    1.110   1_545 S
H277   N305    1.029   .     S
H282   N306    1.029   .     S
H286   N307    1.032   .     S
H290   N309    1.031   .     S
H296   N312    1.031   .     S
N297   Zn333   2.003   .     S
N308   Zn334   2.003   .     S
N310   Zn335   2.003   .     S
N310   C512    1.365   1_545 S
N311   Zn336   2.003   .     S
N311   C509    1.365   1_545 S
O317   Zn333   2.002   .     S
O318   Zn336   2.002   .     S
O319   Zn335   2.020   .     S
O320   Zn672   2.020   .     S
O321   Zn672   1.994   .     S
O322   Zn335   1.994   .     S
O323   Zn336   1.980   .     S
O324   Zn671   1.980   .     S
O325   Zn166   2.002   1_655 S
O326   Zn165   2.020   1_655 S
O327   Zn334   2.020   .     S
O328   Zn166   1.994   1_655 S
O329   Zn333   1.994   .     S
O330   Zn334   1.980   .     S
O331   Zn165   1.980   1_655 S
O332   Zn671   2.002   .     S
Zn335  O660    1.980   1_545 S
Zn335  O668    2.002   1_545 S
Zn336  O657    1.994   1_545 S
Zn336  O656    2.020   1_545 S
C337   O485    1.287   .     A
C337   O495    1.279   .     A
C337   C366    1.436   .     S
C338   H404    1.082   .     S
C338   C1011   1.414   .     S
C338   N465    1.365   .     S
C339   H415    1.082   .     S
C339   C1682   1.414   1_554 S
C339   N476    1.366   .     S
C340   H426    1.082   .     S
C340   N633    1.366   .     A
C340   C1064   1.414   .     S
C341   H437    1.081   .     S
C341   C1688   1.413   1_554 S
C341   N143    1.365   1_565 S
C342   N478    1.365   .     A
C342   H448    1.082   .     S
C342   C1015   1.414   .     S
C343   N479    1.366   .     A
C343   H459    1.082   .     S
C343   C1686   1.414   1_554 S
C344   H463    1.080   .     S
C344   C1013   1.413   .     S
C344   N142    1.365   1_565 S
C345   N480    1.427   .     S
C345   C356    1.390   .     A
C345   C364    1.403   .     A
C346   C363    1.403   .     A
C346   C357    1.388   .     A
C346   N481    1.428   .     S
C347   C354    1.390   .     A
C347   C363    1.401   .     A
C347   N482    1.428   .     S
C348   C365    1.434   .     S
C348   O493    1.286   .     A
C348   O494    1.278   .     A
C349   C364    1.402   .     A
C349   N483    1.428   .     S
C349   C355    1.391   .     A
C350   N484    1.432   .     S
C350   C366    1.412   .     A
C350   C361    1.386   .     A
C351   C365    1.409   .     A
C351   C362    1.388   .     A
C351   N466    1.431   .     S
C352   N467    1.428   .     S
C352   C365    1.412   .     A
C352   C358    1.387   .     A
C353   N468    1.429   .     S
C353   C366    1.414   .     A
C353   C360    1.387   .     A
C354   N469    1.427   .     S
C354   C368    1.405   .     A
C355   C367    1.404   .     A
C355   N470    1.428   .     S
C356   N471    1.428   .     S
C356   C367    1.400   .     A
C357   N472    1.426   .     S
C357   C368    1.401   .     A
C358   C371    1.409   .     A
C358   N473    1.431   .     S
C359   O499    1.281   .     A
C359   O496    1.271   .     A
C359   C364    1.412   .     S
C360   N474    1.432   .     S
C360   C369    1.410   .     A
C361   N475    1.430   .     S
C361   C369    1.413   .     A
C362   N477    1.428   .     S
C362   C371    1.412   .     A
C363   C370    1.410   .     S
C367   C391    1.410   .     S
C368   C390    1.414   .     S
C369   C389    1.436   .     S
C370   O497    1.270   .     A
C370   O498    1.281   .     A
C371   C381    1.433   .     S
C372   H395    1.108   .     S
C372   H396    1.109   .     S
C372   H394    1.110   .     S
C372   N480    1.449   .     S
C373   H398    1.109   .     S
C373   H399    1.110   .     S
C373   N481    1.449   .     S
C373   H400    1.109   .     S
C374   N482    1.447   .     S
C374   H402    1.111   .     S
C374   H405    1.111   .     S
C374   H403    1.108   .     S
C375   H408    1.111   .     S
C375   H409    1.108   .     S
C375   N483    1.448   .     S
C375   H407    1.111   .     S
C376   N484    1.449   .     S
C376   H412    1.109   .     S
C376   H411    1.110   .     S
C376   H413    1.110   .     S
C377   N466    1.446   .     S
C377   H418    1.107   .     S
C377   H416    1.111   .     S
C377   H585    1.110   .     S
C378   N467    1.450   .     S
C378   H422    1.110   .     S
C378   H420    1.110   .     S
C378   H421    1.109   .     S
C379   H425    1.110   .     S
C379   H424    1.110   .     S
C379   N468    1.449   .     S
C379   H427    1.107   .     S
C380   H429    1.110   .     S
C380   N469    1.449   .     S
C380   H431    1.108   .     S
C380   H430    1.109   .     S
C381   O500    1.286   .     A
C381   O488    1.278   .     A
C382   H435    1.109   .     S
C382   H434    1.110   .     S
C382   N470    1.448   .     S
C382   H433    1.110   .     S
C383   N471    1.448   .     S
C383   H439    1.111   .     S
C383   H440    1.111   .     S
C384   H443    1.111   .     S
C384   H442    1.112   .     S
C384   N472    1.448   .     S
C384   H108    1.110   1_565 S
C385   H449    1.110   .     S
C385   N473    1.446   .     S
C385   H447    1.107   .     S
C385   H446    1.111   .     S
C386   H453    1.108   .     S
C386   H451    1.111   .     S
C386   N474    1.446   .     S
C386   H452    1.110   .     S
C387   H455    1.106   .     S
C387   H456    1.110   .     S
C387   H457    1.102   .     S
C387   N475    1.447   .     S
C388   H462    1.109   .     S
C388   N477    1.450   .     S
C388   H461    1.110   .     S
C388   H460    1.109   .     S
C389   O486    1.288   .     A
C389   O487    1.279   .     A
C390   O489    1.270   .     A
C390   O492    1.284   .     A
C391   O490    1.270   .     A
C391   O491    1.282   .     A
C392   N644    1.365   .     A
C392   H393    1.082   .     S
C392   C1684   1.414   1_554 S
H397   N481    1.031   .     S
H401   N482    1.029   .     S
H406   N483    1.029   .     S
H410   N484    1.029   .     S
H414   N466    1.029   .     S
H417   C545    1.110   1_455 S
H419   N467    1.031   .     S
H423   N468    1.031   .     S
H428   N469    1.031   .     S
H432   N470    1.031   .     S
H436   N471    1.029   .     S
H438   C47     1.108   1_565 S
H441   N472    1.029   .     S
H445   N473    1.029   .     S
H450   N474    1.029   .     S
H454   N475    1.032   .     S
H458   N477    1.031   .     S
H464   N480    1.031   .     S
N465   C508    1.366   1_455 A
N465   Zn501   2.003   .     S
N476   C560    1.365   1_455 A
N476   Zn502   2.003   .     S
N478   Zn503   2.003   .     S
N479   Zn504   2.003   .     S
O485   Zn501   2.002   .     S
O486   Zn504   2.002   .     S
O487   Zn503   2.020   .     S
O488   Zn168   2.020   1_565 S
O489   Zn168   1.994   1_565 S
O490   Zn503   1.994   .     S
O491   Zn504   1.980   .     S
O492   Zn167   1.980   1_565 S
O493   Zn670   2.002   .     S
O494   Zn669   2.020   .     S
O495   Zn502   2.020   .     S
O496   Zn670   1.994   .     S
O497   Zn501   1.994   .     S
O498   Zn502   1.980   .     S
O499   Zn669   1.980   .     S
O500   Zn167   2.002   1_565 S
Zn501  O667    1.980   1_455 S
Zn501  O662    2.020   1_455 S
Zn502  O664    1.994   1_455 S
Zn502  O661    2.002   1_455 S
C505   O653    1.287   .     A
C505   O663    1.279   .     A
C505   C534    1.436   .     S
C506   H572    1.082   .     S
C506   C1179   1.414   .     S
C506   N633    1.365   .     S
C507   H583    1.082   .     S
C507   C1850   1.414   1_554 S
C507   N644    1.366   .     S
C508   H594    1.082   .     S
C508   N465    1.366   1_655 A
C508   C1232   1.414   .     S
C509   H605    1.081   .     S
C509   C1856   1.413   1_554 S
C509   N311    1.365   1_565 S
C510   N646    1.365   .     A
C510   H616    1.082   .     S
C510   C1183   1.414   .     S
C511   N647    1.366   .     A
C511   H627    1.082   .     S
C511   C1854   1.414   1_554 S
C512   H631    1.080   .     S
C512   C1181   1.413   .     S
C512   N310    1.365   1_565 S
C513   N648    1.427   .     S
C513   C524    1.390   .     A
C513   C532    1.403   .     A
C514   C531    1.403   .     A
C514   C525    1.388   .     A
C514   N649    1.428   .     S
C515   C522    1.390   .     A
C515   C531    1.401   .     A
C515   N650    1.428   .     S
C516   C533    1.434   .     S
C516   O661    1.286   .     A
C516   O662    1.278   .     A
C517   C532    1.402   .     A
C517   N651    1.428   .     S
C517   C523    1.391   .     A
C518   N652    1.432   .     S
C518   C534    1.412   .     A
C518   C529    1.386   .     A
C519   C533    1.409   .     A
C519   C530    1.388   .     A
C519   N634    1.431   .     S
C520   N635    1.428   .     S
C520   C533    1.412   .     A
C520   C526    1.387   .     A
C521   N636    1.429   .     S
C521   C534    1.414   .     A
C521   C528    1.387   .     A
C522   N637    1.427   .     S
C522   C536    1.405   .     A
C523   C535    1.404   .     A
C523   N638    1.428   .     S
C524   N639    1.428   .     S
C524   C535    1.400   .     A
C525   N640    1.426   .     S
C525   C536    1.401   .     A
C526   C539    1.409   .     A
C526   N641    1.431   .     S
C527   O667    1.281   .     A
C527   O664    1.271   .     A
C527   C532    1.412   .     S
C528   N642    1.432   .     S
C528   C537    1.410   .     A
C529   N643    1.430   .     S
C529   C537    1.413   .     A
C530   N645    1.428   .     S
C530   C539    1.412   .     A
C531   C538    1.410   .     S
C535   C559    1.410   .     S
C536   C558    1.414   .     S
C537   C557    1.436   .     S
C538   O665    1.270   .     A
C538   O666    1.281   .     A
C539   C549    1.433   .     S
C540   H563    1.108   .     S
C540   H564    1.109   .     S
C540   H562    1.110   .     S
C540   N648    1.449   .     S
C541   H566    1.109   .     S
C541   H567    1.110   .     S
C541   N649    1.449   .     S
C541   H568    1.109   .     S
C542   N650    1.447   .     S
C542   H570    1.111   .     S
C542   H573    1.111   .     S
C542   H571    1.108   .     S
C543   H576    1.111   .     S
C543   H577    1.108   .     S
C543   N651    1.448   .     S
C543   H575    1.111   .     S
C544   N652    1.449   .     S
C544   H580    1.109   .     S
C544   H579    1.110   .     S
C544   H581    1.110   .     S
C545   N634    1.446   .     S
C545   H586    1.107   .     S
C545   H584    1.111   .     S
C545   H417    1.110   1_655 S
C546   N635    1.450   .     S
C546   H590    1.110   .     S
C546   H588    1.110   .     S
C546   H589    1.109   .     S
C547   H593    1.110   .     S
C547   H592    1.110   .     S
C547   N636    1.449   .     S
C547   H595    1.107   .     S
C548   H597    1.110   .     S
C548   N637    1.449   .     S
C548   H599    1.108   .     S
C548   H598    1.109   .     S
C549   O668    1.286   .     A
C549   O656    1.278   .     A
C550   H603    1.109   .     S
C550   H602    1.110   .     S
C550   N638    1.448   .     S
C550   H601    1.110   .     S
C551   N639    1.448   .     S
C551   H607    1.111   .     S
C551   H608    1.111   .     S
C552   H611    1.111   .     S
C552   H610    1.112   .     S
C552   N640    1.448   .     S
C552   H276    1.110   1_565 S
C553   H617    1.110   .     S
C553   N641    1.446   .     S
C553   H615    1.107   .     S
C553   H614    1.111   .     S
C554   H621    1.108   .     S
C554   H619    1.111   .     S
C554   N642    1.446   .     S
C554   H620    1.110   .     S
C555   H623    1.106   .     S
C555   H624    1.110   .     S
C555   H625    1.102   .     S
C555   N643    1.447   .     S
C556   H630    1.109   .     S
C556   N645    1.450   .     S
C556   H629    1.110   .     S
C556   H628    1.109   .     S
C557   O654    1.288   .     A
C557   O655    1.279   .     A
C558   O657    1.270   .     A
C558   O660    1.284   .     A
C559   O658    1.270   .     A
C559   O659    1.282   .     A
C560   N476    1.365   1_655 A
C560   H561    1.082   .     S
C560   C1852   1.414   1_554 S
H565   N649    1.031   .     S
H569   N650    1.029   .     S
H574   N651    1.029   .     S
H578   N652    1.029   .     S
H582   N634    1.029   .     S
H587   N635    1.031   .     S
H591   N636    1.031   .     S
H596   N637    1.031   .     S
H600   N638    1.031   .     S
H604   N639    1.029   .     S
H606   C215    1.108   1_565 S
H609   N640    1.029   .     S
H613   N641    1.029   .     S
H618   N642    1.029   .     S
H622   N643    1.032   .     S
H626   N645    1.031   .     S
H632   N648    1.031   .     S
N633   Zn669   2.003   .     S
N644   Zn670   2.003   .     S
N646   Zn671   2.003   .     S
N647   Zn672   2.003   .     S
O653   Zn669   2.002   .     S
O654   Zn672   2.002   .     S
O655   Zn671   2.020   .     S
O656   Zn336   2.020   1_565 S
O657   Zn336   1.994   1_565 S
O658   Zn671   1.994   .     S
O659   Zn672   1.980   .     S
O660   Zn335   1.980   1_565 S
O661   Zn502   2.002   1_655 S
O662   Zn501   2.020   1_655 S
O663   Zn670   2.020   .     S
O664   Zn502   1.994   1_655 S
O665   Zn669   1.994   .     S
O666   Zn670   1.980   .     S
O667   Zn501   1.980   1_655 S
O668   Zn335   2.002   1_565 S
C673   O821    1.287   .     A
C673   O831    1.279   .     A
C673   C702    1.436   .     S
C674   H740    1.082   .     S
C674   C1347   1.414   .     S
C674   N801    1.365   .     S
C675   H751    1.082   .     S
C675   N812    1.366   .     S
C676   H762    1.082   .     S
C676   N969    1.366   .     A
C676   C1400   1.414   .     S
C677   H773    1.081   .     S
C677   N1151   1.365   .     S
C678   N814    1.365   .     A
C678   H784    1.082   .     S
C678   C1351   1.414   .     S
C679   N815    1.366   .     A
C679   H795    1.082   .     S
C680   H799    1.080   .     S
C680   C1349   1.413   .     S
C680   N1150   1.365   .     S
C681   N816    1.427   .     S
C681   C692    1.390   .     A
C681   C700    1.403   .     A
C682   C699    1.403   .     A
C682   C693    1.388   .     A
C682   N817    1.428   .     S
C683   C690    1.390   .     A
C683   C699    1.401   .     A
C683   N818    1.428   .     S
C684   C701    1.434   .     S
C684   O829    1.286   .     A
C684   O830    1.278   .     A
C685   C700    1.402   .     A
C685   N819    1.428   .     S
C685   C691    1.391   .     A
C686   N820    1.432   .     S
C686   C702    1.412   .     A
C686   C697    1.386   .     A
C687   C701    1.409   .     A
C687   C698    1.388   .     A
C687   N802    1.431   .     S
C688   N803    1.428   .     S
C688   C701    1.412   .     A
C688   C694    1.387   .     A
C689   N804    1.429   .     S
C689   C702    1.414   .     A
C689   C696    1.387   .     A
C690   N805    1.427   .     S
C690   C704    1.405   .     A
C691   C703    1.404   .     A
C691   N806    1.428   .     S
C692   N807    1.428   .     S
C692   C703    1.400   .     A
C693   N808    1.426   .     S
C693   C704    1.401   .     A
C694   C707    1.409   .     A
C694   N809    1.431   .     S
C695   O835    1.281   .     A
C695   O832    1.271   .     A
C695   C700    1.412   .     S
C696   N810    1.432   .     S
C696   C705    1.410   .     A
C697   N811    1.430   .     S
C697   C705    1.413   .     A
C698   N813    1.428   .     S
C698   C707    1.412   .     A
C699   C706    1.410   .     S
C703   C727    1.410   .     S
C704   C726    1.414   .     S
C705   C725    1.436   .     S
C706   O833    1.270   .     A
C706   O834    1.281   .     A
C707   C717    1.433   .     S
C708   H731    1.108   .     S
C708   H732    1.109   .     S
C708   H730    1.110   .     S
C708   N816    1.449   .     S
C709   H734    1.109   .     S
C709   H735    1.110   .     S
C709   N817    1.449   .     S
C709   H736    1.109   .     S
C710   N818    1.447   .     S
C710   H738    1.111   .     S
C710   H741    1.111   .     S
C710   H739    1.108   .     S
C711   H744    1.111   .     S
C711   H745    1.108   .     S
C711   N819    1.448   .     S
C711   H743    1.111   .     S
C712   N820    1.449   .     S
C712   H748    1.109   .     S
C712   H747    1.110   .     S
C712   H749    1.110   .     S
C713   N802    1.446   .     S
C713   H754    1.107   .     S
C713   H752    1.111   .     S
C713   H921    1.110   .     S
C714   N803    1.450   .     S
C714   H758    1.110   .     S
C714   H756    1.110   .     S
C714   H757    1.109   .     S
C715   H761    1.110   .     S
C715   H760    1.110   .     S
C715   N804    1.449   .     S
C715   H763    1.107   .     S
C716   H765    1.110   .     S
C716   N805    1.449   .     S
C716   H767    1.108   .     S
C716   H766    1.109   .     S
C717   O836    1.286   .     A
C717   O824    1.278   .     A
C718   H771    1.109   .     S
C718   H770    1.110   .     S
C718   N806    1.448   .     S
C718   H769    1.110   .     S
C719   N807    1.448   .     S
C719   H775    1.111   .     S
C719   H776    1.111   .     S
C719   H1110   1.108   1_545 S
C720   H779    1.111   .     S
C720   H778    1.112   .     S
C720   N808    1.448   .     S
C720   H1116   1.110   .     S
C721   H785    1.110   .     S
C721   N809    1.446   .     S
C721   H783    1.107   .     S
C721   H782    1.111   .     S
C722   H789    1.108   .     S
C722   H787    1.111   .     S
C722   N810    1.446   .     S
C722   H788    1.110   .     S
C723   H791    1.106   .     S
C723   H792    1.110   .     S
C723   H793    1.102   .     S
C723   N811    1.447   .     S
C724   H798    1.109   .     S
C724   N813    1.450   .     S
C724   H797    1.110   .     S
C724   H796    1.109   .     S
C725   O822    1.288   .     A
C725   O823    1.279   .     A
C726   O825    1.270   .     A
C726   O828    1.284   .     A
C727   O826    1.270   .     A
C727   O827    1.282   .     A
C728   N980    1.365   .     A
C728   H729    1.082   .     S
H733   N817    1.031   .     S
H737   N818    1.029   .     S
H742   N819    1.029   .     S
H746   N820    1.029   .     S
H750   N802    1.029   .     S
H753   C881    1.110   1_455 S
H755   N803    1.031   .     S
H759   N804    1.031   .     S
H764   N805    1.031   .     S
H768   N806    1.031   .     S
H772   N807    1.029   .     S
H774   C1055   1.108   .     S
H777   N808    1.029   .     S
H780   C1056   1.110   1_545 S
H781   N809    1.029   .     S
H786   N810    1.029   .     S
H790   N811    1.032   .     S
H794   N813    1.031   .     S
H800   N816    1.031   .     S
N801   C844    1.366   1_455 A
N801   Zn837   2.003   .     S
N812   C896    1.365   1_455 A
N812   Zn838   2.003   .     S
N814   Zn839   2.003   .     S
N814   C1016   1.365   1_545 S
N815   Zn840   2.003   .     S
N815   C1013   1.365   1_545 S
O821   Zn837   2.002   .     S
O822   Zn840   2.002   .     S
O823   Zn839   2.020   .     S
O824   Zn1176  2.020   .     S
O825   Zn1176  1.994   .     S
O826   Zn839   1.994   .     S
O827   Zn840   1.980   .     S
O828   Zn1175  1.980   .     S
O829   Zn1006  2.002   .     S
O830   Zn1005  2.020   .     S
O831   Zn838   2.020   .     S
O832   Zn1006  1.994   .     S
O833   Zn837   1.994   .     S
O834   Zn838   1.980   .     S
O835   Zn1005  1.980   .     S
O836   Zn1175  2.002   .     S
Zn837  O1003   1.980   1_455 S
Zn837  O998    2.020   1_455 S
Zn838  O1000   1.994   1_455 S
Zn838  O997    2.002   1_455 S
Zn839  O1164   1.980   1_545 S
Zn839  O1172   2.002   1_545 S
Zn840  O1161   1.994   1_545 S
Zn840  O1160   2.020   1_545 S
C841   O989    1.287   .     A
C841   O999    1.279   .     A
C841   C870    1.436   .     S
C842   H908    1.082   .     S
C842   C1515   1.414   .     S
C842   N969    1.365   .     S
C843   H919    1.082   .     S
C843   N980    1.366   .     S
C844   H930    1.082   .     S
C844   N801    1.366   1_655 A
C844   C1568   1.414   .     S
C845   H941    1.081   .     S
C845   N1319   1.365   .     S
C846   N982    1.365   .     A
C846   H952    1.082   .     S
C846   C1519   1.414   .     S
C847   N983    1.366   .     A
C847   H963    1.082   .     S
C848   H967    1.080   .     S
C848   C1517   1.413   .     S
C848   N1318   1.365   .     S
C849   N984    1.427   .     S
C849   C860    1.390   .     A
C849   C868    1.403   .     A
C850   C867    1.403   .     A
C850   C861    1.388   .     A
C850   N985    1.428   .     S
C851   C858    1.390   .     A
C851   C867    1.401   .     A
C851   N986    1.428   .     S
C852   C869    1.434   .     S
C852   O997    1.286   .     A
C852   O998    1.278   .     A
C853   C868    1.402   .     A
C853   N987    1.428   .     S
C853   C859    1.391   .     A
C854   N988    1.432   .     S
C854   C870    1.412   .     A
C854   C865    1.386   .     A
C855   C869    1.409   .     A
C855   C866    1.388   .     A
C855   N970    1.431   .     S
C856   N971    1.428   .     S
C856   C869    1.412   .     A
C856   C862    1.387   .     A
C857   N972    1.429   .     S
C857   C870    1.414   .     A
C857   C864    1.387   .     A
C858   N973    1.427   .     S
C858   C872    1.405   .     A
C859   C871    1.404   .     A
C859   N974    1.428   .     S
C860   N975    1.428   .     S
C860   C871    1.400   .     A
C861   N976    1.426   .     S
C861   C872    1.401   .     A
C862   C875    1.409   .     A
C862   N977    1.431   .     S
C863   O1003   1.281   .     A
C863   O1000   1.271   .     A
C863   C868    1.412   .     S
C864   N978    1.432   .     S
C864   C873    1.410   .     A
C865   N979    1.430   .     S
C865   C873    1.413   .     A
C866   N981    1.428   .     S
C866   C875    1.412   .     A
C867   C874    1.410   .     S
C871   C895    1.410   .     S
C872   C894    1.414   .     S
C873   C893    1.436   .     S
C874   O1001   1.270   .     A
C874   O1002   1.281   .     A
C875   C885    1.433   .     S
C876   H899    1.108   .     S
C876   H900    1.109   .     S
C876   H898    1.110   .     S
C876   N984    1.449   .     S
C877   H902    1.109   .     S
C877   H903    1.110   .     S
C877   N985    1.449   .     S
C877   H904    1.109   .     S
C878   N986    1.447   .     S
C878   H906    1.111   .     S
C878   H909    1.111   .     S
C878   H907    1.108   .     S
C879   H912    1.111   .     S
C879   H913    1.108   .     S
C879   N987    1.448   .     S
C879   H911    1.111   .     S
C880   N988    1.449   .     S
C880   H916    1.109   .     S
C880   H915    1.110   .     S
C880   H917    1.110   .     S
C881   N970    1.446   .     S
C881   H922    1.107   .     S
C881   H920    1.111   .     S
C881   H753    1.110   1_655 S
C882   N971    1.450   .     S
C882   H926    1.110   .     S
C882   H924    1.110   .     S
C882   H925    1.109   .     S
C883   H929    1.110   .     S
C883   H928    1.110   .     S
C883   N972    1.449   .     S
C883   H931    1.107   .     S
C884   H933    1.110   .     S
C884   N973    1.449   .     S
C884   H935    1.108   .     S
C884   H934    1.109   .     S
C885   O1004   1.286   .     A
C885   O992    1.278   .     A
C886   H939    1.109   .     S
C886   H938    1.110   .     S
C886   N974    1.448   .     S
C886   H937    1.110   .     S
C887   N975    1.448   .     S
C887   H943    1.111   .     S
C887   H944    1.111   .     S
C887   H1278   1.108   1_545 S
C888   H947    1.111   .     S
C888   H946    1.112   .     S
C888   N976    1.448   .     S
C888   H1284   1.110   .     S
C889   H953    1.110   .     S
C889   N977    1.446   .     S
C889   H951    1.107   .     S
C889   H950    1.111   .     S
C890   H957    1.108   .     S
C890   H955    1.111   .     S
C890   N978    1.446   .     S
C890   H956    1.110   .     S
C891   H959    1.106   .     S
C891   H960    1.110   .     S
C891   H961    1.102   .     S
C891   N979    1.447   .     S
C892   H966    1.109   .     S
C892   N981    1.450   .     S
C892   H965    1.110   .     S
C892   H964    1.109   .     S
C893   O990    1.288   .     A
C893   O991    1.279   .     A
C894   O993    1.270   .     A
C894   O996    1.284   .     A
C895   O994    1.270   .     A
C895   O995    1.282   .     A
C896   N812    1.365   1_655 A
C896   H897    1.082   .     S
H901   N985    1.031   .     S
H905   N986    1.029   .     S
H910   N987    1.029   .     S
H914   N988    1.029   .     S
H918   N970    1.029   .     S
H923   N971    1.031   .     S
H927   N972    1.031   .     S
H932   N973    1.031   .     S
H936   N974    1.031   .     S
H940   N975    1.029   .     S
H942   C1223   1.108   .     S
H945   N976    1.029   .     S
H948   C1224   1.110   1_545 S
H949   N977    1.029   .     S
H954   N978    1.029   .     S
H958   N979    1.032   .     S
H962   N981    1.031   .     S
H968   N984    1.031   .     S
N969   Zn1005  2.003   .     S
N980   Zn1006  2.003   .     S
N982   Zn1007  2.003   .     S
N982   C1184   1.365   1_545 S
N983   Zn1008  2.003   .     S
N983   C1181   1.365   1_545 S
O989   Zn1005  2.002   .     S
O990   Zn1008  2.002   .     S
O991   Zn1007  2.020   .     S
O992   Zn1344  2.020   .     S
O993   Zn1344  1.994   .     S
O994   Zn1007  1.994   .     S
O995   Zn1008  1.980   .     S
O996   Zn1343  1.980   .     S
O997   Zn838   2.002   1_655 S
O998   Zn837   2.020   1_655 S
O999   Zn1006  2.020   .     S
O1000  Zn838   1.994   1_655 S
O1001  Zn1005  1.994   .     S
O1002  Zn1006  1.980   .     S
O1003  Zn837   1.980   1_655 S
O1004  Zn1343  2.002   .     S
Zn1007 O1332   1.980   1_545 S
Zn1007 O1340   2.002   1_545 S
Zn1008 O1329   1.994   1_545 S
Zn1008 O1328   2.020   1_545 S
C1009  O1157   1.287   .     A
C1009  O1167   1.279   .     A
C1009  C1038   1.436   .     S
C1010  H1076   1.082   .     S
C1010  C1683   1.414   .     S
C1010  N1137   1.365   .     S
C1011  H1087   1.082   .     S
C1011  N1148   1.366   .     S
C1012  H1098   1.082   .     S
C1012  N1305   1.366   .     A
C1012  C1736   1.414   .     S
C1013  H1109   1.081   .     S
C1013  N815    1.365   1_565 S
C1014  N1150   1.365   .     A
C1014  H1120   1.082   .     S
C1014  C1687   1.414   .     S
C1015  N1151   1.366   .     A
C1015  H1131   1.082   .     S
C1016  H1135   1.080   .     S
C1016  C1685   1.413   .     S
C1016  N814    1.365   1_565 S
C1017  N1152   1.427   .     S
C1017  C1028   1.390   .     A
C1017  C1036   1.403   .     A
C1018  C1035   1.403   .     A
C1018  C1029   1.388   .     A
C1018  N1153   1.428   .     S
C1019  C1026   1.390   .     A
C1019  C1035   1.401   .     A
C1019  N1154   1.428   .     S
C1020  C1037   1.434   .     S
C1020  O1165   1.286   .     A
C1020  O1166   1.278   .     A
C1021  C1036   1.402   .     A
C1021  N1155   1.428   .     S
C1021  C1027   1.391   .     A
C1022  N1156   1.432   .     S
C1022  C1038   1.412   .     A
C1022  C1033   1.386   .     A
C1023  C1037   1.409   .     A
C1023  C1034   1.388   .     A
C1023  N1138   1.431   .     S
C1024  N1139   1.428   .     S
C1024  C1037   1.412   .     A
C1024  C1030   1.387   .     A
C1025  N1140   1.429   .     S
C1025  C1038   1.414   .     A
C1025  C1032   1.387   .     A
C1026  N1141   1.427   .     S
C1026  C1040   1.405   .     A
C1027  C1039   1.404   .     A
C1027  N1142   1.428   .     S
C1028  N1143   1.428   .     S
C1028  C1039   1.400   .     A
C1029  N1144   1.426   .     S
C1029  C1040   1.401   .     A
C1030  C1043   1.409   .     A
C1030  N1145   1.431   .     S
C1031  O1171   1.281   .     A
C1031  O1168   1.271   .     A
C1031  C1036   1.412   .     S
C1032  N1146   1.432   .     S
C1032  C1041   1.410   .     A
C1033  N1147   1.430   .     S
C1033  C1041   1.413   .     A
C1034  N1149   1.428   .     S
C1034  C1043   1.412   .     A
C1035  C1042   1.410   .     S
C1039  C1063   1.410   .     S
C1040  C1062   1.414   .     S
C1041  C1061   1.436   .     S
C1042  O1169   1.270   .     A
C1042  O1170   1.281   .     A
C1043  C1053   1.433   .     S
C1044  H1067   1.108   .     S
C1044  H1068   1.109   .     S
C1044  H1066   1.110   .     S
C1044  N1152   1.449   .     S
C1045  H1070   1.109   .     S
C1045  H1071   1.110   .     S
C1045  N1153   1.449   .     S
C1045  H1072   1.109   .     S
C1046  N1154   1.447   .     S
C1046  H1074   1.111   .     S
C1046  H1077   1.111   .     S
C1046  H1075   1.108   .     S
C1047  H1080   1.111   .     S
C1047  H1081   1.108   .     S
C1047  N1155   1.448   .     S
C1047  H1079   1.111   .     S
C1048  N1156   1.449   .     S
C1048  H1084   1.109   .     S
C1048  H1083   1.110   .     S
C1048  H1085   1.110   .     S
C1049  N1138   1.446   .     S
C1049  H1090   1.107   .     S
C1049  H1088   1.111   .     S
C1049  H1257   1.110   .     S
C1050  N1139   1.450   .     S
C1050  H1094   1.110   .     S
C1050  H1092   1.110   .     S
C1050  H1093   1.109   .     S
C1051  H1097   1.110   .     S
C1051  H1096   1.110   .     S
C1051  N1140   1.449   .     S
C1051  H1099   1.107   .     S
C1052  H1101   1.110   .     S
C1052  N1141   1.449   .     S
C1052  H1103   1.108   .     S
C1052  H1102   1.109   .     S
C1053  O1172   1.286   .     A
C1053  O1160   1.278   .     A
C1054  H1107   1.109   .     S
C1054  H1106   1.110   .     S
C1054  N1142   1.448   .     S
C1054  H1105   1.110   .     S
C1055  N1143   1.448   .     S
C1055  H1111   1.111   .     S
C1055  H1112   1.111   .     S
C1056  H1115   1.111   .     S
C1056  H1114   1.112   .     S
C1056  N1144   1.448   .     S
C1056  H780    1.110   1_565 S
C1057  H1121   1.110   .     S
C1057  N1145   1.446   .     S
C1057  H1119   1.107   .     S
C1057  H1118   1.111   .     S
C1058  H1125   1.108   .     S
C1058  H1123   1.111   .     S
C1058  N1146   1.446   .     S
C1058  H1124   1.110   .     S
C1059  H1127   1.106   .     S
C1059  H1128   1.110   .     S
C1059  H1129   1.102   .     S
C1059  N1147   1.447   .     S
C1060  H1134   1.109   .     S
C1060  N1149   1.450   .     S
C1060  H1133   1.110   .     S
C1060  H1132   1.109   .     S
C1061  O1158   1.288   .     A
C1061  O1159   1.279   .     A
C1062  O1161   1.270   .     A
C1062  O1164   1.284   .     A
C1063  O1162   1.270   .     A
C1063  O1163   1.282   .     A
C1064  N1316   1.365   .     A
C1064  H1065   1.082   .     S
H1069  N1153   1.031   .     S
H1073  N1154   1.029   .     S
H1078  N1155   1.029   .     S
H1082  N1156   1.029   .     S
H1086  N1138   1.029   .     S
H1089  C1217   1.110   1_455 S
H1091  N1139   1.031   .     S
H1095  N1140   1.031   .     S
H1100  N1141   1.031   .     S
H1104  N1142   1.031   .     S
H1108  N1143   1.029   .     S
H1110  C719    1.108   1_565 S
H1113  N1144   1.029   .     S
H1117  N1145   1.029   .     S
H1122  N1146   1.029   .     S
H1126  N1147   1.032   .     S
H1130  N1149   1.031   .     S
H1136  N1152   1.031   .     S
N1137  C1180   1.366   1_455 A
N1137  Zn1173  2.003   .     S
N1148  C1232   1.365   1_455 A
N1148  Zn1174  2.003   .     S
N1150  Zn1175  2.003   .     S
N1151  Zn1176  2.003   .     S
O1157  Zn1173  2.002   .     S
O1158  Zn1176  2.002   .     S
O1159  Zn1175  2.020   .     S
O1160  Zn840   2.020   1_565 S
O1161  Zn840   1.994   1_565 S
O1162  Zn1175  1.994   .     S
O1163  Zn1176  1.980   .     S
O1164  Zn839   1.980   1_565 S
O1165  Zn1342  2.002   .     S
O1166  Zn1341  2.020   .     S
O1167  Zn1174  2.020   .     S
O1168  Zn1342  1.994   .     S
O1169  Zn1173  1.994   .     S
O1170  Zn1174  1.980   .     S
O1171  Zn1341  1.980   .     S
O1172  Zn839   2.002   1_565 S
Zn1173 O1339   1.980   1_455 S
Zn1173 O1334   2.020   1_455 S
Zn1174 O1336   1.994   1_455 S
Zn1174 O1333   2.002   1_455 S
C1177  O1325   1.287   .     A
C1177  O1335   1.279   .     A
C1177  C1206   1.436   .     S
C1178  H1244   1.082   .     S
C1178  C1851   1.414   .     S
C1178  N1305   1.365   .     S
C1179  H1255   1.082   .     S
C1179  N1316   1.366   .     S
C1180  H1266   1.082   .     S
C1180  N1137   1.366   1_655 A
C1180  C1904   1.414   .     S
C1181  H1277   1.081   .     S
C1181  N983    1.365   1_565 S
C1182  N1318   1.365   .     A
C1182  H1288   1.082   .     S
C1182  C1855   1.414   .     S
C1183  N1319   1.366   .     A
C1183  H1299   1.082   .     S
C1184  H1303   1.080   .     S
C1184  C1853   1.413   .     S
C1184  N982    1.365   1_565 S
C1185  N1320   1.427   .     S
C1185  C1196   1.390   .     A
C1185  C1204   1.403   .     A
C1186  C1203   1.403   .     A
C1186  C1197   1.388   .     A
C1186  N1321   1.428   .     S
C1187  C1194   1.390   .     A
C1187  C1203   1.401   .     A
C1187  N1322   1.428   .     S
C1188  C1205   1.434   .     S
C1188  O1333   1.286   .     A
C1188  O1334   1.278   .     A
C1189  C1204   1.402   .     A
C1189  N1323   1.428   .     S
C1189  C1195   1.391   .     A
C1190  N1324   1.432   .     S
C1190  C1206   1.412   .     A
C1190  C1201   1.386   .     A
C1191  C1205   1.409   .     A
C1191  C1202   1.388   .     A
C1191  N1306   1.431   .     S
C1192  N1307   1.428   .     S
C1192  C1205   1.412   .     A
C1192  C1198   1.387   .     A
C1193  N1308   1.429   .     S
C1193  C1206   1.414   .     A
C1193  C1200   1.387   .     A
C1194  N1309   1.427   .     S
C1194  C1208   1.405   .     A
C1195  C1207   1.404   .     A
C1195  N1310   1.428   .     S
C1196  N1311   1.428   .     S
C1196  C1207   1.400   .     A
C1197  N1312   1.426   .     S
C1197  C1208   1.401   .     A
C1198  C1211   1.409   .     A
C1198  N1313   1.431   .     S
C1199  O1339   1.281   .     A
C1199  O1336   1.271   .     A
C1199  C1204   1.412   .     S
C1200  N1314   1.432   .     S
C1200  C1209   1.410   .     A
C1201  N1315   1.430   .     S
C1201  C1209   1.413   .     A
C1202  N1317   1.428   .     S
C1202  C1211   1.412   .     A
C1203  C1210   1.410   .     S
C1207  C1231   1.410   .     S
C1208  C1230   1.414   .     S
C1209  C1229   1.436   .     S
C1210  O1337   1.270   .     A
C1210  O1338   1.281   .     A
C1211  C1221   1.433   .     S
C1212  H1235   1.108   .     S
C1212  H1236   1.109   .     S
C1212  H1234   1.110   .     S
C1212  N1320   1.449   .     S
C1213  H1238   1.109   .     S
C1213  H1239   1.110   .     S
C1213  N1321   1.449   .     S
C1213  H1240   1.109   .     S
C1214  N1322   1.447   .     S
C1214  H1242   1.111   .     S
C1214  H1245   1.111   .     S
C1214  H1243   1.108   .     S
C1215  H1248   1.111   .     S
C1215  H1249   1.108   .     S
C1215  N1323   1.448   .     S
C1215  H1247   1.111   .     S
C1216  N1324   1.449   .     S
C1216  H1252   1.109   .     S
C1216  H1251   1.110   .     S
C1216  H1253   1.110   .     S
C1217  N1306   1.446   .     S
C1217  H1258   1.107   .     S
C1217  H1256   1.111   .     S
C1217  H1089   1.110   1_655 S
C1218  N1307   1.450   .     S
C1218  H1262   1.110   .     S
C1218  H1260   1.110   .     S
C1218  H1261   1.109   .     S
C1219  H1265   1.110   .     S
C1219  H1264   1.110   .     S
C1219  N1308   1.449   .     S
C1219  H1267   1.107   .     S
C1220  H1269   1.110   .     S
C1220  N1309   1.449   .     S
C1220  H1271   1.108   .     S
C1220  H1270   1.109   .     S
C1221  O1340   1.286   .     A
C1221  O1328   1.278   .     A
C1222  H1275   1.109   .     S
C1222  H1274   1.110   .     S
C1222  N1310   1.448   .     S
C1222  H1273   1.110   .     S
C1223  N1311   1.448   .     S
C1223  H1279   1.111   .     S
C1223  H1280   1.111   .     S
C1224  H1283   1.111   .     S
C1224  H1282   1.112   .     S
C1224  N1312   1.448   .     S
C1224  H948    1.110   1_565 S
C1225  H1289   1.110   .     S
C1225  N1313   1.446   .     S
C1225  H1287   1.107   .     S
C1225  H1286   1.111   .     S
C1226  H1293   1.108   .     S
C1226  H1291   1.111   .     S
C1226  N1314   1.446   .     S
C1226  H1292   1.110   .     S
C1227  H1295   1.106   .     S
C1227  H1296   1.110   .     S
C1227  H1297   1.102   .     S
C1227  N1315   1.447   .     S
C1228  H1302   1.109   .     S
C1228  N1317   1.450   .     S
C1228  H1301   1.110   .     S
C1228  H1300   1.109   .     S
C1229  O1326   1.288   .     A
C1229  O1327   1.279   .     A
C1230  O1329   1.270   .     A
C1230  O1332   1.284   .     A
C1231  O1330   1.270   .     A
C1231  O1331   1.282   .     A
C1232  N1148   1.365   1_655 A
C1232  H1233   1.082   .     S
H1237  N1321   1.031   .     S
H1241  N1322   1.029   .     S
H1246  N1323   1.029   .     S
H1250  N1324   1.029   .     S
H1254  N1306   1.029   .     S
H1259  N1307   1.031   .     S
H1263  N1308   1.031   .     S
H1268  N1309   1.031   .     S
H1272  N1310   1.031   .     S
H1276  N1311   1.029   .     S
H1278  C887    1.108   1_565 S
H1281  N1312   1.029   .     S
H1285  N1313   1.029   .     S
H1290  N1314   1.029   .     S
H1294  N1315   1.032   .     S
H1298  N1317   1.031   .     S
H1304  N1320   1.031   .     S
N1305  Zn1341  2.003   .     S
N1316  Zn1342  2.003   .     S
N1318  Zn1343  2.003   .     S
N1319  Zn1344  2.003   .     S
O1325  Zn1341  2.002   .     S
O1326  Zn1344  2.002   .     S
O1327  Zn1343  2.020   .     S
O1328  Zn1008  2.020   1_565 S
O1329  Zn1008  1.994   1_565 S
O1330  Zn1343  1.994   .     S
O1331  Zn1344  1.980   .     S
O1332  Zn1007  1.980   1_565 S
O1333  Zn1174  2.002   1_655 S
O1334  Zn1173  2.020   1_655 S
O1335  Zn1342  2.020   .     S
O1336  Zn1174  1.994   1_655 S
O1337  Zn1341  1.994   .     S
O1338  Zn1342  1.980   .     S
O1339  Zn1173  1.980   1_655 S
O1340  Zn1007  2.002   1_565 S
C1345  O1493   1.287   .     A
C1345  O1503   1.279   .     A
C1345  C1374   1.436   .     S
C1346  H1412   1.082   .     S
C1346  C3      1.414   1_556 S
C1346  N1473   1.365   .     S
C1347  H1423   1.082   .     S
C1347  N1484   1.366   .     S
C1348  H1434   1.082   .     S
C1348  N1641   1.366   .     A
C1348  C56     1.414   1_556 S
C1349  H1445   1.081   .     S
C1349  N1823   1.365   .     S
C1350  N1486   1.365   .     A
C1350  H1456   1.082   .     S
C1350  C7      1.414   1_556 S
C1351  N1487   1.366   .     A
C1351  H1467   1.082   .     S
C1352  H1471   1.080   .     S
C1352  C5      1.413   1_556 S
C1352  N1822   1.365   .     S
C1353  N1488   1.427   .     S
C1353  C1364   1.390   .     A
C1353  C1372   1.403   .     A
C1354  C1371   1.403   .     A
C1354  C1365   1.388   .     A
C1354  N1489   1.428   .     S
C1355  C1362   1.390   .     A
C1355  C1371   1.401   .     A
C1355  N1490   1.428   .     S
C1356  C1373   1.434   .     S
C1356  O1501   1.286   .     A
C1356  O1502   1.278   .     A
C1357  C1372   1.402   .     A
C1357  N1491   1.428   .     S
C1357  C1363   1.391   .     A
C1358  N1492   1.432   .     S
C1358  C1374   1.412   .     A
C1358  C1369   1.386   .     A
C1359  C1373   1.409   .     A
C1359  C1370   1.388   .     A
C1359  N1474   1.431   .     S
C1360  N1475   1.428   .     S
C1360  C1373   1.412   .     A
C1360  C1366   1.387   .     A
C1361  N1476   1.429   .     S
C1361  C1374   1.414   .     A
C1361  C1368   1.387   .     A
C1362  N1477   1.427   .     S
C1362  C1376   1.405   .     A
C1363  C1375   1.404   .     A
C1363  N1478   1.428   .     S
C1364  N1479   1.428   .     S
C1364  C1375   1.400   .     A
C1365  N1480   1.426   .     S
C1365  C1376   1.401   .     A
C1366  C1379   1.409   .     A
C1366  N1481   1.431   .     S
C1367  O1507   1.281   .     A
C1367  O1504   1.271   .     A
C1367  C1372   1.412   .     S
C1368  N1482   1.432   .     S
C1368  C1377   1.410   .     A
C1369  N1483   1.430   .     S
C1369  C1377   1.413   .     A
C1370  N1485   1.428   .     S
C1370  C1379   1.412   .     A
C1371  C1378   1.410   .     S
C1375  C1399   1.410   .     S
C1376  C1398   1.414   .     S
C1377  C1397   1.436   .     S
C1378  O1505   1.270   .     A
C1378  O1506   1.281   .     A
C1379  C1389   1.433   .     S
C1380  H1403   1.108   .     S
C1380  H1404   1.109   .     S
C1380  H1402   1.110   .     S
C1380  N1488   1.449   .     S
C1381  H1406   1.109   .     S
C1381  H1407   1.110   .     S
C1381  N1489   1.449   .     S
C1381  H1408   1.109   .     S
C1382  N1490   1.447   .     S
C1382  H1410   1.111   .     S
C1382  H1413   1.111   .     S
C1382  H1411   1.108   .     S
C1383  H1416   1.111   .     S
C1383  H1417   1.108   .     S
C1383  N1491   1.448   .     S
C1383  H1415   1.111   .     S
C1384  N1492   1.449   .     S
C1384  H1420   1.109   .     S
C1384  H1419   1.110   .     S
C1384  H1421   1.110   .     S
C1385  N1474   1.446   .     S
C1385  H1426   1.107   .     S
C1385  H1424   1.111   .     S
C1385  H1593   1.110   .     S
C1386  N1475   1.450   .     S
C1386  H1430   1.110   .     S
C1386  H1428   1.110   .     S
C1386  H1429   1.109   .     S
C1387  H1433   1.110   .     S
C1387  H1432   1.110   .     S
C1387  N1476   1.449   .     S
C1387  H1435   1.107   .     S
C1388  H1437   1.110   .     S
C1388  N1477   1.449   .     S
C1388  H1439   1.108   .     S
C1388  H1438   1.109   .     S
C1389  O1508   1.286   .     A
C1389  O1496   1.278   .     A
C1390  H1443   1.109   .     S
C1390  H1442   1.110   .     S
C1390  N1478   1.448   .     S
C1390  H1441   1.110   .     S
C1391  N1479   1.448   .     S
C1391  H1447   1.111   .     S
C1391  H1448   1.111   .     S
C1391  H1782   1.108   1_545 S
C1392  H1451   1.111   .     S
C1392  H1450   1.112   .     S
C1392  N1480   1.448   .     S
C1392  H1788   1.110   .     S
C1393  H1457   1.110   .     S
C1393  N1481   1.446   .     S
C1393  H1455   1.107   .     S
C1393  H1454   1.111   .     S
C1394  H1461   1.108   .     S
C1394  H1459   1.111   .     S
C1394  N1482   1.446   .     S
C1394  H1460   1.110   .     S
C1395  H1463   1.106   .     S
C1395  H1464   1.110   .     S
C1395  H1465   1.102   .     S
C1395  N1483   1.447   .     S
C1396  H1470   1.109   .     S
C1396  N1485   1.450   .     S
C1396  H1469   1.110   .     S
C1396  H1468   1.109   .     S
C1397  O1494   1.288   .     A
C1397  O1495   1.279   .     A
C1398  O1497   1.270   .     A
C1398  O1500   1.284   .     A
C1399  O1498   1.270   .     A
C1399  O1499   1.282   .     A
C1400  N1652   1.365   .     A
C1400  H1401   1.082   .     S
H1405  N1489   1.031   .     S
H1409  N1490   1.029   .     S
H1414  N1491   1.029   .     S
H1418  N1492   1.029   .     S
H1422  N1474   1.029   .     S
H1425  C1553   1.110   1_455 S
H1427  N1475   1.031   .     S
H1431  N1476   1.031   .     S
H1436  N1477   1.031   .     S
H1440  N1478   1.031   .     S
H1444  N1479   1.029   .     S
H1446  C1727   1.108   .     S
H1449  N1480   1.029   .     S
H1452  C1728   1.110   1_545 S
H1453  N1481   1.029   .     S
H1458  N1482   1.029   .     S
H1462  N1483   1.032   .     S
H1466  N1485   1.031   .     S
H1472  N1488   1.031   .     S
N1473  C1516   1.366   1_455 A
N1473  Zn1509  2.003   .     S
N1484  C1568   1.365   1_455 A
N1484  Zn1510  2.003   .     S
N1486  Zn1511  2.003   .     S
N1486  C1688   1.365   1_545 S
N1487  Zn1512  2.003   .     S
N1487  C1685   1.365   1_545 S
O1493  Zn1509  2.002   .     S
O1494  Zn1512  2.002   .     S
O1495  Zn1511  2.020   .     S
O1496  Zn1848  2.020   .     S
O1497  Zn1848  1.994   .     S
O1498  Zn1511  1.994   .     S
O1499  Zn1512  1.980   .     S
O1500  Zn1847  1.980   .     S
O1501  Zn1678  2.002   .     S
O1502  Zn1677  2.020   .     S
O1503  Zn1510  2.020   .     S
O1504  Zn1678  1.994   .     S
O1505  Zn1509  1.994   .     S
O1506  Zn1510  1.980   .     S
O1507  Zn1677  1.980   .     S
O1508  Zn1847  2.002   .     S
Zn1509 O1675   1.980   1_455 S
Zn1509 O1670   2.020   1_455 S
Zn1510 O1672   1.994   1_455 S
Zn1510 O1669   2.002   1_455 S
Zn1511 O1836   1.980   1_545 S
Zn1511 O1844   2.002   1_545 S
Zn1512 O1833   1.994   1_545 S
Zn1512 O1832   2.020   1_545 S
C1513  O1661   1.287   .     A
C1513  O1671   1.279   .     A
C1513  C1542   1.436   .     S
C1514  H1580   1.082   .     S
C1514  C171    1.414   1_556 S
C1514  N1641   1.365   .     S
C1515  H1591   1.082   .     S
C1515  N1652   1.366   .     S
C1516  H1602   1.082   .     S
C1516  N1473   1.366   1_655 A
C1516  C224    1.414   1_556 S
C1517  H1613   1.081   .     S
C1517  N1991   1.365   .     S
C1518  N1654   1.365   .     A
C1518  H1624   1.082   .     S
C1518  C175    1.414   1_556 S
C1519  N1655   1.366   .     A
C1519  H1635   1.082   .     S
C1520  H1639   1.080   .     S
C1520  C173    1.413   1_556 S
C1520  N1990   1.365   .     S
C1521  N1656   1.427   .     S
C1521  C1532   1.390   .     A
C1521  C1540   1.403   .     A
C1522  C1539   1.403   .     A
C1522  C1533   1.388   .     A
C1522  N1657   1.428   .     S
C1523  C1530   1.390   .     A
C1523  C1539   1.401   .     A
C1523  N1658   1.428   .     S
C1524  C1541   1.434   .     S
C1524  O1669   1.286   .     A
C1524  O1670   1.278   .     A
C1525  C1540   1.402   .     A
C1525  N1659   1.428   .     S
C1525  C1531   1.391   .     A
C1526  N1660   1.432   .     S
C1526  C1542   1.412   .     A
C1526  C1537   1.386   .     A
C1527  C1541   1.409   .     A
C1527  C1538   1.388   .     A
C1527  N1642   1.431   .     S
C1528  N1643   1.428   .     S
C1528  C1541   1.412   .     A
C1528  C1534   1.387   .     A
C1529  N1644   1.429   .     S
C1529  C1542   1.414   .     A
C1529  C1536   1.387   .     A
C1530  N1645   1.427   .     S
C1530  C1544   1.405   .     A
C1531  C1543   1.404   .     A
C1531  N1646   1.428   .     S
C1532  N1647   1.428   .     S
C1532  C1543   1.400   .     A
C1533  N1648   1.426   .     S
C1533  C1544   1.401   .     A
C1534  C1547   1.409   .     A
C1534  N1649   1.431   .     S
C1535  O1675   1.281   .     A
C1535  O1672   1.271   .     A
C1535  C1540   1.412   .     S
C1536  N1650   1.432   .     S
C1536  C1545   1.410   .     A
C1537  N1651   1.430   .     S
C1537  C1545   1.413   .     A
C1538  N1653   1.428   .     S
C1538  C1547   1.412   .     A
C1539  C1546   1.410   .     S
C1543  C1567   1.410   .     S
C1544  C1566   1.414   .     S
C1545  C1565   1.436   .     S
C1546  O1673   1.270   .     A
C1546  O1674   1.281   .     A
C1547  C1557   1.433   .     S
C1548  H1571   1.108   .     S
C1548  H1572   1.109   .     S
C1548  H1570   1.110   .     S
C1548  N1656   1.449   .     S
C1549  H1574   1.109   .     S
C1549  H1575   1.110   .     S
C1549  N1657   1.449   .     S
C1549  H1576   1.109   .     S
C1550  N1658   1.447   .     S
C1550  H1578   1.111   .     S
C1550  H1581   1.111   .     S
C1550  H1579   1.108   .     S
C1551  H1584   1.111   .     S
C1551  H1585   1.108   .     S
C1551  N1659   1.448   .     S
C1551  H1583   1.111   .     S
C1552  N1660   1.449   .     S
C1552  H1588   1.109   .     S
C1552  H1587   1.110   .     S
C1552  H1589   1.110   .     S
C1553  N1642   1.446   .     S
C1553  H1594   1.107   .     S
C1553  H1592   1.111   .     S
C1553  H1425   1.110   1_655 S
C1554  N1643   1.450   .     S
C1554  H1598   1.110   .     S
C1554  H1596   1.110   .     S
C1554  H1597   1.109   .     S
C1555  H1601   1.110   .     S
C1555  H1600   1.110   .     S
C1555  N1644   1.449   .     S
C1555  H1603   1.107   .     S
C1556  H1605   1.110   .     S
C1556  N1645   1.449   .     S
C1556  H1607   1.108   .     S
C1556  H1606   1.109   .     S
C1557  O1676   1.286   .     A
C1557  O1664   1.278   .     A
C1558  H1611   1.109   .     S
C1558  H1610   1.110   .     S
C1558  N1646   1.448   .     S
C1558  H1609   1.110   .     S
C1559  N1647   1.448   .     S
C1559  H1615   1.111   .     S
C1559  H1616   1.111   .     S
C1559  H1950   1.108   1_545 S
C1560  H1619   1.111   .     S
C1560  H1618   1.112   .     S
C1560  N1648   1.448   .     S
C1560  H1956   1.110   .     S
C1561  H1625   1.110   .     S
C1561  N1649   1.446   .     S
C1561  H1623   1.107   .     S
C1561  H1622   1.111   .     S
C1562  H1629   1.108   .     S
C1562  H1627   1.111   .     S
C1562  N1650   1.446   .     S
C1562  H1628   1.110   .     S
C1563  H1631   1.106   .     S
C1563  H1632   1.110   .     S
C1563  H1633   1.102   .     S
C1563  N1651   1.447   .     S
C1564  H1638   1.109   .     S
C1564  N1653   1.450   .     S
C1564  H1637   1.110   .     S
C1564  H1636   1.109   .     S
C1565  O1662   1.288   .     A
C1565  O1663   1.279   .     A
C1566  O1665   1.270   .     A
C1566  O1668   1.284   .     A
C1567  O1666   1.270   .     A
C1567  O1667   1.282   .     A
C1568  N1484   1.365   1_655 A
C1568  H1569   1.082   .     S
H1573  N1657   1.031   .     S
H1577  N1658   1.029   .     S
H1582  N1659   1.029   .     S
H1586  N1660   1.029   .     S
H1590  N1642   1.029   .     S
H1595  N1643   1.031   .     S
H1599  N1644   1.031   .     S
H1604  N1645   1.031   .     S
H1608  N1646   1.031   .     S
H1612  N1647   1.029   .     S
H1614  C1895   1.108   .     S
H1617  N1648   1.029   .     S
H1620  C1896   1.110   1_545 S
H1621  N1649   1.029   .     S
H1626  N1650   1.029   .     S
H1630  N1651   1.032   .     S
H1634  N1653   1.031   .     S
H1640  N1656   1.031   .     S
N1641  Zn1677  2.003   .     S
N1652  Zn1678  2.003   .     S
N1654  Zn1679  2.003   .     S
N1654  C1856   1.365   1_545 S
N1655  Zn1680  2.003   .     S
N1655  C1853   1.365   1_545 S
O1661  Zn1677  2.002   .     S
O1662  Zn1680  2.002   .     S
O1663  Zn1679  2.020   .     S
O1664  Zn2016  2.020   .     S
O1665  Zn2016  1.994   .     S
O1666  Zn1679  1.994   .     S
O1667  Zn1680  1.980   .     S
O1668  Zn2015  1.980   .     S
O1669  Zn1510  2.002   1_655 S
O1670  Zn1509  2.020   1_655 S
O1671  Zn1678  2.020   .     S
O1672  Zn1510  1.994   1_655 S
O1673  Zn1677  1.994   .     S
O1674  Zn1678  1.980   .     S
O1675  Zn1509  1.980   1_655 S
O1676  Zn2015  2.002   .     S
Zn1679 O2004   1.980   1_545 S
Zn1679 O2012   2.002   1_545 S
Zn1680 O2001   1.994   1_545 S
Zn1680 O2000   2.020   1_545 S
C1681  O1829   1.287   .     A
C1681  O1839   1.279   .     A
C1681  C1710   1.436   .     S
C1682  H1748   1.082   .     S
C1682  C339    1.414   1_556 S
C1682  N1809   1.365   .     S
C1683  H1759   1.082   .     S
C1683  N1820   1.366   .     S
C1684  H1770   1.082   .     S
C1684  N1977   1.366   .     A
C1684  C392    1.414   1_556 S
C1685  H1781   1.081   .     S
C1685  N1487   1.365   1_565 S
C1686  N1822   1.365   .     A
C1686  H1792   1.082   .     S
C1686  C343    1.414   1_556 S
C1687  N1823   1.366   .     A
C1687  H1803   1.082   .     S
C1688  H1807   1.080   .     S
C1688  C341    1.413   1_556 S
C1688  N1486   1.365   1_565 S
C1689  N1824   1.427   .     S
C1689  C1700   1.390   .     A
C1689  C1708   1.403   .     A
C1690  C1707   1.403   .     A
C1690  C1701   1.388   .     A
C1690  N1825   1.428   .     S
C1691  C1698   1.390   .     A
C1691  C1707   1.401   .     A
C1691  N1826   1.428   .     S
C1692  C1709   1.434   .     S
C1692  O1837   1.286   .     A
C1692  O1838   1.278   .     A
C1693  C1708   1.402   .     A
C1693  N1827   1.428   .     S
C1693  C1699   1.391   .     A
C1694  N1828   1.432   .     S
C1694  C1710   1.412   .     A
C1694  C1705   1.386   .     A
C1695  C1709   1.409   .     A
C1695  C1706   1.388   .     A
C1695  N1810   1.431   .     S
C1696  N1811   1.428   .     S
C1696  C1709   1.412   .     A
C1696  C1702   1.387   .     A
C1697  N1812   1.429   .     S
C1697  C1710   1.414   .     A
C1697  C1704   1.387   .     A
C1698  N1813   1.427   .     S
C1698  C1712   1.405   .     A
C1699  C1711   1.404   .     A
C1699  N1814   1.428   .     S
C1700  N1815   1.428   .     S
C1700  C1711   1.400   .     A
C1701  N1816   1.426   .     S
C1701  C1712   1.401   .     A
C1702  C1715   1.409   .     A
C1702  N1817   1.431   .     S
C1703  O1843   1.281   .     A
C1703  O1840   1.271   .     A
C1703  C1708   1.412   .     S
C1704  N1818   1.432   .     S
C1704  C1713   1.410   .     A
C1705  N1819   1.430   .     S
C1705  C1713   1.413   .     A
C1706  N1821   1.428   .     S
C1706  C1715   1.412   .     A
C1707  C1714   1.410   .     S
C1711  C1735   1.410   .     S
C1712  C1734   1.414   .     S
C1713  C1733   1.436   .     S
C1714  O1841   1.270   .     A
C1714  O1842   1.281   .     A
C1715  C1725   1.433   .     S
C1716  H1739   1.108   .     S
C1716  H1740   1.109   .     S
C1716  H1738   1.110   .     S
C1716  N1824   1.449   .     S
C1717  H1742   1.109   .     S
C1717  H1743   1.110   .     S
C1717  N1825   1.449   .     S
C1717  H1744   1.109   .     S
C1718  N1826   1.447   .     S
C1718  H1746   1.111   .     S
C1718  H1749   1.111   .     S
C1718  H1747   1.108   .     S
C1719  H1752   1.111   .     S
C1719  H1753   1.108   .     S
C1719  N1827   1.448   .     S
C1719  H1751   1.111   .     S
C1720  N1828   1.449   .     S
C1720  H1756   1.109   .     S
C1720  H1755   1.110   .     S
C1720  H1757   1.110   .     S
C1721  N1810   1.446   .     S
C1721  H1762   1.107   .     S
C1721  H1760   1.111   .     S
C1721  H1929   1.110   .     S
C1722  N1811   1.450   .     S
C1722  H1766   1.110   .     S
C1722  H1764   1.110   .     S
C1722  H1765   1.109   .     S
C1723  H1769   1.110   .     S
C1723  H1768   1.110   .     S
C1723  N1812   1.449   .     S
C1723  H1771   1.107   .     S
C1724  H1773   1.110   .     S
C1724  N1813   1.449   .     S
C1724  H1775   1.108   .     S
C1724  H1774   1.109   .     S
C1725  O1844   1.286   .     A
C1725  O1832   1.278   .     A
C1726  H1779   1.109   .     S
C1726  H1778   1.110   .     S
C1726  N1814   1.448   .     S
C1726  H1777   1.110   .     S
C1727  N1815   1.448   .     S
C1727  H1783   1.111   .     S
C1727  H1784   1.111   .     S
C1728  H1787   1.111   .     S
C1728  H1786   1.112   .     S
C1728  N1816   1.448   .     S
C1728  H1452   1.110   1_565 S
C1729  H1793   1.110   .     S
C1729  N1817   1.446   .     S
C1729  H1791   1.107   .     S
C1729  H1790   1.111   .     S
C1730  H1797   1.108   .     S
C1730  H1795   1.111   .     S
C1730  N1818   1.446   .     S
C1730  H1796   1.110   .     S
C1731  H1799   1.106   .     S
C1731  H1800   1.110   .     S
C1731  H1801   1.102   .     S
C1731  N1819   1.447   .     S
C1732  H1806   1.109   .     S
C1732  N1821   1.450   .     S
C1732  H1805   1.110   .     S
C1732  H1804   1.109   .     S
C1733  O1830   1.288   .     A
C1733  O1831   1.279   .     A
C1734  O1833   1.270   .     A
C1734  O1836   1.284   .     A
C1735  O1834   1.270   .     A
C1735  O1835   1.282   .     A
C1736  N1988   1.365   .     A
C1736  H1737   1.082   .     S
H1741  N1825   1.031   .     S
H1745  N1826   1.029   .     S
H1750  N1827   1.029   .     S
H1754  N1828   1.029   .     S
H1758  N1810   1.029   .     S
H1761  C1889   1.110   1_455 S
H1763  N1811   1.031   .     S
H1767  N1812   1.031   .     S
H1772  N1813   1.031   .     S
H1776  N1814   1.031   .     S
H1780  N1815   1.029   .     S
H1782  C1391   1.108   1_565 S
H1785  N1816   1.029   .     S
H1789  N1817   1.029   .     S
H1794  N1818   1.029   .     S
H1798  N1819   1.032   .     S
H1802  N1821   1.031   .     S
H1808  N1824   1.031   .     S
N1809  C1852   1.366   1_455 A
N1809  Zn1845  2.003   .     S
N1820  C1904   1.365   1_455 A
N1820  Zn1846  2.003   .     S
N1822  Zn1847  2.003   .     S
N1823  Zn1848  2.003   .     S
O1829  Zn1845  2.002   .     S
O1830  Zn1848  2.002   .     S
O1831  Zn1847  2.020   .     S
O1832  Zn1512  2.020   1_565 S
O1833  Zn1512  1.994   1_565 S
O1834  Zn1847  1.994   .     S
O1835  Zn1848  1.980   .     S
O1836  Zn1511  1.980   1_565 S
O1837  Zn2014  2.002   .     S
O1838  Zn2013  2.020   .     S
O1839  Zn1846  2.020   .     S
O1840  Zn2014  1.994   .     S
O1841  Zn1845  1.994   .     S
O1842  Zn1846  1.980   .     S
O1843  Zn2013  1.980   .     S
O1844  Zn1511  2.002   1_565 S
Zn1845 O2011   1.980   1_455 S
Zn1845 O2006   2.020   1_455 S
Zn1846 O2008   1.994   1_455 S
Zn1846 O2005   2.002   1_455 S
C1849  O1997   1.287   .     A
C1849  O2007   1.279   .     A
C1849  C1878   1.436   .     S
C1850  H1916   1.082   .     S
C1850  C507    1.414   1_556 S
C1850  N1977   1.365   .     S
C1851  H1927   1.082   .     S
C1851  N1988   1.366   .     S
C1852  H1938   1.082   .     S
C1852  N1809   1.366   1_655 A
C1852  C560    1.414   1_556 S
C1853  H1949   1.081   .     S
C1853  N1655   1.365   1_565 S
C1854  N1990   1.365   .     A
C1854  H1960   1.082   .     S
C1854  C511    1.414   1_556 S
C1855  N1991   1.366   .     A
C1855  H1971   1.082   .     S
C1856  H1975   1.080   .     S
C1856  C509    1.413   1_556 S
C1856  N1654   1.365   1_565 S
C1857  N1992   1.427   .     S
C1857  C1868   1.390   .     A
C1857  C1876   1.403   .     A
C1858  C1875   1.403   .     A
C1858  C1869   1.388   .     A
C1858  N1993   1.428   .     S
C1859  C1866   1.390   .     A
C1859  C1875   1.401   .     A
C1859  N1994   1.428   .     S
C1860  C1877   1.434   .     S
C1860  O2005   1.286   .     A
C1860  O2006   1.278   .     A
C1861  C1876   1.402   .     A
C1861  N1995   1.428   .     S
C1861  C1867   1.391   .     A
C1862  N1996   1.432   .     S
C1862  C1878   1.412   .     A
C1862  C1873   1.386   .     A
C1863  C1877   1.409   .     A
C1863  C1874   1.388   .     A
C1863  N1978   1.431   .     S
C1864  N1979   1.428   .     S
C1864  C1877   1.412   .     A
C1864  C1870   1.387   .     A
C1865  N1980   1.429   .     S
C1865  C1878   1.414   .     A
C1865  C1872   1.387   .     A
C1866  N1981   1.427   .     S
C1866  C1880   1.405   .     A
C1867  C1879   1.404   .     A
C1867  N1982   1.428   .     S
C1868  N1983   1.428   .     S
C1868  C1879   1.400   .     A
C1869  N1984   1.426   .     S
C1869  C1880   1.401   .     A
C1870  C1883   1.409   .     A
C1870  N1985   1.431   .     S
C1871  O2011   1.281   .     A
C1871  O2008   1.271   .     A
C1871  C1876   1.412   .     S
C1872  N1986   1.432   .     S
C1872  C1881   1.410   .     A
C1873  N1987   1.430   .     S
C1873  C1881   1.413   .     A
C1874  N1989   1.428   .     S
C1874  C1883   1.412   .     A
C1875  C1882   1.410   .     S
C1879  C1903   1.410   .     S
C1880  C1902   1.414   .     S
C1881  C1901   1.436   .     S
C1882  O2009   1.270   .     A
C1882  O2010   1.281   .     A
C1883  C1893   1.433   .     S
C1884  H1907   1.108   .     S
C1884  H1908   1.109   .     S
C1884  H1906   1.110   .     S
C1884  N1992   1.449   .     S
C1885  H1910   1.109   .     S
C1885  H1911   1.110   .     S
C1885  N1993   1.449   .     S
C1885  H1912   1.109   .     S
C1886  N1994   1.447   .     S
C1886  H1914   1.111   .     S
C1886  H1917   1.111   .     S
C1886  H1915   1.108   .     S
C1887  H1920   1.111   .     S
C1887  H1921   1.108   .     S
C1887  N1995   1.448   .     S
C1887  H1919   1.111   .     S
C1888  N1996   1.449   .     S
C1888  H1924   1.109   .     S
C1888  H1923   1.110   .     S
C1888  H1925   1.110   .     S
C1889  N1978   1.446   .     S
C1889  H1930   1.107   .     S
C1889  H1928   1.111   .     S
C1889  H1761   1.110   1_655 S
C1890  N1979   1.450   .     S
C1890  H1934   1.110   .     S
C1890  H1932   1.110   .     S
C1890  H1933   1.109   .     S
C1891  H1937   1.110   .     S
C1891  H1936   1.110   .     S
C1891  N1980   1.449   .     S
C1891  H1939   1.107   .     S
C1892  H1941   1.110   .     S
C1892  N1981   1.449   .     S
C1892  H1943   1.108   .     S
C1892  H1942   1.109   .     S
C1893  O2012   1.286   .     A
C1893  O2000   1.278   .     A
C1894  H1947   1.109   .     S
C1894  H1946   1.110   .     S
C1894  N1982   1.448   .     S
C1894  H1945   1.110   .     S
C1895  N1983   1.448   .     S
C1895  H1951   1.111   .     S
C1895  H1952   1.111   .     S
C1896  H1955   1.111   .     S
C1896  H1954   1.112   .     S
C1896  N1984   1.448   .     S
C1896  H1620   1.110   1_565 S
C1897  H1961   1.110   .     S
C1897  N1985   1.446   .     S
C1897  H1959   1.107   .     S
C1897  H1958   1.111   .     S
C1898  H1965   1.108   .     S
C1898  H1963   1.111   .     S
C1898  N1986   1.446   .     S
C1898  H1964   1.110   .     S
C1899  H1967   1.106   .     S
C1899  H1968   1.110   .     S
C1899  H1969   1.102   .     S
C1899  N1987   1.447   .     S
C1900  H1974   1.109   .     S
C1900  N1989   1.450   .     S
C1900  H1973   1.110   .     S
C1900  H1972   1.109   .     S
C1901  O1998   1.288   .     A
C1901  O1999   1.279   .     A
C1902  O2001   1.270   .     A
C1902  O2004   1.284   .     A
C1903  O2002   1.270   .     A
C1903  O2003   1.282   .     A
C1904  N1820   1.365   1_655 A
C1904  H1905   1.082   .     S
H1909  N1993   1.031   .     S
H1913  N1994   1.029   .     S
H1918  N1995   1.029   .     S
H1922  N1996   1.029   .     S
H1926  N1978   1.029   .     S
H1931  N1979   1.031   .     S
H1935  N1980   1.031   .     S
H1940  N1981   1.031   .     S
H1944  N1982   1.031   .     S
H1948  N1983   1.029   .     S
H1950  C1559   1.108   1_565 S
H1953  N1984   1.029   .     S
H1957  N1985   1.029   .     S
H1962  N1986   1.029   .     S
H1966  N1987   1.032   .     S
H1970  N1989   1.031   .     S
H1976  N1992   1.031   .     S
N1977  Zn2013  2.003   .     S
N1988  Zn2014  2.003   .     S
N1990  Zn2015  2.003   .     S
N1991  Zn2016  2.003   .     S
O1997  Zn2013  2.002   .     S
O1998  Zn2016  2.002   .     S
O1999  Zn2015  2.020   .     S
O2000  Zn1680  2.020   1_565 S
O2001  Zn1680  1.994   1_565 S
O2002  Zn2015  1.994   .     S
O2003  Zn2016  1.980   .     S
O2004  Zn1679  1.980   1_565 S
O2005  Zn1846  2.002   1_655 S
O2006  Zn1845  2.020   1_655 S
O2007  Zn2014  2.020   .     S
O2008  Zn1846  1.994   1_655 S
O2009  Zn2013  1.994   .     S
O2010  Zn2014  1.980   .     S
O2011  Zn1845  1.980   1_655 S
O2012  Zn1679  2.002   1_565 S
