data_str_m3_o1_o17_pcu_sym.164
_audit_creation_date              2020-01-03
_audit_creation_method            'Materials Studio'
_symmetry_space_group_name_H-M    'P1'
_symmetry_Int_Tables_number       1
_symmetry_cell_setting            triclinic
loop_
_symmetry_equiv_pos_as_xyz
  x,y,z
_cell_length_a                    32.1754
_cell_length_b                    29.7836
_cell_length_c                    29.8115
_cell_angle_alpha                 90.7143
_cell_angle_beta                  90.6952
_cell_angle_gamma                 89.9899
loop_
_atom_site_label
_atom_site_type_symbol
_atom_site_fract_x
_atom_site_fract_y
_atom_site_fract_z
_atom_site_U_iso_or_equiv
_atom_site_adp_type
_atom_site_occupancy
C1     C     0.08671   0.16671   0.25026   0.00000  Uiso   1.00
C2     C     0.24662   0.16670   0.24973   0.00000  Uiso   1.00
C3     C     0.11616   0.10591   0.02174   0.00000  Uiso   1.00
C4     C     0.22293   0.22271   0.47821   0.00000  Uiso   1.00
C5     C     0.02124   0.12604   0.24926   0.00000  Uiso   1.00
C6     C     0.31204   0.20786   0.25133   0.00000  Uiso   1.00
C7     C     0.31208   0.12606   0.24771   0.00000  Uiso   1.00
C8     C     0.02132   0.20786   0.25156   0.00000  Uiso   1.00
C9     C     0.29083   0.16689   0.24944   0.00000  Uiso   1.00
C10    C     0.04251   0.16688   0.25052   0.00000  Uiso   1.00
C11    C     0.18610   0.02468   0.28357   0.00000  Uiso   1.00
C12    C     0.14788   0.30885   0.21567   0.00000  Uiso   1.00
C13    C     0.14669   0.02378   0.21661   0.00000  Uiso   1.00
C14    C     0.18296   0.31020   0.28554   0.00000  Uiso   1.00
C15    C     0.16693   0.16638   0.16353   0.00000  Uiso   1.00
C16    C     0.16704   0.16678   0.33647   0.00000  Uiso   1.00
C17    C     0.19551   0.19428   0.40761   0.00000  Uiso   1.00
C18    C     0.14206   0.13587   0.09225   0.00000  Uiso   1.00
C19    C     0.16781   0.16641   0.38424   0.00000  Uiso   1.00
C20    C     0.16805   0.16552   0.11576   0.00000  Uiso   1.00
C21    C     0.14191   0.13652   0.40620   0.00000  Uiso   1.00
C22    C     0.19519   0.19416   0.09389   0.00000  Uiso   1.00
C23    C     0.14242   0.13539   0.45256   0.00000  Uiso   1.00
C24    C     0.19606   0.19390   0.04747   0.00000  Uiso   1.00
C25    C     0.16944   0.16451   0.47666   0.00000  Uiso   1.00
C26    C     0.16944   0.16439   0.02332   0.00000  Uiso   1.00
C27    C     0.19623   0.19396   0.45406   0.00000  Uiso   1.00
C28    C     0.14249   0.13508   0.04587   0.00000  Uiso   1.00
C29    C     0.11613   0.10607   0.47513   0.00000  Uiso   1.00
C30    C     0.22279   0.22274   0.02486   0.00000  Uiso   1.00
H31    H     0.21642   0.21598   0.38955   0.00000  Uiso   1.00
H32    H     0.12091   0.11432   0.11009   0.00000  Uiso   1.00
H33    H     0.12106   0.11468   0.38711   0.00000  Uiso   1.00
H34    H     0.21550   0.21647   0.11309   0.00000  Uiso   1.00
H35    H     0.09542   0.08358   0.45676   0.00000  Uiso   1.00
H36    H     0.24333   0.24541   0.04324   0.00000  Uiso   1.00
H37    H     0.09550   0.08329   0.03891   0.00000  Uiso   1.00
H38    H     0.24356   0.24536   0.46104   0.00000  Uiso   1.00
H39    H     0.03722   0.09412   0.24934   0.00000  Uiso   1.00
H40    H     0.29591   0.23978   0.25260   0.00000  Uiso   1.00
H41    H     0.29607   0.09421   0.24524   0.00000  Uiso   1.00
H42    H     0.03747   0.23979   0.25271   0.00000  Uiso   1.00
N43    N     0.16667   0.28573   0.25000   0.00000  Uiso   1.00
N44    N     0.16667   0.04760   0.25000   0.00000  Uiso   1.00
O45    O     0.10559   0.20487   0.24999   0.00000  Uiso   1.00
O46    O     0.22774   0.12846   0.25000   0.00000  Uiso   1.00
O47    O     0.22774   0.20487   0.25000   0.00000  Uiso   1.00
O48    O     0.10559   0.12846   0.24999   0.00000  Uiso   1.00
O49    O     0.16666   0.20489   0.18392   0.00000  Uiso   1.00
O50    O     0.16667   0.12844   0.31607   0.00000  Uiso   1.00
O51    O     0.16667   0.20489   0.31607   0.00000  Uiso   1.00
O52    O     0.16666   0.12844   0.18392   0.00000  Uiso   1.00
Zn53   Zn    0.16667   0.21771   0.25000   0.00000  Uiso   1.00
Zn54   Zn    0.16667   0.11563   0.25000   0.00000  Uiso   1.00
N55    N     0.20802   0.04930   0.31745   0.00000  Uiso   1.00
H56    H     0.19631   0.04732   0.34935   0.00000  Uiso   1.00
C57    C     0.25293   0.04716   0.31582   0.00000  Uiso   1.00
H58    H     0.26515   0.02532   0.34286   0.00000  Uiso   1.00
H59    H     0.26577   0.08137   0.32134   0.00000  Uiso   1.00
H60    H     0.26384   0.03388   0.28297   0.00000  Uiso   1.00
N61    N     0.12600   0.28415   0.18181   0.00000  Uiso   1.00
H62    H     0.09410   0.28614   0.18378   0.00000  Uiso   1.00
C63    C     0.14176   0.28659   0.13659   0.00000  Uiso   1.00
H64    H     0.12845   0.31566   0.11866   0.00000  Uiso   1.00
H65    H     0.13194   0.25611   0.11756   0.00000  Uiso   1.00
H66    H     0.17626   0.28851   0.13678   0.00000  Uiso   1.00
N67    N     0.12609   0.04800   0.18225   0.00000  Uiso   1.00
H68    H     0.14097   0.04852   0.15188   0.00000  Uiso   1.00
C69    C     0.08119   0.04555   0.18011   0.00000  Uiso   1.00
H70    H     0.07108   0.02426   0.15118   0.00000  Uiso   1.00
H71    H     0.06852   0.07979   0.17510   0.00000  Uiso   1.00
H72    H     0.06819   0.03161   0.21139   0.00000  Uiso   1.00
N73    N     0.19139   0.28865   0.32680   0.00000  Uiso   1.00
H74    H     0.21953   0.29718   0.34131   0.00000  Uiso   1.00
C75    C     0.15723   0.29238   0.35807   0.00000  Uiso   1.00
H76    H     0.14951   0.32797   0.36550   0.00000  Uiso   1.00
H77    H     0.16569   0.27638   0.39022   0.00000  Uiso   1.00
H78    H     0.12900   0.27568   0.34398   0.00000  Uiso   1.00
C79    C     0.42005   0.16671   0.25026   0.00000  Uiso   1.00
C80    C     0.57996   0.16670   0.24973   0.00000  Uiso   1.00
C81    C     0.44950   0.10591   0.02174   0.00000  Uiso   1.00
C82    C     0.55626   0.22271   0.47821   0.00000  Uiso   1.00
C83    C     0.35457   0.12604   0.24926   0.00000  Uiso   1.00
C84    C     0.64537   0.20786   0.25133   0.00000  Uiso   1.00
C85    C     0.64541   0.12606   0.24771   0.00000  Uiso   1.00
C86    C     0.35465   0.20786   0.25156   0.00000  Uiso   1.00
C87    C     0.62416   0.16689   0.24944   0.00000  Uiso   1.00
C88    C     0.37584   0.16688   0.25052   0.00000  Uiso   1.00
C89    C     0.51944   0.02468   0.28357   0.00000  Uiso   1.00
C90    C     0.48121   0.30885   0.21567   0.00000  Uiso   1.00
C91    C     0.48002   0.02378   0.21661   0.00000  Uiso   1.00
C92    C     0.51629   0.31020   0.28554   0.00000  Uiso   1.00
C93    C     0.50026   0.16638   0.16353   0.00000  Uiso   1.00
C94    C     0.50037   0.16678   0.33647   0.00000  Uiso   1.00
C95    C     0.52885   0.19428   0.40761   0.00000  Uiso   1.00
C96    C     0.47539   0.13587   0.09225   0.00000  Uiso   1.00
C97    C     0.50115   0.16641   0.38424   0.00000  Uiso   1.00
C98    C     0.50138   0.16552   0.11576   0.00000  Uiso   1.00
C99    C     0.47524   0.13652   0.40620   0.00000  Uiso   1.00
C100   C     0.52853   0.19416   0.09389   0.00000  Uiso   1.00
C101   C     0.47575   0.13539   0.45256   0.00000  Uiso   1.00
C102   C     0.52940   0.19390   0.04747   0.00000  Uiso   1.00
C103   C     0.50277   0.16451   0.47666   0.00000  Uiso   1.00
C104   C     0.50277   0.16439   0.02332   0.00000  Uiso   1.00
C105   C     0.52956   0.19396   0.45406   0.00000  Uiso   1.00
C106   C     0.47582   0.13508   0.04587   0.00000  Uiso   1.00
C107   C     0.44946   0.10607   0.47513   0.00000  Uiso   1.00
C108   C     0.55612   0.22274   0.02486   0.00000  Uiso   1.00
H109   H     0.54975   0.21598   0.38955   0.00000  Uiso   1.00
H110   H     0.45424   0.11432   0.11009   0.00000  Uiso   1.00
H111   H     0.45439   0.11468   0.38711   0.00000  Uiso   1.00
H112   H     0.54884   0.21647   0.11309   0.00000  Uiso   1.00
H113   H     0.42875   0.08358   0.45676   0.00000  Uiso   1.00
H114   H     0.57667   0.24541   0.04324   0.00000  Uiso   1.00
H115   H     0.42883   0.08329   0.03891   0.00000  Uiso   1.00
H116   H     0.57690   0.24536   0.46104   0.00000  Uiso   1.00
H117   H     0.37055   0.09412   0.24934   0.00000  Uiso   1.00
H118   H     0.62924   0.23978   0.25260   0.00000  Uiso   1.00
H119   H     0.62941   0.09421   0.24524   0.00000  Uiso   1.00
H120   H     0.37080   0.23979   0.25271   0.00000  Uiso   1.00
N121   N     0.50000   0.28573   0.25000   0.00000  Uiso   1.00
N122   N     0.50000   0.04760   0.25000   0.00000  Uiso   1.00
O123   O     0.43892   0.20487   0.24999   0.00000  Uiso   1.00
O124   O     0.56108   0.12846   0.25000   0.00000  Uiso   1.00
O125   O     0.56108   0.20487   0.25000   0.00000  Uiso   1.00
O126   O     0.43892   0.12846   0.24999   0.00000  Uiso   1.00
O127   O     0.49999   0.20489   0.18392   0.00000  Uiso   1.00
O128   O     0.50001   0.12844   0.31607   0.00000  Uiso   1.00
O129   O     0.50001   0.20489   0.31607   0.00000  Uiso   1.00
O130   O     0.49999   0.12844   0.18392   0.00000  Uiso   1.00
Zn131  Zn    0.50000   0.21771   0.25000   0.00000  Uiso   1.00
Zn132  Zn    0.50000   0.11563   0.25000   0.00000  Uiso   1.00
N133   N     0.54135   0.04930   0.31745   0.00000  Uiso   1.00
H134   H     0.52964   0.04732   0.34935   0.00000  Uiso   1.00
C135   C     0.58626   0.04716   0.31582   0.00000  Uiso   1.00
H136   H     0.59848   0.02532   0.34286   0.00000  Uiso   1.00
H137   H     0.59910   0.08137   0.32134   0.00000  Uiso   1.00
H138   H     0.59717   0.03388   0.28297   0.00000  Uiso   1.00
N139   N     0.45933   0.28415   0.18181   0.00000  Uiso   1.00
H140   H     0.42744   0.28614   0.18378   0.00000  Uiso   1.00
C141   C     0.47509   0.28659   0.13659   0.00000  Uiso   1.00
H142   H     0.46178   0.31566   0.11866   0.00000  Uiso   1.00
H143   H     0.46527   0.25611   0.11756   0.00000  Uiso   1.00
H144   H     0.50960   0.28851   0.13678   0.00000  Uiso   1.00
N145   N     0.45942   0.04800   0.18225   0.00000  Uiso   1.00
H146   H     0.47430   0.04852   0.15188   0.00000  Uiso   1.00
C147   C     0.41453   0.04555   0.18011   0.00000  Uiso   1.00
H148   H     0.40442   0.02426   0.15118   0.00000  Uiso   1.00
H149   H     0.40186   0.07979   0.17510   0.00000  Uiso   1.00
H150   H     0.40153   0.03161   0.21139   0.00000  Uiso   1.00
N151   N     0.52472   0.28865   0.32680   0.00000  Uiso   1.00
H152   H     0.55287   0.29718   0.34131   0.00000  Uiso   1.00
C153   C     0.49056   0.29238   0.35807   0.00000  Uiso   1.00
H154   H     0.48284   0.32797   0.36550   0.00000  Uiso   1.00
H155   H     0.49903   0.27638   0.39022   0.00000  Uiso   1.00
H156   H     0.46233   0.27568   0.34398   0.00000  Uiso   1.00
C157   C     0.75338   0.16671   0.25026   0.00000  Uiso   1.00
C158   C     0.91329   0.16670   0.24973   0.00000  Uiso   1.00
C159   C     0.78283   0.10591   0.02174   0.00000  Uiso   1.00
C160   C     0.88959   0.22271   0.47821   0.00000  Uiso   1.00
C161   C     0.68791   0.12604   0.24926   0.00000  Uiso   1.00
C162   C     0.97871   0.20786   0.25133   0.00000  Uiso   1.00
C163   C     0.97874   0.12606   0.24771   0.00000  Uiso   1.00
C164   C     0.68798   0.20786   0.25156   0.00000  Uiso   1.00
C165   C     0.95749   0.16689   0.24944   0.00000  Uiso   1.00
C166   C     0.70918   0.16688   0.25052   0.00000  Uiso   1.00
C167   C     0.85277   0.02468   0.28357   0.00000  Uiso   1.00
C168   C     0.81455   0.30885   0.21567   0.00000  Uiso   1.00
C169   C     0.81335   0.02378   0.21661   0.00000  Uiso   1.00
C170   C     0.84963   0.31020   0.28554   0.00000  Uiso   1.00
C171   C     0.83360   0.16638   0.16353   0.00000  Uiso   1.00
C172   C     0.83371   0.16678   0.33647   0.00000  Uiso   1.00
C173   C     0.86218   0.19428   0.40761   0.00000  Uiso   1.00
C174   C     0.80873   0.13587   0.09225   0.00000  Uiso   1.00
C175   C     0.83448   0.16641   0.38424   0.00000  Uiso   1.00
C176   C     0.83471   0.16552   0.11576   0.00000  Uiso   1.00
C177   C     0.80857   0.13652   0.40620   0.00000  Uiso   1.00
C178   C     0.86186   0.19416   0.09389   0.00000  Uiso   1.00
C179   C     0.80908   0.13539   0.45256   0.00000  Uiso   1.00
C180   C     0.86273   0.19390   0.04747   0.00000  Uiso   1.00
C181   C     0.83610   0.16451   0.47666   0.00000  Uiso   1.00
C182   C     0.83610   0.16439   0.02332   0.00000  Uiso   1.00
C183   C     0.86289   0.19396   0.45406   0.00000  Uiso   1.00
C184   C     0.80915   0.13508   0.04587   0.00000  Uiso   1.00
C185   C     0.78279   0.10607   0.47513   0.00000  Uiso   1.00
C186   C     0.88946   0.22274   0.02486   0.00000  Uiso   1.00
H187   H     0.88308   0.21598   0.38955   0.00000  Uiso   1.00
H188   H     0.78757   0.11432   0.11009   0.00000  Uiso   1.00
H189   H     0.78772   0.11468   0.38711   0.00000  Uiso   1.00
H190   H     0.88217   0.21647   0.11309   0.00000  Uiso   1.00
H191   H     0.76209   0.08358   0.45676   0.00000  Uiso   1.00
H192   H     0.91000   0.24541   0.04324   0.00000  Uiso   1.00
H193   H     0.76217   0.08329   0.03891   0.00000  Uiso   1.00
H194   H     0.91023   0.24536   0.46104   0.00000  Uiso   1.00
H195   H     0.70389   0.09412   0.24934   0.00000  Uiso   1.00
H196   H     0.96257   0.23978   0.25260   0.00000  Uiso   1.00
H197   H     0.96274   0.09421   0.24524   0.00000  Uiso   1.00
H198   H     0.70413   0.23979   0.25271   0.00000  Uiso   1.00
N199   N     0.83333   0.28573   0.25000   0.00000  Uiso   1.00
N200   N     0.83333   0.04760   0.25000   0.00000  Uiso   1.00
O201   O     0.77226   0.20487   0.24999   0.00000  Uiso   1.00
O202   O     0.89441   0.12846   0.25000   0.00000  Uiso   1.00
O203   O     0.89441   0.20487   0.25000   0.00000  Uiso   1.00
O204   O     0.77226   0.12846   0.24999   0.00000  Uiso   1.00
O205   O     0.83333   0.20489   0.18392   0.00000  Uiso   1.00
O206   O     0.83334   0.12844   0.31607   0.00000  Uiso   1.00
O207   O     0.83334   0.20489   0.31607   0.00000  Uiso   1.00
O208   O     0.83333   0.12844   0.18392   0.00000  Uiso   1.00
Zn209  Zn    0.83333   0.21771   0.25000   0.00000  Uiso   1.00
Zn210  Zn    0.83333   0.11563   0.25000   0.00000  Uiso   1.00
N211   N     0.87469   0.04930   0.31745   0.00000  Uiso   1.00
H212   H     0.86298   0.04732   0.34935   0.00000  Uiso   1.00
C213   C     0.91959   0.04716   0.31582   0.00000  Uiso   1.00
H214   H     0.93182   0.02532   0.34286   0.00000  Uiso   1.00
H215   H     0.93243   0.08137   0.32134   0.00000  Uiso   1.00
H216   H     0.93051   0.03388   0.28297   0.00000  Uiso   1.00
N217   N     0.79266   0.28415   0.18181   0.00000  Uiso   1.00
H218   H     0.76077   0.28614   0.18378   0.00000  Uiso   1.00
C219   C     0.80843   0.28659   0.13659   0.00000  Uiso   1.00
H220   H     0.79512   0.31566   0.11866   0.00000  Uiso   1.00
H221   H     0.79861   0.25611   0.11756   0.00000  Uiso   1.00
H222   H     0.84293   0.28851   0.13678   0.00000  Uiso   1.00
N223   N     0.79275   0.04800   0.18225   0.00000  Uiso   1.00
H224   H     0.80763   0.04852   0.15188   0.00000  Uiso   1.00
C225   C     0.74786   0.04555   0.18011   0.00000  Uiso   1.00
H226   H     0.73775   0.02426   0.15118   0.00000  Uiso   1.00
H227   H     0.73519   0.07979   0.17510   0.00000  Uiso   1.00
H228   H     0.73486   0.03161   0.21139   0.00000  Uiso   1.00
N229   N     0.85806   0.28865   0.32680   0.00000  Uiso   1.00
H230   H     0.88620   0.29718   0.34131   0.00000  Uiso   1.00
C231   C     0.82390   0.29238   0.35807   0.00000  Uiso   1.00
H232   H     0.81617   0.32797   0.36550   0.00000  Uiso   1.00
H233   H     0.83236   0.27638   0.39022   0.00000  Uiso   1.00
H234   H     0.79567   0.27568   0.34398   0.00000  Uiso   1.00
C235   C     0.08671   0.50004   0.25026   0.00000  Uiso   1.00
C236   C     0.24662   0.50004   0.24973   0.00000  Uiso   1.00
C237   C     0.11616   0.43925   0.02174   0.00000  Uiso   1.00
C238   C     0.22293   0.55604   0.47821   0.00000  Uiso   1.00
C239   C     0.02124   0.45937   0.24926   0.00000  Uiso   1.00
C240   C     0.31204   0.54119   0.25133   0.00000  Uiso   1.00
C241   C     0.31208   0.45940   0.24771   0.00000  Uiso   1.00
C242   C     0.02132   0.54119   0.25156   0.00000  Uiso   1.00
C243   C     0.29083   0.50022   0.24944   0.00000  Uiso   1.00
C244   C     0.04251   0.50021   0.25052   0.00000  Uiso   1.00
C245   C     0.18610   0.35801   0.28357   0.00000  Uiso   1.00
C246   C     0.14788   0.64219   0.21567   0.00000  Uiso   1.00
C247   C     0.14669   0.35711   0.21661   0.00000  Uiso   1.00
C248   C     0.18296   0.64354   0.28554   0.00000  Uiso   1.00
C249   C     0.16693   0.49971   0.16353   0.00000  Uiso   1.00
C250   C     0.16704   0.50012   0.33647   0.00000  Uiso   1.00
C251   C     0.19551   0.52761   0.40761   0.00000  Uiso   1.00
C252   C     0.14206   0.46920   0.09225   0.00000  Uiso   1.00
C253   C     0.16781   0.49974   0.38424   0.00000  Uiso   1.00
C254   C     0.16805   0.49886   0.11576   0.00000  Uiso   1.00
C255   C     0.14191   0.46985   0.40620   0.00000  Uiso   1.00
C256   C     0.19519   0.52750   0.09389   0.00000  Uiso   1.00
C257   C     0.14242   0.46872   0.45256   0.00000  Uiso   1.00
C258   C     0.19606   0.52724   0.04747   0.00000  Uiso   1.00
C259   C     0.16944   0.49784   0.47666   0.00000  Uiso   1.00
C260   C     0.16944   0.49772   0.02332   0.00000  Uiso   1.00
C261   C     0.19623   0.52729   0.45406   0.00000  Uiso   1.00
C262   C     0.14249   0.46841   0.04587   0.00000  Uiso   1.00
C263   C     0.11613   0.43940   0.47513   0.00000  Uiso   1.00
C264   C     0.22279   0.55608   0.02486   0.00000  Uiso   1.00
H265   H     0.21642   0.54931   0.38955   0.00000  Uiso   1.00
H266   H     0.12091   0.44765   0.11009   0.00000  Uiso   1.00
H267   H     0.12106   0.44801   0.38711   0.00000  Uiso   1.00
H268   H     0.21550   0.54980   0.11309   0.00000  Uiso   1.00
H269   H     0.09542   0.41691   0.45676   0.00000  Uiso   1.00
H270   H     0.24333   0.57874   0.04324   0.00000  Uiso   1.00
H271   H     0.09550   0.41662   0.03891   0.00000  Uiso   1.00
H272   H     0.24356   0.57869   0.46104   0.00000  Uiso   1.00
H273   H     0.03722   0.42745   0.24934   0.00000  Uiso   1.00
H274   H     0.29591   0.57311   0.25260   0.00000  Uiso   1.00
H275   H     0.29607   0.42754   0.24524   0.00000  Uiso   1.00
H276   H     0.03747   0.57312   0.25271   0.00000  Uiso   1.00
N277   N     0.16667   0.61907   0.25000   0.00000  Uiso   1.00
N278   N     0.16667   0.38093   0.25000   0.00000  Uiso   1.00
O279   O     0.10559   0.53821   0.24999   0.00000  Uiso   1.00
O280   O     0.22774   0.46179   0.25000   0.00000  Uiso   1.00
O281   O     0.22774   0.53821   0.25000   0.00000  Uiso   1.00
O282   O     0.10559   0.46179   0.24999   0.00000  Uiso   1.00
O283   O     0.16666   0.53823   0.18392   0.00000  Uiso   1.00
O284   O     0.16667   0.46177   0.31607   0.00000  Uiso   1.00
O285   O     0.16667   0.53823   0.31607   0.00000  Uiso   1.00
O286   O     0.16666   0.46177   0.18392   0.00000  Uiso   1.00
Zn287  Zn    0.16667   0.55104   0.25000   0.00000  Uiso   1.00
Zn288  Zn    0.16667   0.44896   0.25000   0.00000  Uiso   1.00
N289   N     0.20802   0.38263   0.31745   0.00000  Uiso   1.00
H290   H     0.19631   0.38066   0.34935   0.00000  Uiso   1.00
C291   C     0.25293   0.38049   0.31582   0.00000  Uiso   1.00
H292   H     0.26515   0.35865   0.34286   0.00000  Uiso   1.00
H293   H     0.26577   0.41470   0.32134   0.00000  Uiso   1.00
H294   H     0.26384   0.36722   0.28297   0.00000  Uiso   1.00
N295   N     0.12600   0.61748   0.18181   0.00000  Uiso   1.00
H296   H     0.09410   0.61948   0.18378   0.00000  Uiso   1.00
C297   C     0.14176   0.61992   0.13659   0.00000  Uiso   1.00
H298   H     0.12845   0.64899   0.11866   0.00000  Uiso   1.00
H299   H     0.13194   0.58944   0.11756   0.00000  Uiso   1.00
H300   H     0.17626   0.62184   0.13678   0.00000  Uiso   1.00
N301   N     0.12609   0.38133   0.18225   0.00000  Uiso   1.00
H302   H     0.14097   0.38185   0.15188   0.00000  Uiso   1.00
C303   C     0.08119   0.37889   0.18011   0.00000  Uiso   1.00
H304   H     0.07108   0.35759   0.15118   0.00000  Uiso   1.00
H305   H     0.06852   0.41312   0.17510   0.00000  Uiso   1.00
H306   H     0.06819   0.36494   0.21139   0.00000  Uiso   1.00
N307   N     0.19139   0.62198   0.32680   0.00000  Uiso   1.00
H308   H     0.21953   0.63051   0.34131   0.00000  Uiso   1.00
C309   C     0.15723   0.62571   0.35807   0.00000  Uiso   1.00
H310   H     0.14951   0.66130   0.36550   0.00000  Uiso   1.00
H311   H     0.16569   0.60971   0.39022   0.00000  Uiso   1.00
H312   H     0.12900   0.60902   0.34398   0.00000  Uiso   1.00
C313   C     0.42005   0.50004   0.25026   0.00000  Uiso   1.00
C314   C     0.57996   0.50004   0.24973   0.00000  Uiso   1.00
C315   C     0.44950   0.43925   0.02174   0.00000  Uiso   1.00
C316   C     0.55626   0.55604   0.47821   0.00000  Uiso   1.00
C317   C     0.35457   0.45937   0.24926   0.00000  Uiso   1.00
C318   C     0.64537   0.54119   0.25133   0.00000  Uiso   1.00
C319   C     0.64541   0.45940   0.24771   0.00000  Uiso   1.00
C320   C     0.35465   0.54119   0.25156   0.00000  Uiso   1.00
C321   C     0.62416   0.50022   0.24944   0.00000  Uiso   1.00
C322   C     0.37584   0.50021   0.25052   0.00000  Uiso   1.00
C323   C     0.51944   0.35801   0.28357   0.00000  Uiso   1.00
C324   C     0.48121   0.64219   0.21567   0.00000  Uiso   1.00
C325   C     0.48002   0.35711   0.21661   0.00000  Uiso   1.00
C326   C     0.51629   0.64354   0.28554   0.00000  Uiso   1.00
C327   C     0.50026   0.49971   0.16353   0.00000  Uiso   1.00
C328   C     0.50037   0.50012   0.33647   0.00000  Uiso   1.00
C329   C     0.52885   0.52761   0.40761   0.00000  Uiso   1.00
C330   C     0.47539   0.46920   0.09225   0.00000  Uiso   1.00
C331   C     0.50115   0.49974   0.38424   0.00000  Uiso   1.00
C332   C     0.50138   0.49886   0.11576   0.00000  Uiso   1.00
C333   C     0.47524   0.46985   0.40620   0.00000  Uiso   1.00
C334   C     0.52853   0.52750   0.09389   0.00000  Uiso   1.00
C335   C     0.47575   0.46872   0.45256   0.00000  Uiso   1.00
C336   C     0.52940   0.52724   0.04747   0.00000  Uiso   1.00
C337   C     0.50277   0.49784   0.47666   0.00000  Uiso   1.00
C338   C     0.50277   0.49772   0.02332   0.00000  Uiso   1.00
C339   C     0.52956   0.52729   0.45406   0.00000  Uiso   1.00
C340   C     0.47582   0.46841   0.04587   0.00000  Uiso   1.00
C341   C     0.44946   0.43940   0.47513   0.00000  Uiso   1.00
C342   C     0.55612   0.55608   0.02486   0.00000  Uiso   1.00
H343   H     0.54975   0.54931   0.38955   0.00000  Uiso   1.00
H344   H     0.45424   0.44765   0.11009   0.00000  Uiso   1.00
H345   H     0.45439   0.44801   0.38711   0.00000  Uiso   1.00
H346   H     0.54884   0.54980   0.11309   0.00000  Uiso   1.00
H347   H     0.42875   0.41691   0.45676   0.00000  Uiso   1.00
H348   H     0.57667   0.57874   0.04324   0.00000  Uiso   1.00
H349   H     0.42883   0.41662   0.03891   0.00000  Uiso   1.00
H350   H     0.57690   0.57869   0.46104   0.00000  Uiso   1.00
H351   H     0.37055   0.42745   0.24934   0.00000  Uiso   1.00
H352   H     0.62924   0.57311   0.25260   0.00000  Uiso   1.00
H353   H     0.62941   0.42754   0.24524   0.00000  Uiso   1.00
H354   H     0.37080   0.57312   0.25271   0.00000  Uiso   1.00
N355   N     0.50000   0.61907   0.25000   0.00000  Uiso   1.00
N356   N     0.50000   0.38093   0.25000   0.00000  Uiso   1.00
O357   O     0.43892   0.53821   0.24999   0.00000  Uiso   1.00
O358   O     0.56108   0.46179   0.25000   0.00000  Uiso   1.00
O359   O     0.56108   0.53821   0.25000   0.00000  Uiso   1.00
O360   O     0.43892   0.46179   0.24999   0.00000  Uiso   1.00
O361   O     0.49999   0.53823   0.18392   0.00000  Uiso   1.00
O362   O     0.50001   0.46177   0.31607   0.00000  Uiso   1.00
O363   O     0.50001   0.53823   0.31607   0.00000  Uiso   1.00
O364   O     0.49999   0.46177   0.18392   0.00000  Uiso   1.00
Zn365  Zn    0.50000   0.55104   0.25000   0.00000  Uiso   1.00
Zn366  Zn    0.50000   0.44896   0.25000   0.00000  Uiso   1.00
N367   N     0.54135   0.38263   0.31745   0.00000  Uiso   1.00
H368   H     0.52964   0.38066   0.34935   0.00000  Uiso   1.00
C369   C     0.58626   0.38049   0.31582   0.00000  Uiso   1.00
H370   H     0.59848   0.35865   0.34286   0.00000  Uiso   1.00
H371   H     0.59910   0.41470   0.32134   0.00000  Uiso   1.00
H372   H     0.59717   0.36722   0.28297   0.00000  Uiso   1.00
N373   N     0.45933   0.61748   0.18181   0.00000  Uiso   1.00
H374   H     0.42744   0.61948   0.18378   0.00000  Uiso   1.00
C375   C     0.47509   0.61992   0.13659   0.00000  Uiso   1.00
H376   H     0.46178   0.64899   0.11866   0.00000  Uiso   1.00
H377   H     0.46527   0.58944   0.11756   0.00000  Uiso   1.00
H378   H     0.50960   0.62184   0.13678   0.00000  Uiso   1.00
N379   N     0.45942   0.38133   0.18225   0.00000  Uiso   1.00
H380   H     0.47430   0.38185   0.15188   0.00000  Uiso   1.00
C381   C     0.41453   0.37889   0.18011   0.00000  Uiso   1.00
H382   H     0.40442   0.35759   0.15118   0.00000  Uiso   1.00
H383   H     0.40186   0.41312   0.17510   0.00000  Uiso   1.00
H384   H     0.40153   0.36494   0.21139   0.00000  Uiso   1.00
N385   N     0.52472   0.62198   0.32680   0.00000  Uiso   1.00
H386   H     0.55287   0.63051   0.34131   0.00000  Uiso   1.00
C387   C     0.49056   0.62571   0.35807   0.00000  Uiso   1.00
H388   H     0.48284   0.66130   0.36550   0.00000  Uiso   1.00
H389   H     0.49903   0.60971   0.39022   0.00000  Uiso   1.00
H390   H     0.46233   0.60902   0.34398   0.00000  Uiso   1.00
C391   C     0.75338   0.50004   0.25026   0.00000  Uiso   1.00
C392   C     0.91329   0.50004   0.24973   0.00000  Uiso   1.00
C393   C     0.78283   0.43925   0.02174   0.00000  Uiso   1.00
C394   C     0.88959   0.55604   0.47821   0.00000  Uiso   1.00
C395   C     0.68791   0.45937   0.24926   0.00000  Uiso   1.00
C396   C     0.97871   0.54119   0.25133   0.00000  Uiso   1.00
C397   C     0.97874   0.45940   0.24771   0.00000  Uiso   1.00
C398   C     0.68798   0.54119   0.25156   0.00000  Uiso   1.00
C399   C     0.95749   0.50022   0.24944   0.00000  Uiso   1.00
C400   C     0.70918   0.50021   0.25052   0.00000  Uiso   1.00
C401   C     0.85277   0.35801   0.28357   0.00000  Uiso   1.00
C402   C     0.81455   0.64219   0.21567   0.00000  Uiso   1.00
C403   C     0.81335   0.35711   0.21661   0.00000  Uiso   1.00
C404   C     0.84963   0.64354   0.28554   0.00000  Uiso   1.00
C405   C     0.83360   0.49971   0.16353   0.00000  Uiso   1.00
C406   C     0.83371   0.50012   0.33647   0.00000  Uiso   1.00
C407   C     0.86218   0.52761   0.40761   0.00000  Uiso   1.00
C408   C     0.80873   0.46920   0.09225   0.00000  Uiso   1.00
C409   C     0.83448   0.49974   0.38424   0.00000  Uiso   1.00
C410   C     0.83471   0.49886   0.11576   0.00000  Uiso   1.00
C411   C     0.80857   0.46985   0.40620   0.00000  Uiso   1.00
C412   C     0.86186   0.52750   0.09389   0.00000  Uiso   1.00
C413   C     0.80908   0.46872   0.45256   0.00000  Uiso   1.00
C414   C     0.86273   0.52724   0.04747   0.00000  Uiso   1.00
C415   C     0.83610   0.49784   0.47666   0.00000  Uiso   1.00
C416   C     0.83610   0.49772   0.02332   0.00000  Uiso   1.00
C417   C     0.86289   0.52729   0.45406   0.00000  Uiso   1.00
C418   C     0.80915   0.46841   0.04587   0.00000  Uiso   1.00
C419   C     0.78279   0.43940   0.47513   0.00000  Uiso   1.00
C420   C     0.88946   0.55608   0.02486   0.00000  Uiso   1.00
H421   H     0.88308   0.54931   0.38955   0.00000  Uiso   1.00
H422   H     0.78757   0.44765   0.11009   0.00000  Uiso   1.00
H423   H     0.78772   0.44801   0.38711   0.00000  Uiso   1.00
H424   H     0.88217   0.54980   0.11309   0.00000  Uiso   1.00
H425   H     0.76209   0.41691   0.45676   0.00000  Uiso   1.00
H426   H     0.91000   0.57874   0.04324   0.00000  Uiso   1.00
H427   H     0.76217   0.41662   0.03891   0.00000  Uiso   1.00
H428   H     0.91023   0.57869   0.46104   0.00000  Uiso   1.00
H429   H     0.70389   0.42745   0.24934   0.00000  Uiso   1.00
H430   H     0.96257   0.57311   0.25260   0.00000  Uiso   1.00
H431   H     0.96274   0.42754   0.24524   0.00000  Uiso   1.00
H432   H     0.70413   0.57312   0.25271   0.00000  Uiso   1.00
N433   N     0.83333   0.61907   0.25000   0.00000  Uiso   1.00
N434   N     0.83333   0.38093   0.25000   0.00000  Uiso   1.00
O435   O     0.77226   0.53821   0.24999   0.00000  Uiso   1.00
O436   O     0.89441   0.46179   0.25000   0.00000  Uiso   1.00
O437   O     0.89441   0.53821   0.25000   0.00000  Uiso   1.00
O438   O     0.77226   0.46179   0.24999   0.00000  Uiso   1.00
O439   O     0.83333   0.53823   0.18392   0.00000  Uiso   1.00
O440   O     0.83334   0.46177   0.31607   0.00000  Uiso   1.00
O441   O     0.83334   0.53823   0.31607   0.00000  Uiso   1.00
O442   O     0.83333   0.46177   0.18392   0.00000  Uiso   1.00
Zn443  Zn    0.83333   0.55104   0.25000   0.00000  Uiso   1.00
Zn444  Zn    0.83333   0.44896   0.25000   0.00000  Uiso   1.00
N445   N     0.87469   0.38263   0.31745   0.00000  Uiso   1.00
H446   H     0.86298   0.38066   0.34935   0.00000  Uiso   1.00
C447   C     0.91959   0.38049   0.31582   0.00000  Uiso   1.00
H448   H     0.93182   0.35865   0.34286   0.00000  Uiso   1.00
H449   H     0.93243   0.41470   0.32134   0.00000  Uiso   1.00
H450   H     0.93051   0.36722   0.28297   0.00000  Uiso   1.00
N451   N     0.79266   0.61748   0.18181   0.00000  Uiso   1.00
H452   H     0.76077   0.61948   0.18378   0.00000  Uiso   1.00
C453   C     0.80843   0.61992   0.13659   0.00000  Uiso   1.00
H454   H     0.79512   0.64899   0.11866   0.00000  Uiso   1.00
H455   H     0.79861   0.58944   0.11756   0.00000  Uiso   1.00
H456   H     0.84293   0.62184   0.13678   0.00000  Uiso   1.00
N457   N     0.79275   0.38133   0.18225   0.00000  Uiso   1.00
H458   H     0.80763   0.38185   0.15188   0.00000  Uiso   1.00
C459   C     0.74786   0.37889   0.18011   0.00000  Uiso   1.00
H460   H     0.73775   0.35759   0.15118   0.00000  Uiso   1.00
H461   H     0.73519   0.41312   0.17510   0.00000  Uiso   1.00
H462   H     0.73486   0.36494   0.21139   0.00000  Uiso   1.00
N463   N     0.85806   0.62198   0.32680   0.00000  Uiso   1.00
H464   H     0.88620   0.63051   0.34131   0.00000  Uiso   1.00
C465   C     0.82390   0.62571   0.35807   0.00000  Uiso   1.00
H466   H     0.81617   0.66130   0.36550   0.00000  Uiso   1.00
H467   H     0.83236   0.60971   0.39022   0.00000  Uiso   1.00
H468   H     0.79567   0.60902   0.34398   0.00000  Uiso   1.00
C469   C     0.08671   0.83338   0.25026   0.00000  Uiso   1.00
C470   C     0.24662   0.83337   0.24973   0.00000  Uiso   1.00
C471   C     0.11616   0.77258   0.02174   0.00000  Uiso   1.00
C472   C     0.22293   0.88938   0.47821   0.00000  Uiso   1.00
C473   C     0.02124   0.79270   0.24926   0.00000  Uiso   1.00
C474   C     0.31204   0.87452   0.25133   0.00000  Uiso   1.00
C475   C     0.31208   0.79273   0.24771   0.00000  Uiso   1.00
C476   C     0.02132   0.87453   0.25156   0.00000  Uiso   1.00
C477   C     0.29083   0.83356   0.24944   0.00000  Uiso   1.00
C478   C     0.04251   0.83355   0.25052   0.00000  Uiso   1.00
C479   C     0.18610   0.69135   0.28357   0.00000  Uiso   1.00
C480   C     0.14788   0.97552   0.21567   0.00000  Uiso   1.00
C481   C     0.14669   0.69045   0.21661   0.00000  Uiso   1.00
C482   C     0.18296   0.97687   0.28554   0.00000  Uiso   1.00
C483   C     0.16693   0.83305   0.16353   0.00000  Uiso   1.00
C484   C     0.16704   0.83345   0.33647   0.00000  Uiso   1.00
C485   C     0.19551   0.86094   0.40761   0.00000  Uiso   1.00
C486   C     0.14206   0.80254   0.09225   0.00000  Uiso   1.00
C487   C     0.16781   0.83307   0.38424   0.00000  Uiso   1.00
C488   C     0.16805   0.83219   0.11576   0.00000  Uiso   1.00
C489   C     0.14191   0.80318   0.40620   0.00000  Uiso   1.00
C490   C     0.19519   0.86083   0.09389   0.00000  Uiso   1.00
C491   C     0.14242   0.80206   0.45256   0.00000  Uiso   1.00
C492   C     0.19606   0.86057   0.04747   0.00000  Uiso   1.00
C493   C     0.16944   0.83117   0.47666   0.00000  Uiso   1.00
C494   C     0.16944   0.83106   0.02332   0.00000  Uiso   1.00
C495   C     0.19623   0.86063   0.45406   0.00000  Uiso   1.00
C496   C     0.14249   0.80174   0.04587   0.00000  Uiso   1.00
C497   C     0.11613   0.77274   0.47513   0.00000  Uiso   1.00
C498   C     0.22279   0.88941   0.02486   0.00000  Uiso   1.00
H499   H     0.21642   0.88265   0.38955   0.00000  Uiso   1.00
H500   H     0.12091   0.78099   0.11009   0.00000  Uiso   1.00
H501   H     0.12106   0.78134   0.38711   0.00000  Uiso   1.00
H502   H     0.21550   0.88314   0.11309   0.00000  Uiso   1.00
H503   H     0.09542   0.75024   0.45676   0.00000  Uiso   1.00
H504   H     0.24333   0.91207   0.04324   0.00000  Uiso   1.00
H505   H     0.09550   0.74995   0.03891   0.00000  Uiso   1.00
H506   H     0.24356   0.91203   0.46104   0.00000  Uiso   1.00
H507   H     0.03722   0.76078   0.24934   0.00000  Uiso   1.00
H508   H     0.29591   0.90645   0.25260   0.00000  Uiso   1.00
H509   H     0.29607   0.76087   0.24524   0.00000  Uiso   1.00
H510   H     0.03747   0.90645   0.25271   0.00000  Uiso   1.00
N511   N     0.16667   0.95240   0.25000   0.00000  Uiso   1.00
N512   N     0.16667   0.71427   0.25000   0.00000  Uiso   1.00
O513   O     0.10559   0.87154   0.24999   0.00000  Uiso   1.00
O514   O     0.22774   0.79513   0.25000   0.00000  Uiso   1.00
O515   O     0.22774   0.87154   0.25000   0.00000  Uiso   1.00
O516   O     0.10559   0.79513   0.24999   0.00000  Uiso   1.00
O517   O     0.16666   0.87156   0.18392   0.00000  Uiso   1.00
O518   O     0.16667   0.79511   0.31607   0.00000  Uiso   1.00
O519   O     0.16667   0.87156   0.31607   0.00000  Uiso   1.00
O520   O     0.16666   0.79511   0.18392   0.00000  Uiso   1.00
Zn521  Zn    0.16667   0.88437   0.25000   0.00000  Uiso   1.00
Zn522  Zn    0.16667   0.78229   0.25000   0.00000  Uiso   1.00
N523   N     0.20802   0.71597   0.31745   0.00000  Uiso   1.00
H524   H     0.19631   0.71399   0.34935   0.00000  Uiso   1.00
C525   C     0.25293   0.71382   0.31582   0.00000  Uiso   1.00
H526   H     0.26515   0.69198   0.34286   0.00000  Uiso   1.00
H527   H     0.26577   0.74803   0.32134   0.00000  Uiso   1.00
H528   H     0.26384   0.70055   0.28297   0.00000  Uiso   1.00
N529   N     0.12600   0.95081   0.18181   0.00000  Uiso   1.00
H530   H     0.09410   0.95281   0.18378   0.00000  Uiso   1.00
C531   C     0.14176   0.95326   0.13659   0.00000  Uiso   1.00
H532   H     0.12845   0.98233   0.11866   0.00000  Uiso   1.00
H533   H     0.13194   0.92277   0.11756   0.00000  Uiso   1.00
H534   H     0.17626   0.95517   0.13678   0.00000  Uiso   1.00
N535   N     0.12609   0.71466   0.18225   0.00000  Uiso   1.00
H536   H     0.14097   0.71519   0.15188   0.00000  Uiso   1.00
C537   C     0.08119   0.71222   0.18011   0.00000  Uiso   1.00
H538   H     0.07108   0.69092   0.15118   0.00000  Uiso   1.00
H539   H     0.06852   0.74645   0.17510   0.00000  Uiso   1.00
H540   H     0.06819   0.69827   0.21139   0.00000  Uiso   1.00
N541   N     0.19139   0.95531   0.32680   0.00000  Uiso   1.00
H542   H     0.21953   0.96385   0.34131   0.00000  Uiso   1.00
C543   C     0.15723   0.95904   0.35807   0.00000  Uiso   1.00
H544   H     0.14951   0.99463   0.36550   0.00000  Uiso   1.00
H545   H     0.16569   0.94304   0.39022   0.00000  Uiso   1.00
H546   H     0.12900   0.94235   0.34398   0.00000  Uiso   1.00
C547   C     0.42005   0.83338   0.25026   0.00000  Uiso   1.00
C548   C     0.57996   0.83337   0.24973   0.00000  Uiso   1.00
C549   C     0.44950   0.77258   0.02174   0.00000  Uiso   1.00
C550   C     0.55626   0.88938   0.47821   0.00000  Uiso   1.00
C551   C     0.35457   0.79270   0.24926   0.00000  Uiso   1.00
C552   C     0.64537   0.87452   0.25133   0.00000  Uiso   1.00
C553   C     0.64541   0.79273   0.24771   0.00000  Uiso   1.00
C554   C     0.35465   0.87453   0.25156   0.00000  Uiso   1.00
C555   C     0.62416   0.83356   0.24944   0.00000  Uiso   1.00
C556   C     0.37584   0.83355   0.25052   0.00000  Uiso   1.00
C557   C     0.51944   0.69135   0.28357   0.00000  Uiso   1.00
C558   C     0.48121   0.97552   0.21567   0.00000  Uiso   1.00
C559   C     0.48002   0.69045   0.21661   0.00000  Uiso   1.00
C560   C     0.51629   0.97687   0.28554   0.00000  Uiso   1.00
C561   C     0.50026   0.83305   0.16353   0.00000  Uiso   1.00
C562   C     0.50037   0.83345   0.33647   0.00000  Uiso   1.00
C563   C     0.52885   0.86094   0.40761   0.00000  Uiso   1.00
C564   C     0.47539   0.80254   0.09225   0.00000  Uiso   1.00
C565   C     0.50115   0.83307   0.38424   0.00000  Uiso   1.00
C566   C     0.50138   0.83219   0.11576   0.00000  Uiso   1.00
C567   C     0.47524   0.80318   0.40620   0.00000  Uiso   1.00
C568   C     0.52853   0.86083   0.09389   0.00000  Uiso   1.00
C569   C     0.47575   0.80206   0.45256   0.00000  Uiso   1.00
C570   C     0.52940   0.86057   0.04747   0.00000  Uiso   1.00
C571   C     0.50277   0.83117   0.47666   0.00000  Uiso   1.00
C572   C     0.50277   0.83106   0.02332   0.00000  Uiso   1.00
C573   C     0.52956   0.86063   0.45406   0.00000  Uiso   1.00
C574   C     0.47582   0.80174   0.04587   0.00000  Uiso   1.00
C575   C     0.44946   0.77274   0.47513   0.00000  Uiso   1.00
C576   C     0.55612   0.88941   0.02486   0.00000  Uiso   1.00
H577   H     0.54975   0.88265   0.38955   0.00000  Uiso   1.00
H578   H     0.45424   0.78099   0.11009   0.00000  Uiso   1.00
H579   H     0.45439   0.78134   0.38711   0.00000  Uiso   1.00
H580   H     0.54884   0.88314   0.11309   0.00000  Uiso   1.00
H581   H     0.42875   0.75024   0.45676   0.00000  Uiso   1.00
H582   H     0.57667   0.91207   0.04324   0.00000  Uiso   1.00
H583   H     0.42883   0.74995   0.03891   0.00000  Uiso   1.00
H584   H     0.57690   0.91203   0.46104   0.00000  Uiso   1.00
H585   H     0.37055   0.76078   0.24934   0.00000  Uiso   1.00
H586   H     0.62924   0.90645   0.25260   0.00000  Uiso   1.00
H587   H     0.62941   0.76087   0.24524   0.00000  Uiso   1.00
H588   H     0.37080   0.90645   0.25271   0.00000  Uiso   1.00
N589   N     0.50000   0.95240   0.25000   0.00000  Uiso   1.00
N590   N     0.50000   0.71427   0.25000   0.00000  Uiso   1.00
O591   O     0.43892   0.87154   0.24999   0.00000  Uiso   1.00
O592   O     0.56108   0.79513   0.25000   0.00000  Uiso   1.00
O593   O     0.56108   0.87154   0.25000   0.00000  Uiso   1.00
O594   O     0.43892   0.79513   0.24999   0.00000  Uiso   1.00
O595   O     0.49999   0.87156   0.18392   0.00000  Uiso   1.00
O596   O     0.50001   0.79511   0.31607   0.00000  Uiso   1.00
O597   O     0.50001   0.87156   0.31607   0.00000  Uiso   1.00
O598   O     0.49999   0.79511   0.18392   0.00000  Uiso   1.00
Zn599  Zn    0.50000   0.88437   0.25000   0.00000  Uiso   1.00
Zn600  Zn    0.50000   0.78229   0.25000   0.00000  Uiso   1.00
N601   N     0.54135   0.71597   0.31745   0.00000  Uiso   1.00
H602   H     0.52964   0.71399   0.34935   0.00000  Uiso   1.00
C603   C     0.58626   0.71382   0.31582   0.00000  Uiso   1.00
H604   H     0.59848   0.69198   0.34286   0.00000  Uiso   1.00
H605   H     0.59910   0.74803   0.32134   0.00000  Uiso   1.00
H606   H     0.59717   0.70055   0.28297   0.00000  Uiso   1.00
N607   N     0.45933   0.95081   0.18181   0.00000  Uiso   1.00
H608   H     0.42744   0.95281   0.18378   0.00000  Uiso   1.00
C609   C     0.47509   0.95326   0.13659   0.00000  Uiso   1.00
H610   H     0.46178   0.98233   0.11866   0.00000  Uiso   1.00
H611   H     0.46527   0.92277   0.11756   0.00000  Uiso   1.00
H612   H     0.50960   0.95517   0.13678   0.00000  Uiso   1.00
N613   N     0.45942   0.71466   0.18225   0.00000  Uiso   1.00
H614   H     0.47430   0.71519   0.15188   0.00000  Uiso   1.00
C615   C     0.41453   0.71222   0.18011   0.00000  Uiso   1.00
H616   H     0.40442   0.69092   0.15118   0.00000  Uiso   1.00
H617   H     0.40186   0.74645   0.17510   0.00000  Uiso   1.00
H618   H     0.40153   0.69827   0.21139   0.00000  Uiso   1.00
N619   N     0.52472   0.95531   0.32680   0.00000  Uiso   1.00
H620   H     0.55287   0.96385   0.34131   0.00000  Uiso   1.00
C621   C     0.49056   0.95904   0.35807   0.00000  Uiso   1.00
H622   H     0.48284   0.99463   0.36550   0.00000  Uiso   1.00
H623   H     0.49903   0.94304   0.39022   0.00000  Uiso   1.00
H624   H     0.46233   0.94235   0.34398   0.00000  Uiso   1.00
C625   C     0.75338   0.83338   0.25026   0.00000  Uiso   1.00
C626   C     0.91329   0.83337   0.24973   0.00000  Uiso   1.00
C627   C     0.78283   0.77258   0.02174   0.00000  Uiso   1.00
C628   C     0.88959   0.88938   0.47821   0.00000  Uiso   1.00
C629   C     0.68791   0.79270   0.24926   0.00000  Uiso   1.00
C630   C     0.97871   0.87452   0.25133   0.00000  Uiso   1.00
C631   C     0.97874   0.79273   0.24771   0.00000  Uiso   1.00
C632   C     0.68798   0.87453   0.25156   0.00000  Uiso   1.00
C633   C     0.95749   0.83356   0.24944   0.00000  Uiso   1.00
C634   C     0.70918   0.83355   0.25052   0.00000  Uiso   1.00
C635   C     0.85277   0.69135   0.28357   0.00000  Uiso   1.00
C636   C     0.81455   0.97552   0.21567   0.00000  Uiso   1.00
C637   C     0.81335   0.69045   0.21661   0.00000  Uiso   1.00
C638   C     0.84963   0.97687   0.28554   0.00000  Uiso   1.00
C639   C     0.83360   0.83305   0.16353   0.00000  Uiso   1.00
C640   C     0.83371   0.83345   0.33647   0.00000  Uiso   1.00
C641   C     0.86218   0.86094   0.40761   0.00000  Uiso   1.00
C642   C     0.80873   0.80254   0.09225   0.00000  Uiso   1.00
C643   C     0.83448   0.83307   0.38424   0.00000  Uiso   1.00
C644   C     0.83471   0.83219   0.11576   0.00000  Uiso   1.00
C645   C     0.80857   0.80318   0.40620   0.00000  Uiso   1.00
C646   C     0.86186   0.86083   0.09389   0.00000  Uiso   1.00
C647   C     0.80908   0.80206   0.45256   0.00000  Uiso   1.00
C648   C     0.86273   0.86057   0.04747   0.00000  Uiso   1.00
C649   C     0.83610   0.83117   0.47666   0.00000  Uiso   1.00
C650   C     0.83610   0.83106   0.02332   0.00000  Uiso   1.00
C651   C     0.86289   0.86063   0.45406   0.00000  Uiso   1.00
C652   C     0.80915   0.80174   0.04587   0.00000  Uiso   1.00
C653   C     0.78279   0.77274   0.47513   0.00000  Uiso   1.00
C654   C     0.88946   0.88941   0.02486   0.00000  Uiso   1.00
H655   H     0.88308   0.88265   0.38955   0.00000  Uiso   1.00
H656   H     0.78757   0.78099   0.11009   0.00000  Uiso   1.00
H657   H     0.78772   0.78134   0.38711   0.00000  Uiso   1.00
H658   H     0.88217   0.88314   0.11309   0.00000  Uiso   1.00
H659   H     0.76209   0.75024   0.45676   0.00000  Uiso   1.00
H660   H     0.91000   0.91207   0.04324   0.00000  Uiso   1.00
H661   H     0.76217   0.74995   0.03891   0.00000  Uiso   1.00
H662   H     0.91023   0.91203   0.46104   0.00000  Uiso   1.00
H663   H     0.70389   0.76078   0.24934   0.00000  Uiso   1.00
H664   H     0.96257   0.90645   0.25260   0.00000  Uiso   1.00
H665   H     0.96274   0.76087   0.24524   0.00000  Uiso   1.00
H666   H     0.70413   0.90645   0.25271   0.00000  Uiso   1.00
N667   N     0.83333   0.95240   0.25000   0.00000  Uiso   1.00
N668   N     0.83333   0.71427   0.25000   0.00000  Uiso   1.00
O669   O     0.77226   0.87154   0.24999   0.00000  Uiso   1.00
O670   O     0.89441   0.79513   0.25000   0.00000  Uiso   1.00
O671   O     0.89441   0.87154   0.25000   0.00000  Uiso   1.00
O672   O     0.77226   0.79513   0.24999   0.00000  Uiso   1.00
O673   O     0.83333   0.87156   0.18392   0.00000  Uiso   1.00
O674   O     0.83334   0.79511   0.31607   0.00000  Uiso   1.00
O675   O     0.83334   0.87156   0.31607   0.00000  Uiso   1.00
O676   O     0.83333   0.79511   0.18392   0.00000  Uiso   1.00
Zn677  Zn    0.83333   0.88437   0.25000   0.00000  Uiso   1.00
Zn678  Zn    0.83333   0.78229   0.25000   0.00000  Uiso   1.00
N679   N     0.87469   0.71597   0.31745   0.00000  Uiso   1.00
H680   H     0.86298   0.71399   0.34935   0.00000  Uiso   1.00
C681   C     0.91959   0.71382   0.31582   0.00000  Uiso   1.00
H682   H     0.93182   0.69198   0.34286   0.00000  Uiso   1.00
H683   H     0.93243   0.74803   0.32134   0.00000  Uiso   1.00
H684   H     0.93051   0.70055   0.28297   0.00000  Uiso   1.00
N685   N     0.79266   0.95081   0.18181   0.00000  Uiso   1.00
H686   H     0.76077   0.95281   0.18378   0.00000  Uiso   1.00
C687   C     0.80843   0.95326   0.13659   0.00000  Uiso   1.00
H688   H     0.79512   0.98233   0.11866   0.00000  Uiso   1.00
H689   H     0.79861   0.92277   0.11756   0.00000  Uiso   1.00
H690   H     0.84293   0.95517   0.13678   0.00000  Uiso   1.00
N691   N     0.79275   0.71466   0.18225   0.00000  Uiso   1.00
H692   H     0.80763   0.71519   0.15188   0.00000  Uiso   1.00
C693   C     0.74786   0.71222   0.18011   0.00000  Uiso   1.00
H694   H     0.73775   0.69092   0.15118   0.00000  Uiso   1.00
H695   H     0.73519   0.74645   0.17510   0.00000  Uiso   1.00
H696   H     0.73486   0.69827   0.21139   0.00000  Uiso   1.00
N697   N     0.85806   0.95531   0.32680   0.00000  Uiso   1.00
H698   H     0.88620   0.96385   0.34131   0.00000  Uiso   1.00
C699   C     0.82390   0.95904   0.35807   0.00000  Uiso   1.00
H700   H     0.81617   0.99463   0.36550   0.00000  Uiso   1.00
H701   H     0.83236   0.94304   0.39022   0.00000  Uiso   1.00
H702   H     0.79567   0.94235   0.34398   0.00000  Uiso   1.00
C703   C     0.08671   0.16671   0.75026   0.00000  Uiso   1.00
C704   C     0.24662   0.16670   0.74973   0.00000  Uiso   1.00
C705   C     0.11616   0.10591   0.52174   0.00000  Uiso   1.00
C706   C     0.22293   0.22271   0.97821   0.00000  Uiso   1.00
C707   C     0.02124   0.12604   0.74926   0.00000  Uiso   1.00
C708   C     0.31204   0.20786   0.75133   0.00000  Uiso   1.00
C709   C     0.31208   0.12606   0.74771   0.00000  Uiso   1.00
C710   C     0.02132   0.20786   0.75156   0.00000  Uiso   1.00
C711   C     0.29083   0.16689   0.74944   0.00000  Uiso   1.00
C712   C     0.04251   0.16688   0.75052   0.00000  Uiso   1.00
C713   C     0.18610   0.02468   0.78357   0.00000  Uiso   1.00
C714   C     0.14788   0.30885   0.71567   0.00000  Uiso   1.00
C715   C     0.14669   0.02378   0.71661   0.00000  Uiso   1.00
C716   C     0.18296   0.31020   0.78554   0.00000  Uiso   1.00
C717   C     0.16693   0.16638   0.66353   0.00000  Uiso   1.00
C718   C     0.16704   0.16678   0.83647   0.00000  Uiso   1.00
C719   C     0.19551   0.19428   0.90761   0.00000  Uiso   1.00
C720   C     0.14206   0.13587   0.59225   0.00000  Uiso   1.00
C721   C     0.16781   0.16641   0.88424   0.00000  Uiso   1.00
C722   C     0.16805   0.16552   0.61576   0.00000  Uiso   1.00
C723   C     0.14191   0.13652   0.90620   0.00000  Uiso   1.00
C724   C     0.19519   0.19416   0.59389   0.00000  Uiso   1.00
C725   C     0.14242   0.13539   0.95256   0.00000  Uiso   1.00
C726   C     0.19606   0.19390   0.54747   0.00000  Uiso   1.00
C727   C     0.16944   0.16451   0.97666   0.00000  Uiso   1.00
C728   C     0.16944   0.16439   0.52332   0.00000  Uiso   1.00
C729   C     0.19623   0.19396   0.95406   0.00000  Uiso   1.00
C730   C     0.14249   0.13508   0.54587   0.00000  Uiso   1.00
C731   C     0.11613   0.10607   0.97513   0.00000  Uiso   1.00
C732   C     0.22279   0.22274   0.52486   0.00000  Uiso   1.00
H733   H     0.21642   0.21598   0.88955   0.00000  Uiso   1.00
H734   H     0.12091   0.11432   0.61009   0.00000  Uiso   1.00
H735   H     0.12106   0.11468   0.88711   0.00000  Uiso   1.00
H736   H     0.21550   0.21647   0.61309   0.00000  Uiso   1.00
H737   H     0.09542   0.08358   0.95676   0.00000  Uiso   1.00
H738   H     0.24333   0.24541   0.54324   0.00000  Uiso   1.00
H739   H     0.09550   0.08329   0.53891   0.00000  Uiso   1.00
H740   H     0.24356   0.24536   0.96104   0.00000  Uiso   1.00
H741   H     0.03722   0.09412   0.74934   0.00000  Uiso   1.00
H742   H     0.29591   0.23978   0.75260   0.00000  Uiso   1.00
H743   H     0.29607   0.09421   0.74524   0.00000  Uiso   1.00
H744   H     0.03747   0.23979   0.75271   0.00000  Uiso   1.00
N745   N     0.16667   0.28573   0.75000   0.00000  Uiso   1.00
N746   N     0.16667   0.04760   0.75000   0.00000  Uiso   1.00
O747   O     0.10559   0.20487   0.74999   0.00000  Uiso   1.00
O748   O     0.22774   0.12846   0.75000   0.00000  Uiso   1.00
O749   O     0.22774   0.20487   0.75000   0.00000  Uiso   1.00
O750   O     0.10559   0.12846   0.74999   0.00000  Uiso   1.00
O751   O     0.16666   0.20489   0.68392   0.00000  Uiso   1.00
O752   O     0.16667   0.12844   0.81607   0.00000  Uiso   1.00
O753   O     0.16667   0.20489   0.81607   0.00000  Uiso   1.00
O754   O     0.16666   0.12844   0.68392   0.00000  Uiso   1.00
Zn755  Zn    0.16667   0.21771   0.75000   0.00000  Uiso   1.00
Zn756  Zn    0.16667   0.11563   0.75000   0.00000  Uiso   1.00
N757   N     0.20802   0.04930   0.81745   0.00000  Uiso   1.00
H758   H     0.19631   0.04732   0.84935   0.00000  Uiso   1.00
C759   C     0.25293   0.04716   0.81582   0.00000  Uiso   1.00
H760   H     0.26515   0.02532   0.84286   0.00000  Uiso   1.00
H761   H     0.26577   0.08137   0.82134   0.00000  Uiso   1.00
H762   H     0.26384   0.03388   0.78297   0.00000  Uiso   1.00
N763   N     0.12600   0.28415   0.68181   0.00000  Uiso   1.00
H764   H     0.09410   0.28614   0.68378   0.00000  Uiso   1.00
C765   C     0.14176   0.28659   0.63659   0.00000  Uiso   1.00
H766   H     0.12845   0.31566   0.61866   0.00000  Uiso   1.00
H767   H     0.13194   0.25611   0.61756   0.00000  Uiso   1.00
H768   H     0.17626   0.28851   0.63678   0.00000  Uiso   1.00
N769   N     0.12609   0.04800   0.68225   0.00000  Uiso   1.00
H770   H     0.14097   0.04852   0.65188   0.00000  Uiso   1.00
C771   C     0.08119   0.04555   0.68011   0.00000  Uiso   1.00
H772   H     0.07108   0.02426   0.65118   0.00000  Uiso   1.00
H773   H     0.06852   0.07979   0.67510   0.00000  Uiso   1.00
H774   H     0.06819   0.03161   0.71139   0.00000  Uiso   1.00
N775   N     0.19139   0.28865   0.82680   0.00000  Uiso   1.00
H776   H     0.21953   0.29718   0.84131   0.00000  Uiso   1.00
C777   C     0.15723   0.29238   0.85807   0.00000  Uiso   1.00
H778   H     0.14951   0.32797   0.86550   0.00000  Uiso   1.00
H779   H     0.16569   0.27638   0.89022   0.00000  Uiso   1.00
H780   H     0.12900   0.27568   0.84398   0.00000  Uiso   1.00
C781   C     0.42005   0.16671   0.75026   0.00000  Uiso   1.00
C782   C     0.57996   0.16670   0.74973   0.00000  Uiso   1.00
C783   C     0.44950   0.10591   0.52174   0.00000  Uiso   1.00
C784   C     0.55626   0.22271   0.97821   0.00000  Uiso   1.00
C785   C     0.35457   0.12604   0.74926   0.00000  Uiso   1.00
C786   C     0.64537   0.20786   0.75133   0.00000  Uiso   1.00
C787   C     0.64541   0.12606   0.74771   0.00000  Uiso   1.00
C788   C     0.35465   0.20786   0.75156   0.00000  Uiso   1.00
C789   C     0.62416   0.16689   0.74944   0.00000  Uiso   1.00
C790   C     0.37584   0.16688   0.75052   0.00000  Uiso   1.00
C791   C     0.51944   0.02468   0.78357   0.00000  Uiso   1.00
C792   C     0.48121   0.30885   0.71567   0.00000  Uiso   1.00
C793   C     0.48002   0.02378   0.71661   0.00000  Uiso   1.00
C794   C     0.51629   0.31020   0.78554   0.00000  Uiso   1.00
C795   C     0.50026   0.16638   0.66353   0.00000  Uiso   1.00
C796   C     0.50037   0.16678   0.83647   0.00000  Uiso   1.00
C797   C     0.52885   0.19428   0.90761   0.00000  Uiso   1.00
C798   C     0.47539   0.13587   0.59225   0.00000  Uiso   1.00
C799   C     0.50115   0.16641   0.88424   0.00000  Uiso   1.00
C800   C     0.50138   0.16552   0.61576   0.00000  Uiso   1.00
C801   C     0.47524   0.13652   0.90620   0.00000  Uiso   1.00
C802   C     0.52853   0.19416   0.59389   0.00000  Uiso   1.00
C803   C     0.47575   0.13539   0.95256   0.00000  Uiso   1.00
C804   C     0.52940   0.19390   0.54747   0.00000  Uiso   1.00
C805   C     0.50277   0.16451   0.97666   0.00000  Uiso   1.00
C806   C     0.50277   0.16439   0.52332   0.00000  Uiso   1.00
C807   C     0.52956   0.19396   0.95406   0.00000  Uiso   1.00
C808   C     0.47582   0.13508   0.54587   0.00000  Uiso   1.00
C809   C     0.44946   0.10607   0.97513   0.00000  Uiso   1.00
C810   C     0.55612   0.22274   0.52486   0.00000  Uiso   1.00
H811   H     0.54975   0.21598   0.88955   0.00000  Uiso   1.00
H812   H     0.45424   0.11432   0.61009   0.00000  Uiso   1.00
H813   H     0.45439   0.11468   0.88711   0.00000  Uiso   1.00
H814   H     0.54884   0.21647   0.61309   0.00000  Uiso   1.00
H815   H     0.42875   0.08358   0.95676   0.00000  Uiso   1.00
H816   H     0.57667   0.24541   0.54324   0.00000  Uiso   1.00
H817   H     0.42883   0.08329   0.53891   0.00000  Uiso   1.00
H818   H     0.57690   0.24536   0.96104   0.00000  Uiso   1.00
H819   H     0.37055   0.09412   0.74934   0.00000  Uiso   1.00
H820   H     0.62924   0.23978   0.75260   0.00000  Uiso   1.00
H821   H     0.62941   0.09421   0.74524   0.00000  Uiso   1.00
H822   H     0.37080   0.23979   0.75271   0.00000  Uiso   1.00
N823   N     0.50000   0.28573   0.75000   0.00000  Uiso   1.00
N824   N     0.50000   0.04760   0.75000   0.00000  Uiso   1.00
O825   O     0.43892   0.20487   0.74999   0.00000  Uiso   1.00
O826   O     0.56108   0.12846   0.75000   0.00000  Uiso   1.00
O827   O     0.56108   0.20487   0.75000   0.00000  Uiso   1.00
O828   O     0.43892   0.12846   0.74999   0.00000  Uiso   1.00
O829   O     0.49999   0.20489   0.68392   0.00000  Uiso   1.00
O830   O     0.50001   0.12844   0.81607   0.00000  Uiso   1.00
O831   O     0.50001   0.20489   0.81607   0.00000  Uiso   1.00
O832   O     0.49999   0.12844   0.68392   0.00000  Uiso   1.00
Zn833  Zn    0.50000   0.21771   0.75000   0.00000  Uiso   1.00
Zn834  Zn    0.50000   0.11563   0.75000   0.00000  Uiso   1.00
N835   N     0.54135   0.04930   0.81745   0.00000  Uiso   1.00
H836   H     0.52964   0.04732   0.84935   0.00000  Uiso   1.00
C837   C     0.58626   0.04716   0.81582   0.00000  Uiso   1.00
H838   H     0.59848   0.02532   0.84286   0.00000  Uiso   1.00
H839   H     0.59910   0.08137   0.82134   0.00000  Uiso   1.00
H840   H     0.59717   0.03388   0.78297   0.00000  Uiso   1.00
N841   N     0.45933   0.28415   0.68181   0.00000  Uiso   1.00
H842   H     0.42744   0.28614   0.68378   0.00000  Uiso   1.00
C843   C     0.47509   0.28659   0.63659   0.00000  Uiso   1.00
H844   H     0.46178   0.31566   0.61866   0.00000  Uiso   1.00
H845   H     0.46527   0.25611   0.61756   0.00000  Uiso   1.00
H846   H     0.50960   0.28851   0.63678   0.00000  Uiso   1.00
N847   N     0.45942   0.04800   0.68225   0.00000  Uiso   1.00
H848   H     0.47430   0.04852   0.65188   0.00000  Uiso   1.00
C849   C     0.41453   0.04555   0.68011   0.00000  Uiso   1.00
H850   H     0.40442   0.02426   0.65118   0.00000  Uiso   1.00
H851   H     0.40186   0.07979   0.67510   0.00000  Uiso   1.00
H852   H     0.40153   0.03161   0.71139   0.00000  Uiso   1.00
N853   N     0.52472   0.28865   0.82680   0.00000  Uiso   1.00
H854   H     0.55287   0.29718   0.84131   0.00000  Uiso   1.00
C855   C     0.49056   0.29238   0.85807   0.00000  Uiso   1.00
H856   H     0.48284   0.32797   0.86550   0.00000  Uiso   1.00
H857   H     0.49903   0.27638   0.89022   0.00000  Uiso   1.00
H858   H     0.46233   0.27568   0.84398   0.00000  Uiso   1.00
C859   C     0.75338   0.16671   0.75026   0.00000  Uiso   1.00
C860   C     0.91329   0.16670   0.74973   0.00000  Uiso   1.00
C861   C     0.78283   0.10591   0.52174   0.00000  Uiso   1.00
C862   C     0.88959   0.22271   0.97821   0.00000  Uiso   1.00
C863   C     0.68791   0.12604   0.74926   0.00000  Uiso   1.00
C864   C     0.97871   0.20786   0.75133   0.00000  Uiso   1.00
C865   C     0.97874   0.12606   0.74771   0.00000  Uiso   1.00
C866   C     0.68798   0.20786   0.75156   0.00000  Uiso   1.00
C867   C     0.95749   0.16689   0.74944   0.00000  Uiso   1.00
C868   C     0.70918   0.16688   0.75052   0.00000  Uiso   1.00
C869   C     0.85277   0.02468   0.78357   0.00000  Uiso   1.00
C870   C     0.81455   0.30885   0.71567   0.00000  Uiso   1.00
C871   C     0.81335   0.02378   0.71661   0.00000  Uiso   1.00
C872   C     0.84963   0.31020   0.78554   0.00000  Uiso   1.00
C873   C     0.83360   0.16638   0.66353   0.00000  Uiso   1.00
C874   C     0.83371   0.16678   0.83647   0.00000  Uiso   1.00
C875   C     0.86218   0.19428   0.90761   0.00000  Uiso   1.00
C876   C     0.80873   0.13587   0.59225   0.00000  Uiso   1.00
C877   C     0.83448   0.16641   0.88424   0.00000  Uiso   1.00
C878   C     0.83471   0.16552   0.61576   0.00000  Uiso   1.00
C879   C     0.80857   0.13652   0.90620   0.00000  Uiso   1.00
C880   C     0.86186   0.19416   0.59389   0.00000  Uiso   1.00
C881   C     0.80908   0.13539   0.95256   0.00000  Uiso   1.00
C882   C     0.86273   0.19390   0.54747   0.00000  Uiso   1.00
C883   C     0.83610   0.16451   0.97666   0.00000  Uiso   1.00
C884   C     0.83610   0.16439   0.52332   0.00000  Uiso   1.00
C885   C     0.86289   0.19396   0.95406   0.00000  Uiso   1.00
C886   C     0.80915   0.13508   0.54587   0.00000  Uiso   1.00
C887   C     0.78279   0.10607   0.97513   0.00000  Uiso   1.00
C888   C     0.88946   0.22274   0.52486   0.00000  Uiso   1.00
H889   H     0.88308   0.21598   0.88955   0.00000  Uiso   1.00
H890   H     0.78757   0.11432   0.61009   0.00000  Uiso   1.00
H891   H     0.78772   0.11468   0.88711   0.00000  Uiso   1.00
H892   H     0.88217   0.21647   0.61309   0.00000  Uiso   1.00
H893   H     0.76209   0.08358   0.95676   0.00000  Uiso   1.00
H894   H     0.91000   0.24541   0.54324   0.00000  Uiso   1.00
H895   H     0.76217   0.08329   0.53891   0.00000  Uiso   1.00
H896   H     0.91023   0.24536   0.96104   0.00000  Uiso   1.00
H897   H     0.70389   0.09412   0.74934   0.00000  Uiso   1.00
H898   H     0.96257   0.23978   0.75260   0.00000  Uiso   1.00
H899   H     0.96274   0.09421   0.74524   0.00000  Uiso   1.00
H900   H     0.70413   0.23979   0.75271   0.00000  Uiso   1.00
N901   N     0.83333   0.28573   0.75000   0.00000  Uiso   1.00
N902   N     0.83333   0.04760   0.75000   0.00000  Uiso   1.00
O903   O     0.77226   0.20487   0.74999   0.00000  Uiso   1.00
O904   O     0.89441   0.12846   0.75000   0.00000  Uiso   1.00
O905   O     0.89441   0.20487   0.75000   0.00000  Uiso   1.00
O906   O     0.77226   0.12846   0.74999   0.00000  Uiso   1.00
O907   O     0.83333   0.20489   0.68392   0.00000  Uiso   1.00
O908   O     0.83334   0.12844   0.81607   0.00000  Uiso   1.00
O909   O     0.83334   0.20489   0.81607   0.00000  Uiso   1.00
O910   O     0.83333   0.12844   0.68392   0.00000  Uiso   1.00
Zn911  Zn    0.83333   0.21771   0.75000   0.00000  Uiso   1.00
Zn912  Zn    0.83333   0.11563   0.75000   0.00000  Uiso   1.00
N913   N     0.87469   0.04930   0.81745   0.00000  Uiso   1.00
H914   H     0.86298   0.04732   0.84935   0.00000  Uiso   1.00
C915   C     0.91959   0.04716   0.81582   0.00000  Uiso   1.00
H916   H     0.93182   0.02532   0.84286   0.00000  Uiso   1.00
H917   H     0.93243   0.08137   0.82134   0.00000  Uiso   1.00
H918   H     0.93051   0.03388   0.78297   0.00000  Uiso   1.00
N919   N     0.79266   0.28415   0.68181   0.00000  Uiso   1.00
H920   H     0.76077   0.28614   0.68378   0.00000  Uiso   1.00
C921   C     0.80843   0.28659   0.63659   0.00000  Uiso   1.00
H922   H     0.79512   0.31566   0.61866   0.00000  Uiso   1.00
H923   H     0.79861   0.25611   0.61756   0.00000  Uiso   1.00
H924   H     0.84293   0.28851   0.63678   0.00000  Uiso   1.00
N925   N     0.79275   0.04800   0.68225   0.00000  Uiso   1.00
H926   H     0.80763   0.04852   0.65188   0.00000  Uiso   1.00
C927   C     0.74786   0.04555   0.68011   0.00000  Uiso   1.00
H928   H     0.73775   0.02426   0.65118   0.00000  Uiso   1.00
H929   H     0.73519   0.07979   0.67510   0.00000  Uiso   1.00
H930   H     0.73486   0.03161   0.71139   0.00000  Uiso   1.00
N931   N     0.85806   0.28865   0.82680   0.00000  Uiso   1.00
H932   H     0.88620   0.29718   0.84131   0.00000  Uiso   1.00
C933   C     0.82390   0.29238   0.85807   0.00000  Uiso   1.00
H934   H     0.81617   0.32797   0.86550   0.00000  Uiso   1.00
H935   H     0.83236   0.27638   0.89022   0.00000  Uiso   1.00
H936   H     0.79567   0.27568   0.84398   0.00000  Uiso   1.00
C937   C     0.08671   0.50004   0.75026   0.00000  Uiso   1.00
C938   C     0.24662   0.50004   0.74973   0.00000  Uiso   1.00
C939   C     0.11616   0.43925   0.52174   0.00000  Uiso   1.00
C940   C     0.22293   0.55604   0.97821   0.00000  Uiso   1.00
C941   C     0.02124   0.45937   0.74926   0.00000  Uiso   1.00
C942   C     0.31204   0.54119   0.75133   0.00000  Uiso   1.00
C943   C     0.31208   0.45940   0.74771   0.00000  Uiso   1.00
C944   C     0.02132   0.54119   0.75156   0.00000  Uiso   1.00
C945   C     0.29083   0.50022   0.74944   0.00000  Uiso   1.00
C946   C     0.04251   0.50021   0.75052   0.00000  Uiso   1.00
C947   C     0.18610   0.35801   0.78357   0.00000  Uiso   1.00
C948   C     0.14788   0.64219   0.71567   0.00000  Uiso   1.00
C949   C     0.14669   0.35711   0.71661   0.00000  Uiso   1.00
C950   C     0.18296   0.64354   0.78554   0.00000  Uiso   1.00
C951   C     0.16693   0.49971   0.66353   0.00000  Uiso   1.00
C952   C     0.16704   0.50012   0.83647   0.00000  Uiso   1.00
C953   C     0.19551   0.52761   0.90761   0.00000  Uiso   1.00
C954   C     0.14206   0.46920   0.59225   0.00000  Uiso   1.00
C955   C     0.16781   0.49974   0.88424   0.00000  Uiso   1.00
C956   C     0.16805   0.49886   0.61576   0.00000  Uiso   1.00
C957   C     0.14191   0.46985   0.90620   0.00000  Uiso   1.00
C958   C     0.19519   0.52750   0.59389   0.00000  Uiso   1.00
C959   C     0.14242   0.46872   0.95256   0.00000  Uiso   1.00
C960   C     0.19606   0.52724   0.54747   0.00000  Uiso   1.00
C961   C     0.16944   0.49784   0.97666   0.00000  Uiso   1.00
C962   C     0.16944   0.49772   0.52332   0.00000  Uiso   1.00
C963   C     0.19623   0.52729   0.95406   0.00000  Uiso   1.00
C964   C     0.14249   0.46841   0.54587   0.00000  Uiso   1.00
C965   C     0.11613   0.43940   0.97513   0.00000  Uiso   1.00
C966   C     0.22279   0.55608   0.52486   0.00000  Uiso   1.00
H967   H     0.21642   0.54931   0.88955   0.00000  Uiso   1.00
H968   H     0.12091   0.44765   0.61009   0.00000  Uiso   1.00
H969   H     0.12106   0.44801   0.88711   0.00000  Uiso   1.00
H970   H     0.21550   0.54980   0.61309   0.00000  Uiso   1.00
H971   H     0.09542   0.41691   0.95676   0.00000  Uiso   1.00
H972   H     0.24333   0.57874   0.54324   0.00000  Uiso   1.00
H973   H     0.09550   0.41662   0.53891   0.00000  Uiso   1.00
H974   H     0.24356   0.57869   0.96104   0.00000  Uiso   1.00
H975   H     0.03722   0.42745   0.74934   0.00000  Uiso   1.00
H976   H     0.29591   0.57311   0.75260   0.00000  Uiso   1.00
H977   H     0.29607   0.42754   0.74524   0.00000  Uiso   1.00
H978   H     0.03747   0.57312   0.75271   0.00000  Uiso   1.00
N979   N     0.16667   0.61907   0.75000   0.00000  Uiso   1.00
N980   N     0.16667   0.38093   0.75000   0.00000  Uiso   1.00
O981   O     0.10559   0.53821   0.74999   0.00000  Uiso   1.00
O982   O     0.22774   0.46179   0.75000   0.00000  Uiso   1.00
O983   O     0.22774   0.53821   0.75000   0.00000  Uiso   1.00
O984   O     0.10559   0.46179   0.74999   0.00000  Uiso   1.00
O985   O     0.16666   0.53823   0.68392   0.00000  Uiso   1.00
O986   O     0.16667   0.46177   0.81607   0.00000  Uiso   1.00
O987   O     0.16667   0.53823   0.81607   0.00000  Uiso   1.00
O988   O     0.16666   0.46177   0.68392   0.00000  Uiso   1.00
Zn989  Zn    0.16667   0.55104   0.75000   0.00000  Uiso   1.00
Zn990  Zn    0.16667   0.44896   0.75000   0.00000  Uiso   1.00
N991   N     0.20802   0.38263   0.81745   0.00000  Uiso   1.00
H992   H     0.19631   0.38066   0.84935   0.00000  Uiso   1.00
C993   C     0.25293   0.38049   0.81582   0.00000  Uiso   1.00
H994   H     0.26515   0.35865   0.84286   0.00000  Uiso   1.00
H995   H     0.26577   0.41470   0.82134   0.00000  Uiso   1.00
H996   H     0.26384   0.36722   0.78297   0.00000  Uiso   1.00
N997   N     0.12600   0.61748   0.68181   0.00000  Uiso   1.00
H998   H     0.09410   0.61948   0.68378   0.00000  Uiso   1.00
C999   C     0.14176   0.61992   0.63659   0.00000  Uiso   1.00
H1000  H     0.12845   0.64899   0.61866   0.00000  Uiso   1.00
H1001  H     0.13194   0.58944   0.61756   0.00000  Uiso   1.00
H1002  H     0.17626   0.62184   0.63678   0.00000  Uiso   1.00
N1003  N     0.12609   0.38133   0.68225   0.00000  Uiso   1.00
H1004  H     0.14097   0.38185   0.65188   0.00000  Uiso   1.00
C1005  C     0.08119   0.37889   0.68011   0.00000  Uiso   1.00
H1006  H     0.07108   0.35759   0.65118   0.00000  Uiso   1.00
H1007  H     0.06852   0.41312   0.67510   0.00000  Uiso   1.00
H1008  H     0.06819   0.36494   0.71139   0.00000  Uiso   1.00
N1009  N     0.19139   0.62198   0.82680   0.00000  Uiso   1.00
H1010  H     0.21953   0.63051   0.84131   0.00000  Uiso   1.00
C1011  C     0.15723   0.62571   0.85807   0.00000  Uiso   1.00
H1012  H     0.14951   0.66130   0.86550   0.00000  Uiso   1.00
H1013  H     0.16569   0.60971   0.89022   0.00000  Uiso   1.00
H1014  H     0.12900   0.60902   0.84398   0.00000  Uiso   1.00
C1015  C     0.42005   0.50004   0.75026   0.00000  Uiso   1.00
C1016  C     0.57996   0.50004   0.74973   0.00000  Uiso   1.00
C1017  C     0.44950   0.43925   0.52174   0.00000  Uiso   1.00
C1018  C     0.55626   0.55604   0.97821   0.00000  Uiso   1.00
C1019  C     0.35457   0.45937   0.74926   0.00000  Uiso   1.00
C1020  C     0.64537   0.54119   0.75133   0.00000  Uiso   1.00
C1021  C     0.64541   0.45940   0.74771   0.00000  Uiso   1.00
C1022  C     0.35465   0.54119   0.75156   0.00000  Uiso   1.00
C1023  C     0.62416   0.50022   0.74944   0.00000  Uiso   1.00
C1024  C     0.37584   0.50021   0.75052   0.00000  Uiso   1.00
C1025  C     0.51944   0.35801   0.78357   0.00000  Uiso   1.00
C1026  C     0.48121   0.64219   0.71567   0.00000  Uiso   1.00
C1027  C     0.48002   0.35711   0.71661   0.00000  Uiso   1.00
C1028  C     0.51629   0.64354   0.78554   0.00000  Uiso   1.00
C1029  C     0.50026   0.49971   0.66353   0.00000  Uiso   1.00
C1030  C     0.50037   0.50012   0.83647   0.00000  Uiso   1.00
C1031  C     0.52885   0.52761   0.90761   0.00000  Uiso   1.00
C1032  C     0.47539   0.46920   0.59225   0.00000  Uiso   1.00
C1033  C     0.50115   0.49974   0.88424   0.00000  Uiso   1.00
C1034  C     0.50138   0.49886   0.61576   0.00000  Uiso   1.00
C1035  C     0.47524   0.46985   0.90620   0.00000  Uiso   1.00
C1036  C     0.52853   0.52750   0.59389   0.00000  Uiso   1.00
C1037  C     0.47575   0.46872   0.95256   0.00000  Uiso   1.00
C1038  C     0.52940   0.52724   0.54747   0.00000  Uiso   1.00
C1039  C     0.50277   0.49784   0.97666   0.00000  Uiso   1.00
C1040  C     0.50277   0.49772   0.52332   0.00000  Uiso   1.00
C1041  C     0.52956   0.52729   0.95406   0.00000  Uiso   1.00
C1042  C     0.47582   0.46841   0.54587   0.00000  Uiso   1.00
C1043  C     0.44946   0.43940   0.97513   0.00000  Uiso   1.00
C1044  C     0.55612   0.55608   0.52486   0.00000  Uiso   1.00
H1045  H     0.54975   0.54931   0.88955   0.00000  Uiso   1.00
H1046  H     0.45424   0.44765   0.61009   0.00000  Uiso   1.00
H1047  H     0.45439   0.44801   0.88711   0.00000  Uiso   1.00
H1048  H     0.54884   0.54980   0.61309   0.00000  Uiso   1.00
H1049  H     0.42875   0.41691   0.95676   0.00000  Uiso   1.00
H1050  H     0.57667   0.57874   0.54324   0.00000  Uiso   1.00
H1051  H     0.42883   0.41662   0.53891   0.00000  Uiso   1.00
H1052  H     0.57690   0.57869   0.96104   0.00000  Uiso   1.00
H1053  H     0.37055   0.42745   0.74934   0.00000  Uiso   1.00
H1054  H     0.62924   0.57311   0.75260   0.00000  Uiso   1.00
H1055  H     0.62941   0.42754   0.74524   0.00000  Uiso   1.00
H1056  H     0.37080   0.57312   0.75271   0.00000  Uiso   1.00
N1057  N     0.50000   0.61907   0.75000   0.00000  Uiso   1.00
N1058  N     0.50000   0.38093   0.75000   0.00000  Uiso   1.00
O1059  O     0.43892   0.53821   0.74999   0.00000  Uiso   1.00
O1060  O     0.56108   0.46179   0.75000   0.00000  Uiso   1.00
O1061  O     0.56108   0.53821   0.75000   0.00000  Uiso   1.00
O1062  O     0.43892   0.46179   0.74999   0.00000  Uiso   1.00
O1063  O     0.49999   0.53823   0.68392   0.00000  Uiso   1.00
O1064  O     0.50001   0.46177   0.81607   0.00000  Uiso   1.00
O1065  O     0.50001   0.53823   0.81607   0.00000  Uiso   1.00
O1066  O     0.49999   0.46177   0.68392   0.00000  Uiso   1.00
Zn1067 Zn    0.50000   0.55104   0.75000   0.00000  Uiso   1.00
Zn1068 Zn    0.50000   0.44896   0.75000   0.00000  Uiso   1.00
N1069  N     0.54135   0.38263   0.81745   0.00000  Uiso   1.00
H1070  H     0.52964   0.38066   0.84935   0.00000  Uiso   1.00
C1071  C     0.58626   0.38049   0.81582   0.00000  Uiso   1.00
H1072  H     0.59848   0.35865   0.84286   0.00000  Uiso   1.00
H1073  H     0.59910   0.41470   0.82134   0.00000  Uiso   1.00
H1074  H     0.59717   0.36722   0.78297   0.00000  Uiso   1.00
N1075  N     0.45933   0.61748   0.68181   0.00000  Uiso   1.00
H1076  H     0.42744   0.61948   0.68378   0.00000  Uiso   1.00
C1077  C     0.47509   0.61992   0.63659   0.00000  Uiso   1.00
H1078  H     0.46178   0.64899   0.61866   0.00000  Uiso   1.00
H1079  H     0.46527   0.58944   0.61756   0.00000  Uiso   1.00
H1080  H     0.50960   0.62184   0.63678   0.00000  Uiso   1.00
N1081  N     0.45942   0.38133   0.68225   0.00000  Uiso   1.00
H1082  H     0.47430   0.38185   0.65188   0.00000  Uiso   1.00
C1083  C     0.41453   0.37889   0.68011   0.00000  Uiso   1.00
H1084  H     0.40442   0.35759   0.65118   0.00000  Uiso   1.00
H1085  H     0.40186   0.41312   0.67510   0.00000  Uiso   1.00
H1086  H     0.40153   0.36494   0.71139   0.00000  Uiso   1.00
N1087  N     0.52472   0.62198   0.82680   0.00000  Uiso   1.00
H1088  H     0.55287   0.63051   0.84131   0.00000  Uiso   1.00
C1089  C     0.49056   0.62571   0.85807   0.00000  Uiso   1.00
H1090  H     0.48284   0.66130   0.86550   0.00000  Uiso   1.00
H1091  H     0.49903   0.60971   0.89022   0.00000  Uiso   1.00
H1092  H     0.46233   0.60902   0.84398   0.00000  Uiso   1.00
C1093  C     0.75338   0.50004   0.75026   0.00000  Uiso   1.00
C1094  C     0.91329   0.50004   0.74973   0.00000  Uiso   1.00
C1095  C     0.78283   0.43925   0.52174   0.00000  Uiso   1.00
C1096  C     0.88959   0.55604   0.97821   0.00000  Uiso   1.00
C1097  C     0.68791   0.45937   0.74926   0.00000  Uiso   1.00
C1098  C     0.97871   0.54119   0.75133   0.00000  Uiso   1.00
C1099  C     0.97874   0.45940   0.74771   0.00000  Uiso   1.00
C1100  C     0.68798   0.54119   0.75156   0.00000  Uiso   1.00
C1101  C     0.95749   0.50022   0.74944   0.00000  Uiso   1.00
C1102  C     0.70918   0.50021   0.75052   0.00000  Uiso   1.00
C1103  C     0.85277   0.35801   0.78357   0.00000  Uiso   1.00
C1104  C     0.81455   0.64219   0.71567   0.00000  Uiso   1.00
C1105  C     0.81335   0.35711   0.71661   0.00000  Uiso   1.00
C1106  C     0.84963   0.64354   0.78554   0.00000  Uiso   1.00
C1107  C     0.83360   0.49971   0.66353   0.00000  Uiso   1.00
C1108  C     0.83371   0.50012   0.83647   0.00000  Uiso   1.00
C1109  C     0.86218   0.52761   0.90761   0.00000  Uiso   1.00
C1110  C     0.80873   0.46920   0.59225   0.00000  Uiso   1.00
C1111  C     0.83448   0.49974   0.88424   0.00000  Uiso   1.00
C1112  C     0.83471   0.49886   0.61576   0.00000  Uiso   1.00
C1113  C     0.80857   0.46985   0.90620   0.00000  Uiso   1.00
C1114  C     0.86186   0.52750   0.59389   0.00000  Uiso   1.00
C1115  C     0.80908   0.46872   0.95256   0.00000  Uiso   1.00
C1116  C     0.86273   0.52724   0.54747   0.00000  Uiso   1.00
C1117  C     0.83610   0.49784   0.97666   0.00000  Uiso   1.00
C1118  C     0.83610   0.49772   0.52332   0.00000  Uiso   1.00
C1119  C     0.86289   0.52729   0.95406   0.00000  Uiso   1.00
C1120  C     0.80915   0.46841   0.54587   0.00000  Uiso   1.00
C1121  C     0.78279   0.43940   0.97513   0.00000  Uiso   1.00
C1122  C     0.88946   0.55608   0.52486   0.00000  Uiso   1.00
H1123  H     0.88308   0.54931   0.88955   0.00000  Uiso   1.00
H1124  H     0.78757   0.44765   0.61009   0.00000  Uiso   1.00
H1125  H     0.78772   0.44801   0.88711   0.00000  Uiso   1.00
H1126  H     0.88217   0.54980   0.61309   0.00000  Uiso   1.00
H1127  H     0.76209   0.41691   0.95676   0.00000  Uiso   1.00
H1128  H     0.91000   0.57874   0.54324   0.00000  Uiso   1.00
H1129  H     0.76217   0.41662   0.53891   0.00000  Uiso   1.00
H1130  H     0.91023   0.57869   0.96104   0.00000  Uiso   1.00
H1131  H     0.70389   0.42745   0.74934   0.00000  Uiso   1.00
H1132  H     0.96257   0.57311   0.75260   0.00000  Uiso   1.00
H1133  H     0.96274   0.42754   0.74524   0.00000  Uiso   1.00
H1134  H     0.70413   0.57312   0.75271   0.00000  Uiso   1.00
N1135  N     0.83333   0.61907   0.75000   0.00000  Uiso   1.00
N1136  N     0.83333   0.38093   0.75000   0.00000  Uiso   1.00
O1137  O     0.77226   0.53821   0.74999   0.00000  Uiso   1.00
O1138  O     0.89441   0.46179   0.75000   0.00000  Uiso   1.00
O1139  O     0.89441   0.53821   0.75000   0.00000  Uiso   1.00
O1140  O     0.77226   0.46179   0.74999   0.00000  Uiso   1.00
O1141  O     0.83333   0.53823   0.68392   0.00000  Uiso   1.00
O1142  O     0.83334   0.46177   0.81607   0.00000  Uiso   1.00
O1143  O     0.83334   0.53823   0.81607   0.00000  Uiso   1.00
O1144  O     0.83333   0.46177   0.68392   0.00000  Uiso   1.00
Zn1145 Zn    0.83333   0.55104   0.75000   0.00000  Uiso   1.00
Zn1146 Zn    0.83333   0.44896   0.75000   0.00000  Uiso   1.00
N1147  N     0.87469   0.38263   0.81745   0.00000  Uiso   1.00
H1148  H     0.86298   0.38066   0.84935   0.00000  Uiso   1.00
C1149  C     0.91959   0.38049   0.81582   0.00000  Uiso   1.00
H1150  H     0.93182   0.35865   0.84286   0.00000  Uiso   1.00
H1151  H     0.93243   0.41470   0.82134   0.00000  Uiso   1.00
H1152  H     0.93051   0.36722   0.78297   0.00000  Uiso   1.00
N1153  N     0.79266   0.61748   0.68181   0.00000  Uiso   1.00
H1154  H     0.76077   0.61948   0.68378   0.00000  Uiso   1.00
C1155  C     0.80843   0.61992   0.63659   0.00000  Uiso   1.00
H1156  H     0.79512   0.64899   0.61866   0.00000  Uiso   1.00
H1157  H     0.79861   0.58944   0.61756   0.00000  Uiso   1.00
H1158  H     0.84293   0.62184   0.63678   0.00000  Uiso   1.00
N1159  N     0.79275   0.38133   0.68225   0.00000  Uiso   1.00
H1160  H     0.80763   0.38185   0.65188   0.00000  Uiso   1.00
C1161  C     0.74786   0.37889   0.68011   0.00000  Uiso   1.00
H1162  H     0.73775   0.35759   0.65118   0.00000  Uiso   1.00
H1163  H     0.73519   0.41312   0.67510   0.00000  Uiso   1.00
H1164  H     0.73486   0.36494   0.71139   0.00000  Uiso   1.00
N1165  N     0.85806   0.62198   0.82680   0.00000  Uiso   1.00
H1166  H     0.88620   0.63051   0.84131   0.00000  Uiso   1.00
C1167  C     0.82390   0.62571   0.85807   0.00000  Uiso   1.00
H1168  H     0.81617   0.66130   0.86550   0.00000  Uiso   1.00
H1169  H     0.83236   0.60971   0.89022   0.00000  Uiso   1.00
H1170  H     0.79567   0.60902   0.84398   0.00000  Uiso   1.00
C1171  C     0.08671   0.83338   0.75026   0.00000  Uiso   1.00
C1172  C     0.24662   0.83337   0.74973   0.00000  Uiso   1.00
C1173  C     0.11616   0.77258   0.52174   0.00000  Uiso   1.00
C1174  C     0.22293   0.88938   0.97821   0.00000  Uiso   1.00
C1175  C     0.02124   0.79270   0.74926   0.00000  Uiso   1.00
C1176  C     0.31204   0.87452   0.75133   0.00000  Uiso   1.00
C1177  C     0.31208   0.79273   0.74771   0.00000  Uiso   1.00
C1178  C     0.02132   0.87453   0.75156   0.00000  Uiso   1.00
C1179  C     0.29083   0.83356   0.74944   0.00000  Uiso   1.00
C1180  C     0.04251   0.83355   0.75052   0.00000  Uiso   1.00
C1181  C     0.18610   0.69135   0.78357   0.00000  Uiso   1.00
C1182  C     0.14788   0.97552   0.71567   0.00000  Uiso   1.00
C1183  C     0.14669   0.69045   0.71661   0.00000  Uiso   1.00
C1184  C     0.18296   0.97687   0.78554   0.00000  Uiso   1.00
C1185  C     0.16693   0.83305   0.66353   0.00000  Uiso   1.00
C1186  C     0.16704   0.83345   0.83647   0.00000  Uiso   1.00
C1187  C     0.19551   0.86094   0.90761   0.00000  Uiso   1.00
C1188  C     0.14206   0.80254   0.59225   0.00000  Uiso   1.00
C1189  C     0.16781   0.83307   0.88424   0.00000  Uiso   1.00
C1190  C     0.16805   0.83219   0.61576   0.00000  Uiso   1.00
C1191  C     0.14191   0.80318   0.90620   0.00000  Uiso   1.00
C1192  C     0.19519   0.86083   0.59389   0.00000  Uiso   1.00
C1193  C     0.14242   0.80206   0.95256   0.00000  Uiso   1.00
C1194  C     0.19606   0.86057   0.54747   0.00000  Uiso   1.00
C1195  C     0.16944   0.83117   0.97666   0.00000  Uiso   1.00
C1196  C     0.16944   0.83106   0.52332   0.00000  Uiso   1.00
C1197  C     0.19623   0.86063   0.95406   0.00000  Uiso   1.00
C1198  C     0.14249   0.80174   0.54587   0.00000  Uiso   1.00
C1199  C     0.11613   0.77274   0.97513   0.00000  Uiso   1.00
C1200  C     0.22279   0.88941   0.52486   0.00000  Uiso   1.00
H1201  H     0.21642   0.88265   0.88955   0.00000  Uiso   1.00
H1202  H     0.12091   0.78099   0.61009   0.00000  Uiso   1.00
H1203  H     0.12106   0.78134   0.88711   0.00000  Uiso   1.00
H1204  H     0.21550   0.88314   0.61309   0.00000  Uiso   1.00
H1205  H     0.09542   0.75024   0.95676   0.00000  Uiso   1.00
H1206  H     0.24333   0.91207   0.54324   0.00000  Uiso   1.00
H1207  H     0.09550   0.74995   0.53891   0.00000  Uiso   1.00
H1208  H     0.24356   0.91203   0.96104   0.00000  Uiso   1.00
H1209  H     0.03722   0.76078   0.74934   0.00000  Uiso   1.00
H1210  H     0.29591   0.90645   0.75260   0.00000  Uiso   1.00
H1211  H     0.29607   0.76087   0.74524   0.00000  Uiso   1.00
H1212  H     0.03747   0.90645   0.75271   0.00000  Uiso   1.00
N1213  N     0.16667   0.95240   0.75000   0.00000  Uiso   1.00
N1214  N     0.16667   0.71427   0.75000   0.00000  Uiso   1.00
O1215  O     0.10559   0.87154   0.74999   0.00000  Uiso   1.00
O1216  O     0.22774   0.79513   0.75000   0.00000  Uiso   1.00
O1217  O     0.22774   0.87154   0.75000   0.00000  Uiso   1.00
O1218  O     0.10559   0.79513   0.74999   0.00000  Uiso   1.00
O1219  O     0.16666   0.87156   0.68392   0.00000  Uiso   1.00
O1220  O     0.16667   0.79511   0.81607   0.00000  Uiso   1.00
O1221  O     0.16667   0.87156   0.81607   0.00000  Uiso   1.00
O1222  O     0.16666   0.79511   0.68392   0.00000  Uiso   1.00
Zn1223 Zn    0.16667   0.88437   0.75000   0.00000  Uiso   1.00
Zn1224 Zn    0.16667   0.78229   0.75000   0.00000  Uiso   1.00
N1225  N     0.20802   0.71597   0.81745   0.00000  Uiso   1.00
H1226  H     0.19631   0.71399   0.84935   0.00000  Uiso   1.00
C1227  C     0.25293   0.71382   0.81582   0.00000  Uiso   1.00
H1228  H     0.26515   0.69198   0.84286   0.00000  Uiso   1.00
H1229  H     0.26577   0.74803   0.82134   0.00000  Uiso   1.00
H1230  H     0.26384   0.70055   0.78297   0.00000  Uiso   1.00
N1231  N     0.12600   0.95081   0.68181   0.00000  Uiso   1.00
H1232  H     0.09410   0.95281   0.68378   0.00000  Uiso   1.00
C1233  C     0.14176   0.95326   0.63659   0.00000  Uiso   1.00
H1234  H     0.12845   0.98233   0.61866   0.00000  Uiso   1.00
H1235  H     0.13194   0.92277   0.61756   0.00000  Uiso   1.00
H1236  H     0.17626   0.95517   0.63678   0.00000  Uiso   1.00
N1237  N     0.12609   0.71466   0.68225   0.00000  Uiso   1.00
H1238  H     0.14097   0.71519   0.65188   0.00000  Uiso   1.00
C1239  C     0.08119   0.71222   0.68011   0.00000  Uiso   1.00
H1240  H     0.07108   0.69092   0.65118   0.00000  Uiso   1.00
H1241  H     0.06852   0.74645   0.67510   0.00000  Uiso   1.00
H1242  H     0.06819   0.69827   0.71139   0.00000  Uiso   1.00
N1243  N     0.19139   0.95531   0.82680   0.00000  Uiso   1.00
H1244  H     0.21953   0.96385   0.84131   0.00000  Uiso   1.00
C1245  C     0.15723   0.95904   0.85807   0.00000  Uiso   1.00
H1246  H     0.14951   0.99463   0.86550   0.00000  Uiso   1.00
H1247  H     0.16569   0.94304   0.89022   0.00000  Uiso   1.00
H1248  H     0.12900   0.94235   0.84398   0.00000  Uiso   1.00
C1249  C     0.42005   0.83338   0.75026   0.00000  Uiso   1.00
C1250  C     0.57996   0.83337   0.74973   0.00000  Uiso   1.00
C1251  C     0.44950   0.77258   0.52174   0.00000  Uiso   1.00
C1252  C     0.55626   0.88938   0.97821   0.00000  Uiso   1.00
C1253  C     0.35457   0.79270   0.74926   0.00000  Uiso   1.00
C1254  C     0.64537   0.87452   0.75133   0.00000  Uiso   1.00
C1255  C     0.64541   0.79273   0.74771   0.00000  Uiso   1.00
C1256  C     0.35465   0.87453   0.75156   0.00000  Uiso   1.00
C1257  C     0.62416   0.83356   0.74944   0.00000  Uiso   1.00
C1258  C     0.37584   0.83355   0.75052   0.00000  Uiso   1.00
C1259  C     0.51944   0.69135   0.78357   0.00000  Uiso   1.00
C1260  C     0.48121   0.97552   0.71567   0.00000  Uiso   1.00
C1261  C     0.48002   0.69045   0.71661   0.00000  Uiso   1.00
C1262  C     0.51629   0.97687   0.78554   0.00000  Uiso   1.00
C1263  C     0.50026   0.83305   0.66353   0.00000  Uiso   1.00
C1264  C     0.50037   0.83345   0.83647   0.00000  Uiso   1.00
C1265  C     0.52885   0.86094   0.90761   0.00000  Uiso   1.00
C1266  C     0.47539   0.80254   0.59225   0.00000  Uiso   1.00
C1267  C     0.50115   0.83307   0.88424   0.00000  Uiso   1.00
C1268  C     0.50138   0.83219   0.61576   0.00000  Uiso   1.00
C1269  C     0.47524   0.80318   0.90620   0.00000  Uiso   1.00
C1270  C     0.52853   0.86083   0.59389   0.00000  Uiso   1.00
C1271  C     0.47575   0.80206   0.95256   0.00000  Uiso   1.00
C1272  C     0.52940   0.86057   0.54747   0.00000  Uiso   1.00
C1273  C     0.50277   0.83117   0.97666   0.00000  Uiso   1.00
C1274  C     0.50277   0.83106   0.52332   0.00000  Uiso   1.00
C1275  C     0.52956   0.86063   0.95406   0.00000  Uiso   1.00
C1276  C     0.47582   0.80174   0.54587   0.00000  Uiso   1.00
C1277  C     0.44946   0.77274   0.97513   0.00000  Uiso   1.00
C1278  C     0.55612   0.88941   0.52486   0.00000  Uiso   1.00
H1279  H     0.54975   0.88265   0.88955   0.00000  Uiso   1.00
H1280  H     0.45424   0.78099   0.61009   0.00000  Uiso   1.00
H1281  H     0.45439   0.78134   0.88711   0.00000  Uiso   1.00
H1282  H     0.54884   0.88314   0.61309   0.00000  Uiso   1.00
H1283  H     0.42875   0.75024   0.95676   0.00000  Uiso   1.00
H1284  H     0.57667   0.91207   0.54324   0.00000  Uiso   1.00
H1285  H     0.42883   0.74995   0.53891   0.00000  Uiso   1.00
H1286  H     0.57690   0.91203   0.96104   0.00000  Uiso   1.00
H1287  H     0.37055   0.76078   0.74934   0.00000  Uiso   1.00
H1288  H     0.62924   0.90645   0.75260   0.00000  Uiso   1.00
H1289  H     0.62941   0.76087   0.74524   0.00000  Uiso   1.00
H1290  H     0.37080   0.90645   0.75271   0.00000  Uiso   1.00
N1291  N     0.50000   0.95240   0.75000   0.00000  Uiso   1.00
N1292  N     0.50000   0.71427   0.75000   0.00000  Uiso   1.00
O1293  O     0.43892   0.87154   0.74999   0.00000  Uiso   1.00
O1294  O     0.56108   0.79513   0.75000   0.00000  Uiso   1.00
O1295  O     0.56108   0.87154   0.75000   0.00000  Uiso   1.00
O1296  O     0.43892   0.79513   0.74999   0.00000  Uiso   1.00
O1297  O     0.49999   0.87156   0.68392   0.00000  Uiso   1.00
O1298  O     0.50001   0.79511   0.81607   0.00000  Uiso   1.00
O1299  O     0.50001   0.87156   0.81607   0.00000  Uiso   1.00
O1300  O     0.49999   0.79511   0.68392   0.00000  Uiso   1.00
Zn1301 Zn    0.50000   0.88437   0.75000   0.00000  Uiso   1.00
Zn1302 Zn    0.50000   0.78229   0.75000   0.00000  Uiso   1.00
N1303  N     0.54135   0.71597   0.81745   0.00000  Uiso   1.00
H1304  H     0.52964   0.71399   0.84935   0.00000  Uiso   1.00
C1305  C     0.58626   0.71382   0.81582   0.00000  Uiso   1.00
H1306  H     0.59848   0.69198   0.84286   0.00000  Uiso   1.00
H1307  H     0.59910   0.74803   0.82134   0.00000  Uiso   1.00
H1308  H     0.59717   0.70055   0.78297   0.00000  Uiso   1.00
N1309  N     0.45933   0.95081   0.68181   0.00000  Uiso   1.00
H1310  H     0.42744   0.95281   0.68378   0.00000  Uiso   1.00
C1311  C     0.47509   0.95326   0.63659   0.00000  Uiso   1.00
H1312  H     0.46178   0.98233   0.61866   0.00000  Uiso   1.00
H1313  H     0.46527   0.92277   0.61756   0.00000  Uiso   1.00
H1314  H     0.50960   0.95517   0.63678   0.00000  Uiso   1.00
N1315  N     0.45942   0.71466   0.68225   0.00000  Uiso   1.00
H1316  H     0.47430   0.71519   0.65188   0.00000  Uiso   1.00
C1317  C     0.41453   0.71222   0.68011   0.00000  Uiso   1.00
H1318  H     0.40442   0.69092   0.65118   0.00000  Uiso   1.00
H1319  H     0.40186   0.74645   0.67510   0.00000  Uiso   1.00
H1320  H     0.40153   0.69827   0.71139   0.00000  Uiso   1.00
N1321  N     0.52472   0.95531   0.82680   0.00000  Uiso   1.00
H1322  H     0.55287   0.96385   0.84131   0.00000  Uiso   1.00
C1323  C     0.49056   0.95904   0.85807   0.00000  Uiso   1.00
H1324  H     0.48284   0.99463   0.86550   0.00000  Uiso   1.00
H1325  H     0.49903   0.94304   0.89022   0.00000  Uiso   1.00
H1326  H     0.46233   0.94235   0.84398   0.00000  Uiso   1.00
C1327  C     0.75338   0.83338   0.75026   0.00000  Uiso   1.00
C1328  C     0.91329   0.83337   0.74973   0.00000  Uiso   1.00
C1329  C     0.78283   0.77258   0.52174   0.00000  Uiso   1.00
C1330  C     0.88959   0.88938   0.97821   0.00000  Uiso   1.00
C1331  C     0.68791   0.79270   0.74926   0.00000  Uiso   1.00
C1332  C     0.97871   0.87452   0.75133   0.00000  Uiso   1.00
C1333  C     0.97874   0.79273   0.74771   0.00000  Uiso   1.00
C1334  C     0.68798   0.87453   0.75156   0.00000  Uiso   1.00
C1335  C     0.95749   0.83356   0.74944   0.00000  Uiso   1.00
C1336  C     0.70918   0.83355   0.75052   0.00000  Uiso   1.00
C1337  C     0.85277   0.69135   0.78357   0.00000  Uiso   1.00
C1338  C     0.81455   0.97552   0.71567   0.00000  Uiso   1.00
C1339  C     0.81335   0.69045   0.71661   0.00000  Uiso   1.00
C1340  C     0.84963   0.97687   0.78554   0.00000  Uiso   1.00
C1341  C     0.83360   0.83305   0.66353   0.00000  Uiso   1.00
C1342  C     0.83371   0.83345   0.83647   0.00000  Uiso   1.00
C1343  C     0.86218   0.86094   0.90761   0.00000  Uiso   1.00
C1344  C     0.80873   0.80254   0.59225   0.00000  Uiso   1.00
C1345  C     0.83448   0.83307   0.88424   0.00000  Uiso   1.00
C1346  C     0.83471   0.83219   0.61576   0.00000  Uiso   1.00
C1347  C     0.80857   0.80318   0.90620   0.00000  Uiso   1.00
C1348  C     0.86186   0.86083   0.59389   0.00000  Uiso   1.00
C1349  C     0.80908   0.80206   0.95256   0.00000  Uiso   1.00
C1350  C     0.86273   0.86057   0.54747   0.00000  Uiso   1.00
C1351  C     0.83610   0.83117   0.97666   0.00000  Uiso   1.00
C1352  C     0.83610   0.83106   0.52332   0.00000  Uiso   1.00
C1353  C     0.86289   0.86063   0.95406   0.00000  Uiso   1.00
C1354  C     0.80915   0.80174   0.54587   0.00000  Uiso   1.00
C1355  C     0.78279   0.77274   0.97513   0.00000  Uiso   1.00
C1356  C     0.88946   0.88941   0.52486   0.00000  Uiso   1.00
H1357  H     0.88308   0.88265   0.88955   0.00000  Uiso   1.00
H1358  H     0.78757   0.78099   0.61009   0.00000  Uiso   1.00
H1359  H     0.78772   0.78134   0.88711   0.00000  Uiso   1.00
H1360  H     0.88217   0.88314   0.61309   0.00000  Uiso   1.00
H1361  H     0.76209   0.75024   0.95676   0.00000  Uiso   1.00
H1362  H     0.91000   0.91207   0.54324   0.00000  Uiso   1.00
H1363  H     0.76217   0.74995   0.53891   0.00000  Uiso   1.00
H1364  H     0.91023   0.91203   0.96104   0.00000  Uiso   1.00
H1365  H     0.70389   0.76078   0.74934   0.00000  Uiso   1.00
H1366  H     0.96257   0.90645   0.75260   0.00000  Uiso   1.00
H1367  H     0.96274   0.76087   0.74524   0.00000  Uiso   1.00
H1368  H     0.70413   0.90645   0.75271   0.00000  Uiso   1.00
N1369  N     0.83333   0.95240   0.75000   0.00000  Uiso   1.00
N1370  N     0.83333   0.71427   0.75000   0.00000  Uiso   1.00
O1371  O     0.77226   0.87154   0.74999   0.00000  Uiso   1.00
O1372  O     0.89441   0.79513   0.75000   0.00000  Uiso   1.00
O1373  O     0.89441   0.87154   0.75000   0.00000  Uiso   1.00
O1374  O     0.77226   0.79513   0.74999   0.00000  Uiso   1.00
O1375  O     0.83333   0.87156   0.68392   0.00000  Uiso   1.00
O1376  O     0.83334   0.79511   0.81607   0.00000  Uiso   1.00
O1377  O     0.83334   0.87156   0.81607   0.00000  Uiso   1.00
O1378  O     0.83333   0.79511   0.68392   0.00000  Uiso   1.00
Zn1379 Zn    0.83333   0.88437   0.75000   0.00000  Uiso   1.00
Zn1380 Zn    0.83333   0.78229   0.75000   0.00000  Uiso   1.00
N1381  N     0.87469   0.71597   0.81745   0.00000  Uiso   1.00
H1382  H     0.86298   0.71399   0.84935   0.00000  Uiso   1.00
C1383  C     0.91959   0.71382   0.81582   0.00000  Uiso   1.00
H1384  H     0.93182   0.69198   0.84286   0.00000  Uiso   1.00
H1385  H     0.93243   0.74803   0.82134   0.00000  Uiso   1.00
H1386  H     0.93051   0.70055   0.78297   0.00000  Uiso   1.00
N1387  N     0.79266   0.95081   0.68181   0.00000  Uiso   1.00
H1388  H     0.76077   0.95281   0.68378   0.00000  Uiso   1.00
C1389  C     0.80843   0.95326   0.63659   0.00000  Uiso   1.00
H1390  H     0.79512   0.98233   0.61866   0.00000  Uiso   1.00
H1391  H     0.79861   0.92277   0.61756   0.00000  Uiso   1.00
H1392  H     0.84293   0.95517   0.63678   0.00000  Uiso   1.00
N1393  N     0.79275   0.71466   0.68225   0.00000  Uiso   1.00
H1394  H     0.80763   0.71519   0.65188   0.00000  Uiso   1.00
C1395  C     0.74786   0.71222   0.68011   0.00000  Uiso   1.00
H1396  H     0.73775   0.69092   0.65118   0.00000  Uiso   1.00
H1397  H     0.73519   0.74645   0.67510   0.00000  Uiso   1.00
H1398  H     0.73486   0.69827   0.71139   0.00000  Uiso   1.00
N1399  N     0.85806   0.95531   0.82680   0.00000  Uiso   1.00
H1400  H     0.88620   0.96385   0.84131   0.00000  Uiso   1.00
C1401  C     0.82390   0.95904   0.85807   0.00000  Uiso   1.00
H1402  H     0.81617   0.99463   0.86550   0.00000  Uiso   1.00
H1403  H     0.83236   0.94304   0.89022   0.00000  Uiso   1.00
H1404  H     0.79567   0.94235   0.84398   0.00000  Uiso   1.00
loop_
_geom_bond_atom_site_label_1
_geom_bond_atom_site_label_2
_geom_bond_distance
_geom_bond_site_symmetry_2
_ccdc_geom_bond_type
C1     C10     1.422   .     S
C1     O48     1.291   .     A
C1     O45     1.289   .     A
C2     O46     1.291   .     A
C2     O47     1.289   .     A
C2     C9      1.422   .     S
C3     C28     1.400   .     A
C3     H37     1.084   .     S
C3     C731    1.390   1_554 S
C4     C27     1.400   .     A
C4     H38     1.084   .     S
C4     C732    1.391   .     S
C5     H39     1.081   .     S
C5     C10     1.396   .     A
C5     C163    1.367   1_455 S
C6     C9      1.398   .     A
C6     H40     1.084   .     S
C6     C86     1.371   .     S
C7     H41     1.081   .     S
C7     C9      1.396   .     A
C7     C83     1.367   .     S
C8     H42     1.084   .     S
C8     C10     1.398   .     A
C8     C162    1.371   1_455 S
C11    N44     1.364   .     A
C11    N55     1.421   .     S
C11    C482    1.430   1_545 S
C12    N43     1.375   .     A
C12    N61     1.422   .     S
C12    C247    1.438   .     S
C13    N67     1.418   .     S
C13    N44     1.369   .     A
C13    C480    1.438   1_545 S
C14    N73     1.418   .     S
C14    N43     1.377   .     A
C14    C245    1.430   .     S
C15    C20     1.425   .     S
C15    O52     1.290   .     A
C15    O49     1.292   .     A
C16    O51     1.294   .     A
C16    O50     1.287   .     A
C16    C19     1.424   .     S
C17    C27     1.385   .     A
C17    H31     1.085   .     S
C17    C19     1.393   .     A
C18    C20     1.393   .     A
C18    C28     1.383   .     A
C18    H32     1.084   .     S
C19    C21     1.394   .     A
C20    C22     1.394   .     A
C21    H33     1.086   .     S
C21    C23     1.383   .     A
C22    H34     1.085   .     S
C22    C24     1.384   .     A
C23    C29     1.400   .     A
C23    C25     1.412   .     A
C24    C26     1.412   .     A
C24    C30     1.400   .     A
C25    C27     1.413   .     A
C25    C728    1.391   .     S
C26    C28     1.412   .     A
C26    C727    1.391   1_554 S
C29    H35     1.084   .     S
C29    C705    1.390   .     S
C30    H36     1.084   .     S
C30    C706    1.391   1_554 S
N43    Zn53    2.026   .     S
N44    Zn54    2.026   .     S
O45    Zn53    2.002   .     S
O46    Zn54    2.002   .     S
O47    Zn53    2.002   .     S
O48    Zn54    2.002   .     S
O49    Zn53    2.002   .     S
O50    Zn54    2.002   .     S
O51    Zn53    2.011   .     S
O52    Zn54    2.011   .     S
N55    H56     1.029   .     S
N55    C57     1.448   .     S
C57    H59     1.109   .     S
C57    H60     1.112   .     S
C57    H58     1.111   .     S
N61    C63     1.449   .     S
N61    H62     1.030   .     S
C63    H65     1.109   .     S
C63    H66     1.112   .     S
C63    H64     1.107   .     S
N67    H68     1.029   .     S
N67    C69     1.447   .     S
C69    H71     1.109   .     S
C69    H72     1.112   .     S
C69    H70     1.110   .     S
N73    H74     1.029   .     S
N73    C75     1.453   .     S
C75    H76     1.109   .     S
C75    H77     1.107   .     S
C75    H78     1.111   .     S
C79    C88     1.422   .     S
C79    O126    1.291   .     A
C79    O123    1.289   .     A
C80    O124    1.291   .     A
C80    O125    1.289   .     A
C80    C87     1.422   .     S
C81    C106    1.400   .     A
C81    H115    1.084   .     S
C81    C809    1.390   1_554 S
C82    C105    1.400   .     A
C82    H116    1.084   .     S
C82    C810    1.391   .     S
C83    H117    1.081   .     S
C83    C88     1.396   .     A
C84    C87     1.398   .     A
C84    H118    1.084   .     S
C84    C164    1.371   .     S
C85    H119    1.081   .     S
C85    C87     1.396   .     A
C85    C161    1.367   .     S
C86    H120    1.084   .     S
C86    C88     1.398   .     A
C89    N122    1.364   .     A
C89    N133    1.421   .     S
C89    C560    1.430   1_545 S
C90    N121    1.375   .     A
C90    N139    1.422   .     S
C90    C325    1.438   .     S
C91    N145    1.418   .     S
C91    N122    1.369   .     A
C91    C558    1.438   1_545 S
C92    N151    1.418   .     S
C92    N121    1.377   .     A
C92    C323    1.430   .     S
C93    C98     1.425   .     S
C93    O130    1.290   .     A
C93    O127    1.292   .     A
C94    O129    1.294   .     A
C94    O128    1.287   .     A
C94    C97     1.424   .     S
C95    C105    1.385   .     A
C95    H109    1.085   .     S
C95    C97     1.393   .     A
C96    C98     1.393   .     A
C96    C106    1.383   .     A
C96    H110    1.084   .     S
C97    C99     1.394   .     A
C98    C100    1.394   .     A
C99    H111    1.086   .     S
C99    C101    1.383   .     A
C100   H112    1.085   .     S
C100   C102    1.384   .     A
C101   C107    1.400   .     A
C101   C103    1.412   .     A
C102   C104    1.412   .     A
C102   C108    1.400   .     A
C103   C105    1.413   .     A
C103   C806    1.391   .     S
C104   C106    1.412   .     A
C104   C805    1.391   1_554 S
C107   H113    1.084   .     S
C107   C783    1.390   .     S
C108   H114    1.084   .     S
C108   C784    1.391   1_554 S
N121   Zn131   2.026   .     S
N122   Zn132   2.026   .     S
O123   Zn131   2.002   .     S
O124   Zn132   2.002   .     S
O125   Zn131   2.002   .     S
O126   Zn132   2.002   .     S
O127   Zn131   2.002   .     S
O128   Zn132   2.002   .     S
O129   Zn131   2.011   .     S
O130   Zn132   2.011   .     S
N133   H134    1.029   .     S
N133   C135    1.448   .     S
C135   H137    1.109   .     S
C135   H138    1.112   .     S
C135   H136    1.111   .     S
N139   C141    1.449   .     S
N139   H140    1.030   .     S
C141   H143    1.109   .     S
C141   H144    1.112   .     S
C141   H142    1.107   .     S
N145   H146    1.029   .     S
N145   C147    1.447   .     S
C147   H149    1.109   .     S
C147   H150    1.112   .     S
C147   H148    1.110   .     S
N151   H152    1.029   .     S
N151   C153    1.453   .     S
C153   H154    1.109   .     S
C153   H155    1.107   .     S
C153   H156    1.111   .     S
C157   C166    1.422   .     S
C157   O204    1.291   .     A
C157   O201    1.289   .     A
C158   O202    1.291   .     A
C158   O203    1.289   .     A
C158   C165    1.422   .     S
C159   C184    1.400   .     A
C159   H193    1.084   .     S
C159   C887    1.390   1_554 S
C160   C183    1.400   .     A
C160   H194    1.084   .     S
C160   C888    1.391   .     S
C161   H195    1.081   .     S
C161   C166    1.396   .     A
C162   C165    1.398   .     A
C162   H196    1.084   .     S
C162   C8      1.371   1_655 S
C163   H197    1.081   .     S
C163   C165    1.396   .     A
C163   C5      1.367   1_655 S
C164   H198    1.084   .     S
C164   C166    1.398   .     A
C167   N200    1.364   .     A
C167   N211    1.421   .     S
C167   C638    1.430   1_545 S
C168   N199    1.375   .     A
C168   N217    1.422   .     S
C168   C403    1.438   .     S
C169   N223    1.418   .     S
C169   N200    1.369   .     A
C169   C636    1.438   1_545 S
C170   N229    1.418   .     S
C170   N199    1.377   .     A
C170   C401    1.430   .     S
C171   C176    1.425   .     S
C171   O208    1.290   .     A
C171   O205    1.292   .     A
C172   O207    1.294   .     A
C172   O206    1.287   .     A
C172   C175    1.424   .     S
C173   C183    1.385   .     A
C173   H187    1.085   .     S
C173   C175    1.393   .     A
C174   C176    1.393   .     A
C174   C184    1.383   .     A
C174   H188    1.084   .     S
C175   C177    1.394   .     A
C176   C178    1.394   .     A
C177   H189    1.086   .     S
C177   C179    1.383   .     A
C178   H190    1.085   .     S
C178   C180    1.384   .     A
C179   C185    1.400   .     A
C179   C181    1.412   .     A
C180   C182    1.412   .     A
C180   C186    1.400   .     A
C181   C183    1.413   .     A
C181   C884    1.391   .     S
C182   C184    1.412   .     A
C182   C883    1.391   1_554 S
C185   H191    1.084   .     S
C185   C861    1.390   .     S
C186   H192    1.084   .     S
C186   C862    1.391   1_554 S
N199   Zn209   2.026   .     S
N200   Zn210   2.026   .     S
O201   Zn209   2.002   .     S
O202   Zn210   2.002   .     S
O203   Zn209   2.002   .     S
O204   Zn210   2.002   .     S
O205   Zn209   2.002   .     S
O206   Zn210   2.002   .     S
O207   Zn209   2.011   .     S
O208   Zn210   2.011   .     S
N211   H212    1.029   .     S
N211   C213    1.448   .     S
C213   H215    1.109   .     S
C213   H216    1.112   .     S
C213   H214    1.111   .     S
N217   C219    1.449   .     S
N217   H218    1.030   .     S
C219   H221    1.109   .     S
C219   H222    1.112   .     S
C219   H220    1.107   .     S
N223   H224    1.029   .     S
N223   C225    1.447   .     S
C225   H227    1.109   .     S
C225   H228    1.112   .     S
C225   H226    1.110   .     S
N229   H230    1.029   .     S
N229   C231    1.453   .     S
C231   H232    1.109   .     S
C231   H233    1.107   .     S
C231   H234    1.111   .     S
C235   C244    1.422   .     S
C235   O282    1.291   .     A
C235   O279    1.289   .     A
C236   O280    1.291   .     A
C236   O281    1.289   .     A
C236   C243    1.422   .     S
C237   C262    1.400   .     A
C237   H271    1.084   .     S
C237   C965    1.390   1_554 S
C238   C261    1.400   .     A
C238   H272    1.084   .     S
C238   C966    1.391   .     S
C239   H273    1.081   .     S
C239   C244    1.396   .     A
C239   C397    1.367   1_455 S
C240   C243    1.398   .     A
C240   H274    1.084   .     S
C240   C320    1.371   .     S
C241   H275    1.081   .     S
C241   C243    1.396   .     A
C241   C317    1.367   .     S
C242   H276    1.084   .     S
C242   C244    1.398   .     A
C242   C396    1.371   1_455 S
C245   N278    1.364   .     A
C245   N289    1.421   .     S
C246   N277    1.375   .     A
C246   N295    1.422   .     S
C246   C481    1.438   .     S
C247   N301    1.418   .     S
C247   N278    1.369   .     A
C248   N307    1.418   .     S
C248   N277    1.377   .     A
C248   C479    1.430   .     S
C249   C254    1.425   .     S
C249   O286    1.290   .     A
C249   O283    1.292   .     A
C250   O285    1.294   .     A
C250   O284    1.287   .     A
C250   C253    1.424   .     S
C251   C261    1.385   .     A
C251   H265    1.085   .     S
C251   C253    1.393   .     A
C252   C254    1.393   .     A
C252   C262    1.383   .     A
C252   H266    1.084   .     S
C253   C255    1.394   .     A
C254   C256    1.394   .     A
C255   H267    1.086   .     S
C255   C257    1.383   .     A
C256   H268    1.085   .     S
C256   C258    1.384   .     A
C257   C263    1.400   .     A
C257   C259    1.412   .     A
C258   C260    1.412   .     A
C258   C264    1.400   .     A
C259   C261    1.413   .     A
C259   C962    1.391   .     S
C260   C262    1.412   .     A
C260   C961    1.391   1_554 S
C263   H269    1.084   .     S
C263   C939    1.390   .     S
C264   H270    1.084   .     S
C264   C940    1.391   1_554 S
N277   Zn287   2.026   .     S
N278   Zn288   2.026   .     S
O279   Zn287   2.002   .     S
O280   Zn288   2.002   .     S
O281   Zn287   2.002   .     S
O282   Zn288   2.002   .     S
O283   Zn287   2.002   .     S
O284   Zn288   2.002   .     S
O285   Zn287   2.011   .     S
O286   Zn288   2.011   .     S
N289   H290    1.029   .     S
N289   C291    1.448   .     S
C291   H293    1.109   .     S
C291   H294    1.112   .     S
C291   H292    1.111   .     S
N295   C297    1.449   .     S
N295   H296    1.030   .     S
C297   H299    1.109   .     S
C297   H300    1.112   .     S
C297   H298    1.107   .     S
N301   H302    1.029   .     S
N301   C303    1.447   .     S
C303   H305    1.109   .     S
C303   H306    1.112   .     S
C303   H304    1.110   .     S
N307   H308    1.029   .     S
N307   C309    1.453   .     S
C309   H310    1.109   .     S
C309   H311    1.107   .     S
C309   H312    1.111   .     S
C313   C322    1.422   .     S
C313   O360    1.291   .     A
C313   O357    1.289   .     A
C314   O358    1.291   .     A
C314   O359    1.289   .     A
C314   C321    1.422   .     S
C315   C340    1.400   .     A
C315   H349    1.084   .     S
C315   C1043   1.390   1_554 S
C316   C339    1.400   .     A
C316   H350    1.084   .     S
C316   C1044   1.391   .     S
C317   H351    1.081   .     S
C317   C322    1.396   .     A
C318   C321    1.398   .     A
C318   H352    1.084   .     S
C318   C398    1.371   .     S
C319   H353    1.081   .     S
C319   C321    1.396   .     A
C319   C395    1.367   .     S
C320   H354    1.084   .     S
C320   C322    1.398   .     A
C323   N356    1.364   .     A
C323   N367    1.421   .     S
C324   N355    1.375   .     A
C324   N373    1.422   .     S
C324   C559    1.438   .     S
C325   N379    1.418   .     S
C325   N356    1.369   .     A
C326   N385    1.418   .     S
C326   N355    1.377   .     A
C326   C557    1.430   .     S
C327   C332    1.425   .     S
C327   O364    1.290   .     A
C327   O361    1.292   .     A
C328   O363    1.294   .     A
C328   O362    1.287   .     A
C328   C331    1.424   .     S
C329   C339    1.385   .     A
C329   H343    1.085   .     S
C329   C331    1.393   .     A
C330   C332    1.393   .     A
C330   C340    1.383   .     A
C330   H344    1.084   .     S
C331   C333    1.394   .     A
C332   C334    1.394   .     A
C333   H345    1.086   .     S
C333   C335    1.383   .     A
C334   H346    1.085   .     S
C334   C336    1.384   .     A
C335   C341    1.400   .     A
C335   C337    1.412   .     A
C336   C338    1.412   .     A
C336   C342    1.400   .     A
C337   C339    1.413   .     A
C337   C1040   1.391   .     S
C338   C340    1.412   .     A
C338   C1039   1.391   1_554 S
C341   H347    1.084   .     S
C341   C1017   1.390   .     S
C342   H348    1.084   .     S
C342   C1018   1.391   1_554 S
N355   Zn365   2.026   .     S
N356   Zn366   2.026   .     S
O357   Zn365   2.002   .     S
O358   Zn366   2.002   .     S
O359   Zn365   2.002   .     S
O360   Zn366   2.002   .     S
O361   Zn365   2.002   .     S
O362   Zn366   2.002   .     S
O363   Zn365   2.011   .     S
O364   Zn366   2.011   .     S
N367   H368    1.029   .     S
N367   C369    1.448   .     S
C369   H371    1.109   .     S
C369   H372    1.112   .     S
C369   H370    1.111   .     S
N373   C375    1.449   .     S
N373   H374    1.030   .     S
C375   H377    1.109   .     S
C375   H378    1.112   .     S
C375   H376    1.107   .     S
N379   H380    1.029   .     S
N379   C381    1.447   .     S
C381   H383    1.109   .     S
C381   H384    1.112   .     S
C381   H382    1.110   .     S
N385   H386    1.029   .     S
N385   C387    1.453   .     S
C387   H388    1.109   .     S
C387   H389    1.107   .     S
C387   H390    1.111   .     S
C391   C400    1.422   .     S
C391   O438    1.291   .     A
C391   O435    1.289   .     A
C392   O436    1.291   .     A
C392   O437    1.289   .     A
C392   C399    1.422   .     S
C393   C418    1.400   .     A
C393   H427    1.084   .     S
C393   C1121   1.390   1_554 S
C394   C417    1.400   .     A
C394   H428    1.084   .     S
C394   C1122   1.391   .     S
C395   H429    1.081   .     S
C395   C400    1.396   .     A
C396   C399    1.398   .     A
C396   H430    1.084   .     S
C396   C242    1.371   1_655 S
C397   H431    1.081   .     S
C397   C399    1.396   .     A
C397   C239    1.367   1_655 S
C398   H432    1.084   .     S
C398   C400    1.398   .     A
C401   N434    1.364   .     A
C401   N445    1.421   .     S
C402   N433    1.375   .     A
C402   N451    1.422   .     S
C402   C637    1.438   .     S
C403   N457    1.418   .     S
C403   N434    1.369   .     A
C404   N463    1.418   .     S
C404   N433    1.377   .     A
C404   C635    1.430   .     S
C405   C410    1.425   .     S
C405   O442    1.290   .     A
C405   O439    1.292   .     A
C406   O441    1.294   .     A
C406   O440    1.287   .     A
C406   C409    1.424   .     S
C407   C417    1.385   .     A
C407   H421    1.085   .     S
C407   C409    1.393   .     A
C408   C410    1.393   .     A
C408   C418    1.383   .     A
C408   H422    1.084   .     S
C409   C411    1.394   .     A
C410   C412    1.394   .     A
C411   H423    1.086   .     S
C411   C413    1.383   .     A
C412   H424    1.085   .     S
C412   C414    1.384   .     A
C413   C419    1.400   .     A
C413   C415    1.412   .     A
C414   C416    1.412   .     A
C414   C420    1.400   .     A
C415   C417    1.413   .     A
C415   C1118   1.391   .     S
C416   C418    1.412   .     A
C416   C1117   1.391   1_554 S
C419   H425    1.084   .     S
C419   C1095   1.390   .     S
C420   H426    1.084   .     S
C420   C1096   1.391   1_554 S
N433   Zn443   2.026   .     S
N434   Zn444   2.026   .     S
O435   Zn443   2.002   .     S
O436   Zn444   2.002   .     S
O437   Zn443   2.002   .     S
O438   Zn444   2.002   .     S
O439   Zn443   2.002   .     S
O440   Zn444   2.002   .     S
O441   Zn443   2.011   .     S
O442   Zn444   2.011   .     S
N445   H446    1.029   .     S
N445   C447    1.448   .     S
C447   H449    1.109   .     S
C447   H450    1.112   .     S
C447   H448    1.111   .     S
N451   C453    1.449   .     S
N451   H452    1.030   .     S
C453   H455    1.109   .     S
C453   H456    1.112   .     S
C453   H454    1.107   .     S
N457   H458    1.029   .     S
N457   C459    1.447   .     S
C459   H461    1.109   .     S
C459   H462    1.112   .     S
C459   H460    1.110   .     S
N463   H464    1.029   .     S
N463   C465    1.453   .     S
C465   H466    1.109   .     S
C465   H467    1.107   .     S
C465   H468    1.111   .     S
C469   C478    1.422   .     S
C469   O516    1.291   .     A
C469   O513    1.289   .     A
C470   O514    1.291   .     A
C470   O515    1.289   .     A
C470   C477    1.422   .     S
C471   C496    1.400   .     A
C471   H505    1.084   .     S
C471   C1199   1.390   1_554 S
C472   C495    1.400   .     A
C472   H506    1.084   .     S
C472   C1200   1.391   .     S
C473   H507    1.081   .     S
C473   C478    1.396   .     A
C473   C631    1.367   1_455 S
C474   C477    1.398   .     A
C474   H508    1.084   .     S
C474   C554    1.371   .     S
C475   H509    1.081   .     S
C475   C477    1.396   .     A
C475   C551    1.367   .     S
C476   H510    1.084   .     S
C476   C478    1.398   .     A
C476   C630    1.371   1_455 S
C479   N512    1.364   .     A
C479   N523    1.421   .     S
C480   N511    1.375   .     A
C480   N529    1.422   .     S
C480   C13     1.438   1_565 S
C481   N535    1.418   .     S
C481   N512    1.369   .     A
C482   N541    1.418   .     S
C482   N511    1.377   .     A
C482   C11     1.430   1_565 S
C483   C488    1.425   .     S
C483   O520    1.290   .     A
C483   O517    1.292   .     A
C484   O519    1.294   .     A
C484   O518    1.287   .     A
C484   C487    1.424   .     S
C485   C495    1.385   .     A
C485   H499    1.085   .     S
C485   C487    1.393   .     A
C486   C488    1.393   .     A
C486   C496    1.383   .     A
C486   H500    1.084   .     S
C487   C489    1.394   .     A
C488   C490    1.394   .     A
C489   H501    1.086   .     S
C489   C491    1.383   .     A
C490   H502    1.085   .     S
C490   C492    1.384   .     A
C491   C497    1.400   .     A
C491   C493    1.412   .     A
C492   C494    1.412   .     A
C492   C498    1.400   .     A
C493   C495    1.413   .     A
C493   C1196   1.391   .     S
C494   C496    1.412   .     A
C494   C1195   1.391   1_554 S
C497   H503    1.084   .     S
C497   C1173   1.390   .     S
C498   H504    1.084   .     S
C498   C1174   1.391   1_554 S
N511   Zn521   2.026   .     S
N512   Zn522   2.026   .     S
O513   Zn521   2.002   .     S
O514   Zn522   2.002   .     S
O515   Zn521   2.002   .     S
O516   Zn522   2.002   .     S
O517   Zn521   2.002   .     S
O518   Zn522   2.002   .     S
O519   Zn521   2.011   .     S
O520   Zn522   2.011   .     S
N523   H524    1.029   .     S
N523   C525    1.448   .     S
C525   H527    1.109   .     S
C525   H528    1.112   .     S
C525   H526    1.111   .     S
N529   C531    1.449   .     S
N529   H530    1.030   .     S
C531   H533    1.109   .     S
C531   H534    1.112   .     S
C531   H532    1.107   .     S
N535   H536    1.029   .     S
N535   C537    1.447   .     S
C537   H539    1.109   .     S
C537   H540    1.112   .     S
C537   H538    1.110   .     S
N541   H542    1.029   .     S
N541   C543    1.453   .     S
C543   H544    1.109   .     S
C543   H545    1.107   .     S
C543   H546    1.111   .     S
C547   C556    1.422   .     S
C547   O594    1.291   .     A
C547   O591    1.289   .     A
C548   O592    1.291   .     A
C548   O593    1.289   .     A
C548   C555    1.422   .     S
C549   C574    1.400   .     A
C549   H583    1.084   .     S
C549   C1277   1.390   1_554 S
C550   C573    1.400   .     A
C550   H584    1.084   .     S
C550   C1278   1.391   .     S
C551   H585    1.081   .     S
C551   C556    1.396   .     A
C552   C555    1.398   .     A
C552   H586    1.084   .     S
C552   C632    1.371   .     S
C553   H587    1.081   .     S
C553   C555    1.396   .     A
C553   C629    1.367   .     S
C554   H588    1.084   .     S
C554   C556    1.398   .     A
C557   N590    1.364   .     A
C557   N601    1.421   .     S
C558   N589    1.375   .     A
C558   N607    1.422   .     S
C558   C91     1.438   1_565 S
C559   N613    1.418   .     S
C559   N590    1.369   .     A
C560   N619    1.418   .     S
C560   N589    1.377   .     A
C560   C89     1.430   1_565 S
C561   C566    1.425   .     S
C561   O598    1.290   .     A
C561   O595    1.292   .     A
C562   O597    1.294   .     A
C562   O596    1.287   .     A
C562   C565    1.424   .     S
C563   C573    1.385   .     A
C563   H577    1.085   .     S
C563   C565    1.393   .     A
C564   C566    1.393   .     A
C564   C574    1.383   .     A
C564   H578    1.084   .     S
C565   C567    1.394   .     A
C566   C568    1.394   .     A
C567   H579    1.086   .     S
C567   C569    1.383   .     A
C568   H580    1.085   .     S
C568   C570    1.384   .     A
C569   C575    1.400   .     A
C569   C571    1.412   .     A
C570   C572    1.412   .     A
C570   C576    1.400   .     A
C571   C573    1.413   .     A
C571   C1274   1.391   .     S
C572   C574    1.412   .     A
C572   C1273   1.391   1_554 S
C575   H581    1.084   .     S
C575   C1251   1.390   .     S
C576   H582    1.084   .     S
C576   C1252   1.391   1_554 S
N589   Zn599   2.026   .     S
N590   Zn600   2.026   .     S
O591   Zn599   2.002   .     S
O592   Zn600   2.002   .     S
O593   Zn599   2.002   .     S
O594   Zn600   2.002   .     S
O595   Zn599   2.002   .     S
O596   Zn600   2.002   .     S
O597   Zn599   2.011   .     S
O598   Zn600   2.011   .     S
N601   H602    1.029   .     S
N601   C603    1.448   .     S
C603   H605    1.109   .     S
C603   H606    1.112   .     S
C603   H604    1.111   .     S
N607   C609    1.449   .     S
N607   H608    1.030   .     S
C609   H611    1.109   .     S
C609   H612    1.112   .     S
C609   H610    1.107   .     S
N613   H614    1.029   .     S
N613   C615    1.447   .     S
C615   H617    1.109   .     S
C615   H618    1.112   .     S
C615   H616    1.110   .     S
N619   H620    1.029   .     S
N619   C621    1.453   .     S
C621   H622    1.109   .     S
C621   H623    1.107   .     S
C621   H624    1.111   .     S
C625   C634    1.422   .     S
C625   O672    1.291   .     A
C625   O669    1.289   .     A
C626   O670    1.291   .     A
C626   O671    1.289   .     A
C626   C633    1.422   .     S
C627   C652    1.400   .     A
C627   H661    1.084   .     S
C627   C1355   1.390   1_554 S
C628   C651    1.400   .     A
C628   H662    1.084   .     S
C628   C1356   1.391   .     S
C629   H663    1.081   .     S
C629   C634    1.396   .     A
C630   C633    1.398   .     A
C630   H664    1.084   .     S
C630   C476    1.371   1_655 S
C631   H665    1.081   .     S
C631   C633    1.396   .     A
C631   C473    1.367   1_655 S
C632   H666    1.084   .     S
C632   C634    1.398   .     A
C635   N668    1.364   .     A
C635   N679    1.421   .     S
C636   N667    1.375   .     A
C636   N685    1.422   .     S
C636   C169    1.438   1_565 S
C637   N691    1.418   .     S
C637   N668    1.369   .     A
C638   N697    1.418   .     S
C638   N667    1.377   .     A
C638   C167    1.430   1_565 S
C639   C644    1.425   .     S
C639   O676    1.290   .     A
C639   O673    1.292   .     A
C640   O675    1.294   .     A
C640   O674    1.287   .     A
C640   C643    1.424   .     S
C641   C651    1.385   .     A
C641   H655    1.085   .     S
C641   C643    1.393   .     A
C642   C644    1.393   .     A
C642   C652    1.383   .     A
C642   H656    1.084   .     S
C643   C645    1.394   .     A
C644   C646    1.394   .     A
C645   H657    1.086   .     S
C645   C647    1.383   .     A
C646   H658    1.085   .     S
C646   C648    1.384   .     A
C647   C653    1.400   .     A
C647   C649    1.412   .     A
C648   C650    1.412   .     A
C648   C654    1.400   .     A
C649   C651    1.413   .     A
C649   C1352   1.391   .     S
C650   C652    1.412   .     A
C650   C1351   1.391   1_554 S
C653   H659    1.084   .     S
C653   C1329   1.390   .     S
C654   H660    1.084   .     S
C654   C1330   1.391   1_554 S
N667   Zn677   2.026   .     S
N668   Zn678   2.026   .     S
O669   Zn677   2.002   .     S
O670   Zn678   2.002   .     S
O671   Zn677   2.002   .     S
O672   Zn678   2.002   .     S
O673   Zn677   2.002   .     S
O674   Zn678   2.002   .     S
O675   Zn677   2.011   .     S
O676   Zn678   2.011   .     S
N679   H680    1.029   .     S
N679   C681    1.448   .     S
C681   H683    1.109   .     S
C681   H684    1.112   .     S
C681   H682    1.111   .     S
N685   C687    1.449   .     S
N685   H686    1.030   .     S
C687   H689    1.109   .     S
C687   H690    1.112   .     S
C687   H688    1.107   .     S
N691   H692    1.029   .     S
N691   C693    1.447   .     S
C693   H695    1.109   .     S
C693   H696    1.112   .     S
C693   H694    1.110   .     S
N697   H698    1.029   .     S
N697   C699    1.453   .     S
C699   H700    1.109   .     S
C699   H701    1.107   .     S
C699   H702    1.111   .     S
C703   C712    1.422   .     S
C703   O750    1.291   .     A
C703   O747    1.289   .     A
C704   O748    1.291   .     A
C704   O749    1.289   .     A
C704   C711    1.422   .     S
C705   C730    1.400   .     A
C705   H739    1.084   .     S
C706   C729    1.400   .     A
C706   H740    1.084   .     S
C706   C30     1.391   1_556 S
C707   H741    1.081   .     S
C707   C712    1.396   .     A
C707   C865    1.367   1_455 S
C708   C711    1.398   .     A
C708   H742    1.084   .     S
C708   C788    1.371   .     S
C709   H743    1.081   .     S
C709   C711    1.396   .     A
C709   C785    1.367   .     S
C710   H744    1.084   .     S
C710   C712    1.398   .     A
C710   C864    1.371   1_455 S
C713   N746    1.364   .     A
C713   N757    1.421   .     S
C713   C1184   1.430   1_545 S
C714   N745    1.375   .     A
C714   N763    1.422   .     S
C714   C949    1.438   .     S
C715   N769    1.418   .     S
C715   N746    1.369   .     A
C715   C1182   1.438   1_545 S
C716   N775    1.418   .     S
C716   N745    1.377   .     A
C716   C947    1.430   .     S
C717   C722    1.425   .     S
C717   O754    1.290   .     A
C717   O751    1.292   .     A
C718   O753    1.294   .     A
C718   O752    1.287   .     A
C718   C721    1.424   .     S
C719   C729    1.385   .     A
C719   H733    1.085   .     S
C719   C721    1.393   .     A
C720   C722    1.393   .     A
C720   C730    1.383   .     A
C720   H734    1.084   .     S
C721   C723    1.394   .     A
C722   C724    1.394   .     A
C723   H735    1.086   .     S
C723   C725    1.383   .     A
C724   H736    1.085   .     S
C724   C726    1.384   .     A
C725   C731    1.400   .     A
C725   C727    1.412   .     A
C726   C728    1.412   .     A
C726   C732    1.400   .     A
C727   C729    1.413   .     A
C727   C26     1.391   1_556 S
C728   C730    1.412   .     A
C731   H737    1.084   .     S
C731   C3      1.390   1_556 S
C732   H738    1.084   .     S
N745   Zn755   2.026   .     S
N746   Zn756   2.026   .     S
O747   Zn755   2.002   .     S
O748   Zn756   2.002   .     S
O749   Zn755   2.002   .     S
O750   Zn756   2.002   .     S
O751   Zn755   2.002   .     S
O752   Zn756   2.002   .     S
O753   Zn755   2.011   .     S
O754   Zn756   2.011   .     S
N757   H758    1.029   .     S
N757   C759    1.448   .     S
C759   H761    1.109   .     S
C759   H762    1.112   .     S
C759   H760    1.111   .     S
N763   C765    1.449   .     S
N763   H764    1.030   .     S
C765   H767    1.109   .     S
C765   H768    1.112   .     S
C765   H766    1.107   .     S
N769   H770    1.029   .     S
N769   C771    1.447   .     S
C771   H773    1.109   .     S
C771   H774    1.112   .     S
C771   H772    1.110   .     S
N775   H776    1.029   .     S
N775   C777    1.453   .     S
C777   H778    1.109   .     S
C777   H779    1.107   .     S
C777   H780    1.111   .     S
C781   C790    1.422   .     S
C781   O828    1.291   .     A
C781   O825    1.289   .     A
C782   O826    1.291   .     A
C782   O827    1.289   .     A
C782   C789    1.422   .     S
C783   C808    1.400   .     A
C783   H817    1.084   .     S
C784   C807    1.400   .     A
C784   H818    1.084   .     S
C784   C108    1.391   1_556 S
C785   H819    1.081   .     S
C785   C790    1.396   .     A
C786   C789    1.398   .     A
C786   H820    1.084   .     S
C786   C866    1.371   .     S
C787   H821    1.081   .     S
C787   C789    1.396   .     A
C787   C863    1.367   .     S
C788   H822    1.084   .     S
C788   C790    1.398   .     A
C791   N824    1.364   .     A
C791   N835    1.421   .     S
C791   C1262   1.430   1_545 S
C792   N823    1.375   .     A
C792   N841    1.422   .     S
C792   C1027   1.438   .     S
C793   N847    1.418   .     S
C793   N824    1.369   .     A
C793   C1260   1.438   1_545 S
C794   N853    1.418   .     S
C794   N823    1.377   .     A
C794   C1025   1.430   .     S
C795   C800    1.425   .     S
C795   O832    1.290   .     A
C795   O829    1.292   .     A
C796   O831    1.294   .     A
C796   O830    1.287   .     A
C796   C799    1.424   .     S
C797   C807    1.385   .     A
C797   H811    1.085   .     S
C797   C799    1.393   .     A
C798   C800    1.393   .     A
C798   C808    1.383   .     A
C798   H812    1.084   .     S
C799   C801    1.394   .     A
C800   C802    1.394   .     A
C801   H813    1.086   .     S
C801   C803    1.383   .     A
C802   H814    1.085   .     S
C802   C804    1.384   .     A
C803   C809    1.400   .     A
C803   C805    1.412   .     A
C804   C806    1.412   .     A
C804   C810    1.400   .     A
C805   C807    1.413   .     A
C805   C104    1.391   1_556 S
C806   C808    1.412   .     A
C809   H815    1.084   .     S
C809   C81     1.390   1_556 S
C810   H816    1.084   .     S
N823   Zn833   2.026   .     S
N824   Zn834   2.026   .     S
O825   Zn833   2.002   .     S
O826   Zn834   2.002   .     S
O827   Zn833   2.002   .     S
O828   Zn834   2.002   .     S
O829   Zn833   2.002   .     S
O830   Zn834   2.002   .     S
O831   Zn833   2.011   .     S
O832   Zn834   2.011   .     S
N835   H836    1.029   .     S
N835   C837    1.448   .     S
C837   H839    1.109   .     S
C837   H840    1.112   .     S
C837   H838    1.111   .     S
N841   C843    1.449   .     S
N841   H842    1.030   .     S
C843   H845    1.109   .     S
C843   H846    1.112   .     S
C843   H844    1.107   .     S
N847   H848    1.029   .     S
N847   C849    1.447   .     S
C849   H851    1.109   .     S
C849   H852    1.112   .     S
C849   H850    1.110   .     S
N853   H854    1.029   .     S
N853   C855    1.453   .     S
C855   H856    1.109   .     S
C855   H857    1.107   .     S
C855   H858    1.111   .     S
C859   C868    1.422   .     S
C859   O906    1.291   .     A
C859   O903    1.289   .     A
C860   O904    1.291   .     A
C860   O905    1.289   .     A
C860   C867    1.422   .     S
C861   C886    1.400   .     A
C861   H895    1.084   .     S
C862   C885    1.400   .     A
C862   H896    1.084   .     S
C862   C186    1.391   1_556 S
C863   H897    1.081   .     S
C863   C868    1.396   .     A
C864   C867    1.398   .     A
C864   H898    1.084   .     S
C864   C710    1.371   1_655 S
C865   H899    1.081   .     S
C865   C867    1.396   .     A
C865   C707    1.367   1_655 S
C866   H900    1.084   .     S
C866   C868    1.398   .     A
C869   N902    1.364   .     A
C869   N913    1.421   .     S
C869   C1340   1.430   1_545 S
C870   N901    1.375   .     A
C870   N919    1.422   .     S
C870   C1105   1.438   .     S
C871   N925    1.418   .     S
C871   N902    1.369   .     A
C871   C1338   1.438   1_545 S
C872   N931    1.418   .     S
C872   N901    1.377   .     A
C872   C1103   1.430   .     S
C873   C878    1.425   .     S
C873   O910    1.290   .     A
C873   O907    1.292   .     A
C874   O909    1.294   .     A
C874   O908    1.287   .     A
C874   C877    1.424   .     S
C875   C885    1.385   .     A
C875   H889    1.085   .     S
C875   C877    1.393   .     A
C876   C878    1.393   .     A
C876   C886    1.383   .     A
C876   H890    1.084   .     S
C877   C879    1.394   .     A
C878   C880    1.394   .     A
C879   H891    1.086   .     S
C879   C881    1.383   .     A
C880   H892    1.085   .     S
C880   C882    1.384   .     A
C881   C887    1.400   .     A
C881   C883    1.412   .     A
C882   C884    1.412   .     A
C882   C888    1.400   .     A
C883   C885    1.413   .     A
C883   C182    1.391   1_556 S
C884   C886    1.412   .     A
C887   H893    1.084   .     S
C887   C159    1.390   1_556 S
C888   H894    1.084   .     S
N901   Zn911   2.026   .     S
N902   Zn912   2.026   .     S
O903   Zn911   2.002   .     S
O904   Zn912   2.002   .     S
O905   Zn911   2.002   .     S
O906   Zn912   2.002   .     S
O907   Zn911   2.002   .     S
O908   Zn912   2.002   .     S
O909   Zn911   2.011   .     S
O910   Zn912   2.011   .     S
N913   H914    1.029   .     S
N913   C915    1.448   .     S
C915   H917    1.109   .     S
C915   H918    1.112   .     S
C915   H916    1.111   .     S
N919   C921    1.449   .     S
N919   H920    1.030   .     S
C921   H923    1.109   .     S
C921   H924    1.112   .     S
C921   H922    1.107   .     S
N925   H926    1.029   .     S
N925   C927    1.447   .     S
C927   H929    1.109   .     S
C927   H930    1.112   .     S
C927   H928    1.110   .     S
N931   H932    1.029   .     S
N931   C933    1.453   .     S
C933   H934    1.109   .     S
C933   H935    1.107   .     S
C933   H936    1.111   .     S
C937   C946    1.422   .     S
C937   O984    1.291   .     A
C937   O981    1.289   .     A
C938   O982    1.291   .     A
C938   O983    1.289   .     A
C938   C945    1.422   .     S
C939   C964    1.400   .     A
C939   H973    1.084   .     S
C940   C963    1.400   .     A
C940   H974    1.084   .     S
C940   C264    1.391   1_556 S
C941   H975    1.081   .     S
C941   C946    1.396   .     A
C941   C1099   1.367   1_455 S
C942   C945    1.398   .     A
C942   H976    1.084   .     S
C942   C1022   1.371   .     S
C943   H977    1.081   .     S
C943   C945    1.396   .     A
C943   C1019   1.367   .     S
C944   H978    1.084   .     S
C944   C946    1.398   .     A
C944   C1098   1.371   1_455 S
C947   N980    1.364   .     A
C947   N991    1.421   .     S
C948   N979    1.375   .     A
C948   N997    1.422   .     S
C948   C1183   1.438   .     S
C949   N1003   1.418   .     S
C949   N980    1.369   .     A
C950   N1009   1.418   .     S
C950   N979    1.377   .     A
C950   C1181   1.430   .     S
C951   C956    1.425   .     S
C951   O988    1.290   .     A
C951   O985    1.292   .     A
C952   O987    1.294   .     A
C952   O986    1.287   .     A
C952   C955    1.424   .     S
C953   C963    1.385   .     A
C953   H967    1.085   .     S
C953   C955    1.393   .     A
C954   C956    1.393   .     A
C954   C964    1.383   .     A
C954   H968    1.084   .     S
C955   C957    1.394   .     A
C956   C958    1.394   .     A
C957   H969    1.086   .     S
C957   C959    1.383   .     A
C958   H970    1.085   .     S
C958   C960    1.384   .     A
C959   C965    1.400   .     A
C959   C961    1.412   .     A
C960   C962    1.412   .     A
C960   C966    1.400   .     A
C961   C963    1.413   .     A
C961   C260    1.391   1_556 S
C962   C964    1.412   .     A
C965   H971    1.084   .     S
C965   C237    1.390   1_556 S
C966   H972    1.084   .     S
N979   Zn989   2.026   .     S
N980   Zn990   2.026   .     S
O981   Zn989   2.002   .     S
O982   Zn990   2.002   .     S
O983   Zn989   2.002   .     S
O984   Zn990   2.002   .     S
O985   Zn989   2.002   .     S
O986   Zn990   2.002   .     S
O987   Zn989   2.011   .     S
O988   Zn990   2.011   .     S
N991   H992    1.029   .     S
N991   C993    1.448   .     S
C993   H995    1.109   .     S
C993   H996    1.112   .     S
C993   H994    1.111   .     S
N997   C999    1.449   .     S
N997   H998    1.030   .     S
C999   H1001   1.109   .     S
C999   H1002   1.112   .     S
C999   H1000   1.107   .     S
N1003  H1004   1.029   .     S
N1003  C1005   1.447   .     S
C1005  H1007   1.109   .     S
C1005  H1008   1.112   .     S
C1005  H1006   1.110   .     S
N1009  H1010   1.029   .     S
N1009  C1011   1.453   .     S
C1011  H1012   1.109   .     S
C1011  H1013   1.107   .     S
C1011  H1014   1.111   .     S
C1015  C1024   1.422   .     S
C1015  O1062   1.291   .     A
C1015  O1059   1.289   .     A
C1016  O1060   1.291   .     A
C1016  O1061   1.289   .     A
C1016  C1023   1.422   .     S
C1017  C1042   1.400   .     A
C1017  H1051   1.084   .     S
C1018  C1041   1.400   .     A
C1018  H1052   1.084   .     S
C1018  C342    1.391   1_556 S
C1019  H1053   1.081   .     S
C1019  C1024   1.396   .     A
C1020  C1023   1.398   .     A
C1020  H1054   1.084   .     S
C1020  C1100   1.371   .     S
C1021  H1055   1.081   .     S
C1021  C1023   1.396   .     A
C1021  C1097   1.367   .     S
C1022  H1056   1.084   .     S
C1022  C1024   1.398   .     A
C1025  N1058   1.364   .     A
C1025  N1069   1.421   .     S
C1026  N1057   1.375   .     A
C1026  N1075   1.422   .     S
C1026  C1261   1.438   .     S
C1027  N1081   1.418   .     S
C1027  N1058   1.369   .     A
C1028  N1087   1.418   .     S
C1028  N1057   1.377   .     A
C1028  C1259   1.430   .     S
C1029  C1034   1.425   .     S
C1029  O1066   1.290   .     A
C1029  O1063   1.292   .     A
C1030  O1065   1.294   .     A
C1030  O1064   1.287   .     A
C1030  C1033   1.424   .     S
C1031  C1041   1.385   .     A
C1031  H1045   1.085   .     S
C1031  C1033   1.393   .     A
C1032  C1034   1.393   .     A
C1032  C1042   1.383   .     A
C1032  H1046   1.084   .     S
C1033  C1035   1.394   .     A
C1034  C1036   1.394   .     A
C1035  H1047   1.086   .     S
C1035  C1037   1.383   .     A
C1036  H1048   1.085   .     S
C1036  C1038   1.384   .     A
C1037  C1043   1.400   .     A
C1037  C1039   1.412   .     A
C1038  C1040   1.412   .     A
C1038  C1044   1.400   .     A
C1039  C1041   1.413   .     A
C1039  C338    1.391   1_556 S
C1040  C1042   1.412   .     A
C1043  H1049   1.084   .     S
C1043  C315    1.390   1_556 S
C1044  H1050   1.084   .     S
N1057  Zn1067  2.026   .     S
N1058  Zn1068  2.026   .     S
O1059  Zn1067  2.002   .     S
O1060  Zn1068  2.002   .     S
O1061  Zn1067  2.002   .     S
O1062  Zn1068  2.002   .     S
O1063  Zn1067  2.002   .     S
O1064  Zn1068  2.002   .     S
O1065  Zn1067  2.011   .     S
O1066  Zn1068  2.011   .     S
N1069  H1070   1.029   .     S
N1069  C1071   1.448   .     S
C1071  H1073   1.109   .     S
C1071  H1074   1.112   .     S
C1071  H1072   1.111   .     S
N1075  C1077   1.449   .     S
N1075  H1076   1.030   .     S
C1077  H1079   1.109   .     S
C1077  H1080   1.112   .     S
C1077  H1078   1.107   .     S
N1081  H1082   1.029   .     S
N1081  C1083   1.447   .     S
C1083  H1085   1.109   .     S
C1083  H1086   1.112   .     S
C1083  H1084   1.110   .     S
N1087  H1088   1.029   .     S
N1087  C1089   1.453   .     S
C1089  H1090   1.109   .     S
C1089  H1091   1.107   .     S
C1089  H1092   1.111   .     S
C1093  C1102   1.422   .     S
C1093  O1140   1.291   .     A
C1093  O1137   1.289   .     A
C1094  O1138   1.291   .     A
C1094  O1139   1.289   .     A
C1094  C1101   1.422   .     S
C1095  C1120   1.400   .     A
C1095  H1129   1.084   .     S
C1096  C1119   1.400   .     A
C1096  H1130   1.084   .     S
C1096  C420    1.391   1_556 S
C1097  H1131   1.081   .     S
C1097  C1102   1.396   .     A
C1098  C1101   1.398   .     A
C1098  H1132   1.084   .     S
C1098  C944    1.371   1_655 S
C1099  H1133   1.081   .     S
C1099  C1101   1.396   .     A
C1099  C941    1.367   1_655 S
C1100  H1134   1.084   .     S
C1100  C1102   1.398   .     A
C1103  N1136   1.364   .     A
C1103  N1147   1.421   .     S
C1104  N1135   1.375   .     A
C1104  N1153   1.422   .     S
C1104  C1339   1.438   .     S
C1105  N1159   1.418   .     S
C1105  N1136   1.369   .     A
C1106  N1165   1.418   .     S
C1106  N1135   1.377   .     A
C1106  C1337   1.430   .     S
C1107  C1112   1.425   .     S
C1107  O1144   1.290   .     A
C1107  O1141   1.292   .     A
C1108  O1143   1.294   .     A
C1108  O1142   1.287   .     A
C1108  C1111   1.424   .     S
C1109  C1119   1.385   .     A
C1109  H1123   1.085   .     S
C1109  C1111   1.393   .     A
C1110  C1112   1.393   .     A
C1110  C1120   1.383   .     A
C1110  H1124   1.084   .     S
C1111  C1113   1.394   .     A
C1112  C1114   1.394   .     A
C1113  H1125   1.086   .     S
C1113  C1115   1.383   .     A
C1114  H1126   1.085   .     S
C1114  C1116   1.384   .     A
C1115  C1121   1.400   .     A
C1115  C1117   1.412   .     A
C1116  C1118   1.412   .     A
C1116  C1122   1.400   .     A
C1117  C1119   1.413   .     A
C1117  C416    1.391   1_556 S
C1118  C1120   1.412   .     A
C1121  H1127   1.084   .     S
C1121  C393    1.390   1_556 S
C1122  H1128   1.084   .     S
N1135  Zn1145  2.026   .     S
N1136  Zn1146  2.026   .     S
O1137  Zn1145  2.002   .     S
O1138  Zn1146  2.002   .     S
O1139  Zn1145  2.002   .     S
O1140  Zn1146  2.002   .     S
O1141  Zn1145  2.002   .     S
O1142  Zn1146  2.002   .     S
O1143  Zn1145  2.011   .     S
O1144  Zn1146  2.011   .     S
N1147  H1148   1.029   .     S
N1147  C1149   1.448   .     S
C1149  H1151   1.109   .     S
C1149  H1152   1.112   .     S
C1149  H1150   1.111   .     S
N1153  C1155   1.449   .     S
N1153  H1154   1.030   .     S
C1155  H1157   1.109   .     S
C1155  H1158   1.112   .     S
C1155  H1156   1.107   .     S
N1159  H1160   1.029   .     S
N1159  C1161   1.447   .     S
C1161  H1163   1.109   .     S
C1161  H1164   1.112   .     S
C1161  H1162   1.110   .     S
N1165  H1166   1.029   .     S
N1165  C1167   1.453   .     S
C1167  H1168   1.109   .     S
C1167  H1169   1.107   .     S
C1167  H1170   1.111   .     S
C1171  C1180   1.422   .     S
C1171  O1218   1.291   .     A
C1171  O1215   1.289   .     A
C1172  O1216   1.291   .     A
C1172  O1217   1.289   .     A
C1172  C1179   1.422   .     S
C1173  C1198   1.400   .     A
C1173  H1207   1.084   .     S
C1174  C1197   1.400   .     A
C1174  H1208   1.084   .     S
C1174  C498    1.391   1_556 S
C1175  H1209   1.081   .     S
C1175  C1180   1.396   .     A
C1175  C1333   1.367   1_455 S
C1176  C1179   1.398   .     A
C1176  H1210   1.084   .     S
C1176  C1256   1.371   .     S
C1177  H1211   1.081   .     S
C1177  C1179   1.396   .     A
C1177  C1253   1.367   .     S
C1178  H1212   1.084   .     S
C1178  C1180   1.398   .     A
C1178  C1332   1.371   1_455 S
C1181  N1214   1.364   .     A
C1181  N1225   1.421   .     S
C1182  N1213   1.375   .     A
C1182  N1231   1.422   .     S
C1182  C715    1.438   1_565 S
C1183  N1237   1.418   .     S
C1183  N1214   1.369   .     A
C1184  N1243   1.418   .     S
C1184  N1213   1.377   .     A
C1184  C713    1.430   1_565 S
C1185  C1190   1.425   .     S
C1185  O1222   1.290   .     A
C1185  O1219   1.292   .     A
C1186  O1221   1.294   .     A
C1186  O1220   1.287   .     A
C1186  C1189   1.424   .     S
C1187  C1197   1.385   .     A
C1187  H1201   1.085   .     S
C1187  C1189   1.393   .     A
C1188  C1190   1.393   .     A
C1188  C1198   1.383   .     A
C1188  H1202   1.084   .     S
C1189  C1191   1.394   .     A
C1190  C1192   1.394   .     A
C1191  H1203   1.086   .     S
C1191  C1193   1.383   .     A
C1192  H1204   1.085   .     S
C1192  C1194   1.384   .     A
C1193  C1199   1.400   .     A
C1193  C1195   1.412   .     A
C1194  C1196   1.412   .     A
C1194  C1200   1.400   .     A
C1195  C1197   1.413   .     A
C1195  C494    1.391   1_556 S
C1196  C1198   1.412   .     A
C1199  H1205   1.084   .     S
C1199  C471    1.390   1_556 S
C1200  H1206   1.084   .     S
N1213  Zn1223  2.026   .     S
N1214  Zn1224  2.026   .     S
O1215  Zn1223  2.002   .     S
O1216  Zn1224  2.002   .     S
O1217  Zn1223  2.002   .     S
O1218  Zn1224  2.002   .     S
O1219  Zn1223  2.002   .     S
O1220  Zn1224  2.002   .     S
O1221  Zn1223  2.011   .     S
O1222  Zn1224  2.011   .     S
N1225  H1226   1.029   .     S
N1225  C1227   1.448   .     S
C1227  H1229   1.109   .     S
C1227  H1230   1.112   .     S
C1227  H1228   1.111   .     S
N1231  C1233   1.449   .     S
N1231  H1232   1.030   .     S
C1233  H1235   1.109   .     S
C1233  H1236   1.112   .     S
C1233  H1234   1.107   .     S
N1237  H1238   1.029   .     S
N1237  C1239   1.447   .     S
C1239  H1241   1.109   .     S
C1239  H1242   1.112   .     S
C1239  H1240   1.110   .     S
N1243  H1244   1.029   .     S
N1243  C1245   1.453   .     S
C1245  H1246   1.109   .     S
C1245  H1247   1.107   .     S
C1245  H1248   1.111   .     S
C1249  C1258   1.422   .     S
C1249  O1296   1.291   .     A
C1249  O1293   1.289   .     A
C1250  O1294   1.291   .     A
C1250  O1295   1.289   .     A
C1250  C1257   1.422   .     S
C1251  C1276   1.400   .     A
C1251  H1285   1.084   .     S
C1252  C1275   1.400   .     A
C1252  H1286   1.084   .     S
C1252  C576    1.391   1_556 S
C1253  H1287   1.081   .     S
C1253  C1258   1.396   .     A
C1254  C1257   1.398   .     A
C1254  H1288   1.084   .     S
C1254  C1334   1.371   .     S
C1255  H1289   1.081   .     S
C1255  C1257   1.396   .     A
C1255  C1331   1.367   .     S
C1256  H1290   1.084   .     S
C1256  C1258   1.398   .     A
C1259  N1292   1.364   .     A
C1259  N1303   1.421   .     S
C1260  N1291   1.375   .     A
C1260  N1309   1.422   .     S
C1260  C793    1.438   1_565 S
C1261  N1315   1.418   .     S
C1261  N1292   1.369   .     A
C1262  N1321   1.418   .     S
C1262  N1291   1.377   .     A
C1262  C791    1.430   1_565 S
C1263  C1268   1.425   .     S
C1263  O1300   1.290   .     A
C1263  O1297   1.292   .     A
C1264  O1299   1.294   .     A
C1264  O1298   1.287   .     A
C1264  C1267   1.424   .     S
C1265  C1275   1.385   .     A
C1265  H1279   1.085   .     S
C1265  C1267   1.393   .     A
C1266  C1268   1.393   .     A
C1266  C1276   1.383   .     A
C1266  H1280   1.084   .     S
C1267  C1269   1.394   .     A
C1268  C1270   1.394   .     A
C1269  H1281   1.086   .     S
C1269  C1271   1.383   .     A
C1270  H1282   1.085   .     S
C1270  C1272   1.384   .     A
C1271  C1277   1.400   .     A
C1271  C1273   1.412   .     A
C1272  C1274   1.412   .     A
C1272  C1278   1.400   .     A
C1273  C1275   1.413   .     A
C1273  C572    1.391   1_556 S
C1274  C1276   1.412   .     A
C1277  H1283   1.084   .     S
C1277  C549    1.390   1_556 S
C1278  H1284   1.084   .     S
N1291  Zn1301  2.026   .     S
N1292  Zn1302  2.026   .     S
O1293  Zn1301  2.002   .     S
O1294  Zn1302  2.002   .     S
O1295  Zn1301  2.002   .     S
O1296  Zn1302  2.002   .     S
O1297  Zn1301  2.002   .     S
O1298  Zn1302  2.002   .     S
O1299  Zn1301  2.011   .     S
O1300  Zn1302  2.011   .     S
N1303  H1304   1.029   .     S
N1303  C1305   1.448   .     S
C1305  H1307   1.109   .     S
C1305  H1308   1.112   .     S
C1305  H1306   1.111   .     S
N1309  C1311   1.449   .     S
N1309  H1310   1.030   .     S
C1311  H1313   1.109   .     S
C1311  H1314   1.112   .     S
C1311  H1312   1.107   .     S
N1315  H1316   1.029   .     S
N1315  C1317   1.447   .     S
C1317  H1319   1.109   .     S
C1317  H1320   1.112   .     S
C1317  H1318   1.110   .     S
N1321  H1322   1.029   .     S
N1321  C1323   1.453   .     S
C1323  H1324   1.109   .     S
C1323  H1325   1.107   .     S
C1323  H1326   1.111   .     S
C1327  C1336   1.422   .     S
C1327  O1374   1.291   .     A
C1327  O1371   1.289   .     A
C1328  O1372   1.291   .     A
C1328  O1373   1.289   .     A
C1328  C1335   1.422   .     S
C1329  C1354   1.400   .     A
C1329  H1363   1.084   .     S
C1330  C1353   1.400   .     A
C1330  H1364   1.084   .     S
C1330  C654    1.391   1_556 S
C1331  H1365   1.081   .     S
C1331  C1336   1.396   .     A
C1332  C1335   1.398   .     A
C1332  H1366   1.084   .     S
C1332  C1178   1.371   1_655 S
C1333  H1367   1.081   .     S
C1333  C1335   1.396   .     A
C1333  C1175   1.367   1_655 S
C1334  H1368   1.084   .     S
C1334  C1336   1.398   .     A
C1337  N1370   1.364   .     A
C1337  N1381   1.421   .     S
C1338  N1369   1.375   .     A
C1338  N1387   1.422   .     S
C1338  C871    1.438   1_565 S
C1339  N1393   1.418   .     S
C1339  N1370   1.369   .     A
C1340  N1399   1.418   .     S
C1340  N1369   1.377   .     A
C1340  C869    1.430   1_565 S
C1341  C1346   1.425   .     S
C1341  O1378   1.290   .     A
C1341  O1375   1.292   .     A
C1342  O1377   1.294   .     A
C1342  O1376   1.287   .     A
C1342  C1345   1.424   .     S
C1343  C1353   1.385   .     A
C1343  H1357   1.085   .     S
C1343  C1345   1.393   .     A
C1344  C1346   1.393   .     A
C1344  C1354   1.383   .     A
C1344  H1358   1.084   .     S
C1345  C1347   1.394   .     A
C1346  C1348   1.394   .     A
C1347  H1359   1.086   .     S
C1347  C1349   1.383   .     A
C1348  H1360   1.085   .     S
C1348  C1350   1.384   .     A
C1349  C1355   1.400   .     A
C1349  C1351   1.412   .     A
C1350  C1352   1.412   .     A
C1350  C1356   1.400   .     A
C1351  C1353   1.413   .     A
C1351  C650    1.391   1_556 S
C1352  C1354   1.412   .     A
C1355  H1361   1.084   .     S
C1355  C627    1.390   1_556 S
C1356  H1362   1.084   .     S
N1369  Zn1379  2.026   .     S
N1370  Zn1380  2.026   .     S
O1371  Zn1379  2.002   .     S
O1372  Zn1380  2.002   .     S
O1373  Zn1379  2.002   .     S
O1374  Zn1380  2.002   .     S
O1375  Zn1379  2.002   .     S
O1376  Zn1380  2.002   .     S
O1377  Zn1379  2.011   .     S
O1378  Zn1380  2.011   .     S
N1381  H1382   1.029   .     S
N1381  C1383   1.448   .     S
C1383  H1385   1.109   .     S
C1383  H1386   1.112   .     S
C1383  H1384   1.111   .     S
N1387  C1389   1.449   .     S
N1387  H1388   1.030   .     S
C1389  H1391   1.109   .     S
C1389  H1392   1.112   .     S
C1389  H1390   1.107   .     S
N1393  H1394   1.029   .     S
N1393  C1395   1.447   .     S
C1395  H1397   1.109   .     S
C1395  H1398   1.112   .     S
C1395  H1396   1.110   .     S
N1399  H1400   1.029   .     S
N1399  C1401   1.453   .     S
C1401  H1402   1.109   .     S
C1401  H1403   1.107   .     S
C1401  H1404   1.111   .     S
