data_str_m3_o1_o1_pcu_sym.30
_audit_creation_date              2020-01-03
_audit_creation_method            'Materials Studio'
_symmetry_space_group_name_H-M    'P1'
_symmetry_Int_Tables_number       1
_symmetry_cell_setting            triclinic
loop_
_symmetry_equiv_pos_as_xyz
  x,y,z
_cell_length_a                    30.4176
_cell_length_b                    30.1536
_cell_length_c                    29.4708
_cell_angle_alpha                 88.5293
_cell_angle_beta                  92.0204
_cell_angle_gamma                 90.4526
loop_
_atom_site_label
_atom_site_type_symbol
_atom_site_fract_x
_atom_site_fract_y
_atom_site_fract_z
_atom_site_U_iso_or_equiv
_atom_site_adp_type
_atom_site_occupancy
C1     C     0.06165   0.19149   0.16787   0.00000  Uiso   1.00
C2     C     0.49615   0.21118   0.31021   0.00000  Uiso   1.00
C3     C     0.49618   0.21117   0.02488   0.00000  Uiso   1.00
C4     C     0.00382   0.28883   0.30845   0.00000  Uiso   1.00
C5     C     0.25385   0.03883   0.02312   0.00000  Uiso   1.00
C6     C     0.24615   0.46117   0.31021   0.00000  Uiso   1.00
C7     C     0.24618   0.46117   0.02488   0.00000  Uiso   1.00
C8     C     0.25382   0.03883   0.30845   0.00000  Uiso   1.00
C9     C     0.36534   0.16728   0.14626   0.00000  Uiso   1.00
C10    C     0.13465   0.33273   0.18709   0.00000  Uiso   1.00
C11    C     0.08194   0.38557   0.14944   0.00000  Uiso   1.00
C12    C     0.43835   0.30851   0.16546   0.00000  Uiso   1.00
C13    C     0.41806   0.11443   0.18388   0.00000  Uiso   1.00
C14    C     0.10051   0.12866   0.20655   0.00000  Uiso   1.00
C15    C     0.39949   0.37134   0.12678   0.00000  Uiso   1.00
C16    C     0.37497   0.34065   0.20039   0.00000  Uiso   1.00
C17    C     0.12503   0.15935   0.13295   0.00000  Uiso   1.00
C18    C     0.11534   0.41728   0.14625   0.00000  Uiso   1.00
C19    C     0.38466   0.08272   0.18707   0.00000  Uiso   1.00
C20    C     0.33193   0.13557   0.14946   0.00000  Uiso   1.00
C21    C     0.16806   0.36444   0.18389   0.00000  Uiso   1.00
C22    C     0.35050   0.37865   0.20655   0.00000  Uiso   1.00
C23    C     0.43980   0.19038   0.16632   0.00000  Uiso   1.00
C24    C     0.14950   0.12135   0.12679   0.00000  Uiso   1.00
C25    C     0.12498   0.09066   0.20039   0.00000  Uiso   1.00
C26    C     0.37502   0.40934   0.13294   0.00000  Uiso   1.00
C27    C     0.09272   0.34341   0.16816   0.00000  Uiso   1.00
C28    C     0.40728   0.15659   0.16518   0.00000  Uiso   1.00
C29    C     0.40247   0.33939   0.16291   0.00000  Uiso   1.00
C30    C     0.09753   0.16061   0.17042   0.00000  Uiso   1.00
C31    C     0.34272   0.09341   0.16816   0.00000  Uiso   1.00
C32    C     0.15728   0.40659   0.16517   0.00000  Uiso   1.00
C33    C     0.15248   0.08940   0.16291   0.00000  Uiso   1.00
C34    C     0.06021   0.30962   0.16702   0.00000  Uiso   1.00
C35    C     0.34752   0.41060   0.17042   0.00000  Uiso   1.00
C36    C     0.35731   0.21233   0.12281   0.00000  Uiso   1.00
C37    C     0.14268   0.28769   0.21056   0.00000  Uiso   1.00
C38    C     0.03490   0.39742   0.13506   0.00000  Uiso   1.00
C39    C     0.46510   0.10257   0.19825   0.00000  Uiso   1.00
C40    C     0.07939   0.13548   0.25197   0.00000  Uiso   1.00
C41    C     0.42060   0.36450   0.08136   0.00000  Uiso   1.00
C42    C     0.36901   0.30036   0.23190   0.00000  Uiso   1.00
C43    C     0.13100   0.19964   0.10144   0.00000  Uiso   1.00
C44    C     0.10732   0.46232   0.12280   0.00000  Uiso   1.00
C45    C     0.31165   0.44149   0.16787   0.00000  Uiso   1.00
C46    C     0.39269   0.03767   0.21051   0.00000  Uiso   1.00
C47    C     0.28490   0.14743   0.13509   0.00000  Uiso   1.00
C48    C     0.21510   0.35258   0.19826   0.00000  Uiso   1.00
C49    C     0.32938   0.38548   0.25197   0.00000  Uiso   1.00
C50    C     0.17062   0.11453   0.08137   0.00000  Uiso   1.00
C51    C     0.11901   0.05037   0.23190   0.00000  Uiso   1.00
C52    C     0.38099   0.44962   0.10142   0.00000  Uiso   1.00
C53    C     0.18835   0.05852   0.16546   0.00000  Uiso   1.00
C54    C     0.18980   0.44038   0.16632   0.00000  Uiso   1.00
C55    C     0.31020   0.05962   0.16702   0.00000  Uiso   1.00
C56    C     0.00385   0.28882   0.02312   0.00000  Uiso   1.00
H57    H     0.00705   0.31982   0.04063   0.00000  Uiso   1.00
H58    H     0.32328   0.21767   0.10954   0.00000  Uiso   1.00
H59    H     0.36508   0.23930   0.14663   0.00000  Uiso   1.00
H60    H     0.12141   0.28397   0.24026   0.00000  Uiso   1.00
H61    H     0.13493   0.26071   0.18674   0.00000  Uiso   1.00
H62    H     0.17670   0.28236   0.22385   0.00000  Uiso   1.00
H63    H     0.01040   0.37208   0.14516   0.00000  Uiso   1.00
H64    H     0.02506   0.42811   0.15197   0.00000  Uiso   1.00
H65    H     0.03217   0.40237   0.09761   0.00000  Uiso   1.00
H66    H     0.48960   0.12793   0.18818   0.00000  Uiso   1.00
H67    H     0.46783   0.09758   0.23569   0.00000  Uiso   1.00
H68    H     0.49295   0.18018   0.29270   0.00000  Uiso   1.00
H69    H     0.47494   0.07190   0.18130   0.00000  Uiso   1.00
H70    H     0.08915   0.16840   0.26523   0.00000  Uiso   1.00
H71    H     0.04315   0.13269   0.24834   0.00000  Uiso   1.00
H72    H     0.09030   0.11163   0.27914   0.00000  Uiso   1.00
H73    H     0.41084   0.33158   0.06811   0.00000  Uiso   1.00
H74    H     0.40968   0.38836   0.05419   0.00000  Uiso   1.00
H75    H     0.45683   0.36730   0.08499   0.00000  Uiso   1.00
H76    H     0.37931   0.26909   0.21666   0.00000  Uiso   1.00
H77    H     0.38817   0.30478   0.26427   0.00000  Uiso   1.00
H78    H     0.33365   0.29542   0.23898   0.00000  Uiso   1.00
H79    H     0.49315   0.18015   0.04381   0.00000  Uiso   1.00
H80    H     0.12069   0.23092   0.11669   0.00000  Uiso   1.00
H81    H     0.16636   0.20459   0.09437   0.00000  Uiso   1.00
H82    H     0.11184   0.19523   0.06907   0.00000  Uiso   1.00
H83    H     0.12856   0.46605   0.09309   0.00000  Uiso   1.00
H84    H     0.07328   0.46767   0.10955   0.00000  Uiso   1.00
H85    H     0.11509   0.48929   0.14662   0.00000  Uiso   1.00
H86    H     0.37145   0.03395   0.24024   0.00000  Uiso   1.00
H87    H     0.38489   0.01071   0.18669   0.00000  Uiso   1.00
H88    H     0.42673   0.03231   0.22375   0.00000  Uiso   1.00
H89    H     0.26040   0.12209   0.14520   0.00000  Uiso   1.00
H90    H     0.00685   0.31985   0.28952   0.00000  Uiso   1.00
H91    H     0.27507   0.17813   0.15201   0.00000  Uiso   1.00
H92    H     0.28216   0.15238   0.09764   0.00000  Uiso   1.00
H93    H     0.23960   0.37791   0.18813   0.00000  Uiso   1.00
H94    H     0.21784   0.34765   0.23572   0.00000  Uiso   1.00
H95    H     0.22492   0.32187   0.18136   0.00000  Uiso   1.00
H96    H     0.33914   0.41839   0.26523   0.00000  Uiso   1.00
H97    H     0.29314   0.38269   0.24833   0.00000  Uiso   1.00
H98    H     0.34028   0.36162   0.27914   0.00000  Uiso   1.00
H99    H     0.16087   0.08162   0.06810   0.00000  Uiso   1.00
H100   H     0.15972   0.13839   0.05420   0.00000  Uiso   1.00
H101   H     0.25705   0.06982   0.04063   0.00000  Uiso   1.00
H102   H     0.20686   0.11731   0.08501   0.00000  Uiso   1.00
H103   H     0.12931   0.01909   0.21666   0.00000  Uiso   1.00
H104   H     0.13817   0.05478   0.26427   0.00000  Uiso   1.00
H105   H     0.08365   0.04543   0.23897   0.00000  Uiso   1.00
H106   H     0.37069   0.48090   0.11667   0.00000  Uiso   1.00
H107   H     0.41635   0.45456   0.09434   0.00000  Uiso   1.00
H108   H     0.36182   0.44521   0.06906   0.00000  Uiso   1.00
H109   H     0.24295   0.43018   0.29270   0.00000  Uiso   1.00
H110   H     0.24315   0.43015   0.04381   0.00000  Uiso   1.00
H111   H     0.25685   0.06985   0.28952   0.00000  Uiso   1.00
H112   H     0.37857   0.21605   0.09310   0.00000  Uiso   1.00
N113   N     0.00000   0.25000   0.28573   0.00000  Uiso   1.00
N114   N     0.00000   0.25000   0.04760   0.00000  Uiso   1.00
N115   N     0.25000  -0.00000   0.28573   0.00000  Uiso   1.00
N116   N     0.25000   0.00000   0.04760   0.00000  Uiso   1.00
O117   O     0.04581   0.20419   0.20487   0.00000  Uiso   1.00
O118   O     0.20420   0.04581   0.12846   0.00000  Uiso   1.00
O119   O     0.20420   0.04581   0.20487   0.00000  Uiso   1.00
O120   O     0.29581   0.45419   0.12846   0.00000  Uiso   1.00
O121   O     0.20420   0.45419   0.12846   0.00000  Uiso   1.00
O122   O     0.29581   0.04581   0.20487   0.00000  Uiso   1.00
O123   O     0.29581   0.04581   0.12846   0.00000  Uiso   1.00
O124   O     0.20420   0.45419   0.20487   0.00000  Uiso   1.00
O125   O     0.45420   0.29581   0.12846   0.00000  Uiso   1.00
O126   O     0.45420   0.29581   0.20487   0.00000  Uiso   1.00
O127   O     0.04581   0.20419   0.12846   0.00000  Uiso   1.00
O128   O     0.45420   0.20419   0.12846   0.00000  Uiso   1.00
O129   O     0.04581   0.29581   0.20487   0.00000  Uiso   1.00
O130   O     0.04581   0.29581   0.12846   0.00000  Uiso   1.00
O131   O     0.45420   0.20419   0.20487   0.00000  Uiso   1.00
O132   O     0.29581   0.45419   0.20487   0.00000  Uiso   1.00
Zn133  Zn    0.00000   0.25000   0.21771   0.00000  Uiso   1.00
Zn134  Zn    0.00000   0.25000   0.11563   0.00000  Uiso   1.00
Zn135  Zn    0.25000   0.00000   0.21771   0.00000  Uiso   1.00
Zn136  Zn    0.25000  -0.00000   0.11563   0.00000  Uiso   1.00
C137   C     0.56165   0.19149   0.16787   0.00000  Uiso   1.00
C138   C     0.99615   0.21118   0.31021   0.00000  Uiso   1.00
C139   C     0.99618   0.21117   0.02488   0.00000  Uiso   1.00
C140   C     0.50382   0.28883   0.30845   0.00000  Uiso   1.00
C141   C     0.75385   0.03883   0.02312   0.00000  Uiso   1.00
C142   C     0.74615   0.46117   0.31021   0.00000  Uiso   1.00
C143   C     0.74618   0.46117   0.02488   0.00000  Uiso   1.00
C144   C     0.75382   0.03883   0.30845   0.00000  Uiso   1.00
C145   C     0.86534   0.16728   0.14626   0.00000  Uiso   1.00
C146   C     0.63465   0.33273   0.18709   0.00000  Uiso   1.00
C147   C     0.58194   0.38557   0.14944   0.00000  Uiso   1.00
C148   C     0.93835   0.30851   0.16546   0.00000  Uiso   1.00
C149   C     0.91806   0.11443   0.18388   0.00000  Uiso   1.00
C150   C     0.60051   0.12866   0.20655   0.00000  Uiso   1.00
C151   C     0.89949   0.37134   0.12678   0.00000  Uiso   1.00
C152   C     0.87497   0.34065   0.20039   0.00000  Uiso   1.00
C153   C     0.62503   0.15935   0.13295   0.00000  Uiso   1.00
C154   C     0.61534   0.41728   0.14625   0.00000  Uiso   1.00
C155   C     0.88466   0.08272   0.18707   0.00000  Uiso   1.00
C156   C     0.83193   0.13557   0.14946   0.00000  Uiso   1.00
C157   C     0.66806   0.36444   0.18389   0.00000  Uiso   1.00
C158   C     0.85050   0.37865   0.20655   0.00000  Uiso   1.00
C159   C     0.93980   0.19038   0.16632   0.00000  Uiso   1.00
C160   C     0.64950   0.12135   0.12679   0.00000  Uiso   1.00
C161   C     0.62498   0.09066   0.20039   0.00000  Uiso   1.00
C162   C     0.87502   0.40934   0.13294   0.00000  Uiso   1.00
C163   C     0.59272   0.34341   0.16816   0.00000  Uiso   1.00
C164   C     0.90728   0.15659   0.16518   0.00000  Uiso   1.00
C165   C     0.90247   0.33939   0.16291   0.00000  Uiso   1.00
C166   C     0.59753   0.16061   0.17042   0.00000  Uiso   1.00
C167   C     0.84272   0.09341   0.16816   0.00000  Uiso   1.00
C168   C     0.65728   0.40659   0.16517   0.00000  Uiso   1.00
C169   C     0.65248   0.08940   0.16291   0.00000  Uiso   1.00
C170   C     0.56021   0.30962   0.16702   0.00000  Uiso   1.00
C171   C     0.84752   0.41060   0.17042   0.00000  Uiso   1.00
C172   C     0.85731   0.21233   0.12281   0.00000  Uiso   1.00
C173   C     0.64268   0.28769   0.21056   0.00000  Uiso   1.00
C174   C     0.53490   0.39742   0.13506   0.00000  Uiso   1.00
C175   C     0.96510   0.10257   0.19825   0.00000  Uiso   1.00
C176   C     0.57939   0.13548   0.25197   0.00000  Uiso   1.00
C177   C     0.92060   0.36450   0.08136   0.00000  Uiso   1.00
C178   C     0.86901   0.30036   0.23190   0.00000  Uiso   1.00
C179   C     0.63100   0.19964   0.10144   0.00000  Uiso   1.00
C180   C     0.60732   0.46232   0.12280   0.00000  Uiso   1.00
C181   C     0.81165   0.44149   0.16787   0.00000  Uiso   1.00
C182   C     0.89269   0.03767   0.21051   0.00000  Uiso   1.00
C183   C     0.78490   0.14743   0.13509   0.00000  Uiso   1.00
C184   C     0.71510   0.35258   0.19826   0.00000  Uiso   1.00
C185   C     0.82938   0.38548   0.25197   0.00000  Uiso   1.00
C186   C     0.67062   0.11453   0.08137   0.00000  Uiso   1.00
C187   C     0.61901   0.05037   0.23190   0.00000  Uiso   1.00
C188   C     0.88099   0.44962   0.10142   0.00000  Uiso   1.00
C189   C     0.68835   0.05852   0.16546   0.00000  Uiso   1.00
C190   C     0.68980   0.44038   0.16632   0.00000  Uiso   1.00
C191   C     0.81020   0.05962   0.16702   0.00000  Uiso   1.00
C192   C     0.50385   0.28882   0.02312   0.00000  Uiso   1.00
H193   H     0.50705   0.31982   0.04063   0.00000  Uiso   1.00
H194   H     0.82328   0.21767   0.10954   0.00000  Uiso   1.00
H195   H     0.86508   0.23930   0.14663   0.00000  Uiso   1.00
H196   H     0.62141   0.28397   0.24026   0.00000  Uiso   1.00
H197   H     0.63493   0.26071   0.18674   0.00000  Uiso   1.00
H198   H     0.67670   0.28236   0.22385   0.00000  Uiso   1.00
H199   H     0.51040   0.37208   0.14516   0.00000  Uiso   1.00
H200   H     0.52506   0.42811   0.15197   0.00000  Uiso   1.00
H201   H     0.53217   0.40237   0.09761   0.00000  Uiso   1.00
H202   H     0.98960   0.12793   0.18818   0.00000  Uiso   1.00
H203   H     0.96783   0.09758   0.23569   0.00000  Uiso   1.00
H204   H     0.99295   0.18018   0.29270   0.00000  Uiso   1.00
H205   H     0.97494   0.07190   0.18130   0.00000  Uiso   1.00
H206   H     0.58915   0.16840   0.26523   0.00000  Uiso   1.00
H207   H     0.54315   0.13269   0.24834   0.00000  Uiso   1.00
H208   H     0.59030   0.11163   0.27914   0.00000  Uiso   1.00
H209   H     0.91084   0.33158   0.06811   0.00000  Uiso   1.00
H210   H     0.90968   0.38836   0.05419   0.00000  Uiso   1.00
H211   H     0.95683   0.36730   0.08499   0.00000  Uiso   1.00
H212   H     0.87931   0.26909   0.21666   0.00000  Uiso   1.00
H213   H     0.88817   0.30478   0.26427   0.00000  Uiso   1.00
H214   H     0.83365   0.29542   0.23898   0.00000  Uiso   1.00
H215   H     0.99315   0.18015   0.04381   0.00000  Uiso   1.00
H216   H     0.62069   0.23092   0.11669   0.00000  Uiso   1.00
H217   H     0.66636   0.20459   0.09437   0.00000  Uiso   1.00
H218   H     0.61184   0.19523   0.06907   0.00000  Uiso   1.00
H219   H     0.62856   0.46605   0.09309   0.00000  Uiso   1.00
H220   H     0.57328   0.46767   0.10955   0.00000  Uiso   1.00
H221   H     0.61509   0.48929   0.14662   0.00000  Uiso   1.00
H222   H     0.87145   0.03395   0.24024   0.00000  Uiso   1.00
H223   H     0.88489   0.01071   0.18669   0.00000  Uiso   1.00
H224   H     0.92673   0.03231   0.22375   0.00000  Uiso   1.00
H225   H     0.76040   0.12209   0.14520   0.00000  Uiso   1.00
H226   H     0.50685   0.31985   0.28952   0.00000  Uiso   1.00
H227   H     0.77507   0.17813   0.15201   0.00000  Uiso   1.00
H228   H     0.78216   0.15238   0.09764   0.00000  Uiso   1.00
H229   H     0.73960   0.37791   0.18813   0.00000  Uiso   1.00
H230   H     0.71784   0.34765   0.23572   0.00000  Uiso   1.00
H231   H     0.72492   0.32187   0.18136   0.00000  Uiso   1.00
H232   H     0.83914   0.41839   0.26523   0.00000  Uiso   1.00
H233   H     0.79314   0.38269   0.24833   0.00000  Uiso   1.00
H234   H     0.84028   0.36162   0.27914   0.00000  Uiso   1.00
H235   H     0.66087   0.08162   0.06810   0.00000  Uiso   1.00
H236   H     0.65972   0.13839   0.05420   0.00000  Uiso   1.00
H237   H     0.75705   0.06982   0.04063   0.00000  Uiso   1.00
H238   H     0.70686   0.11731   0.08501   0.00000  Uiso   1.00
H239   H     0.62931   0.01909   0.21666   0.00000  Uiso   1.00
H240   H     0.63817   0.05478   0.26427   0.00000  Uiso   1.00
H241   H     0.58365   0.04543   0.23897   0.00000  Uiso   1.00
H242   H     0.87069   0.48090   0.11667   0.00000  Uiso   1.00
H243   H     0.91635   0.45456   0.09434   0.00000  Uiso   1.00
H244   H     0.86182   0.44521   0.06906   0.00000  Uiso   1.00
H245   H     0.74295   0.43018   0.29270   0.00000  Uiso   1.00
H246   H     0.74315   0.43015   0.04381   0.00000  Uiso   1.00
H247   H     0.75685   0.06985   0.28952   0.00000  Uiso   1.00
H248   H     0.87857   0.21605   0.09310   0.00000  Uiso   1.00
N249   N     0.50000   0.25000   0.28573   0.00000  Uiso   1.00
N250   N     0.50000   0.25000   0.04760   0.00000  Uiso   1.00
N251   N     0.75000  -0.00000   0.28573   0.00000  Uiso   1.00
N252   N     0.75000   0.00000   0.04760   0.00000  Uiso   1.00
O253   O     0.54581   0.20419   0.20487   0.00000  Uiso   1.00
O254   O     0.70420   0.04581   0.12846   0.00000  Uiso   1.00
O255   O     0.70420   0.04581   0.20487   0.00000  Uiso   1.00
O256   O     0.79581   0.45419   0.12846   0.00000  Uiso   1.00
O257   O     0.70420   0.45419   0.12846   0.00000  Uiso   1.00
O258   O     0.79581   0.04581   0.20487   0.00000  Uiso   1.00
O259   O     0.79581   0.04581   0.12846   0.00000  Uiso   1.00
O260   O     0.70420   0.45419   0.20487   0.00000  Uiso   1.00
O261   O     0.95420   0.29581   0.12846   0.00000  Uiso   1.00
O262   O     0.95420   0.29581   0.20487   0.00000  Uiso   1.00
O263   O     0.54581   0.20419   0.12846   0.00000  Uiso   1.00
O264   O     0.95420   0.20419   0.12846   0.00000  Uiso   1.00
O265   O     0.54581   0.29581   0.20487   0.00000  Uiso   1.00
O266   O     0.54581   0.29581   0.12846   0.00000  Uiso   1.00
O267   O     0.95420   0.20419   0.20487   0.00000  Uiso   1.00
O268   O     0.79581   0.45419   0.20487   0.00000  Uiso   1.00
Zn269  Zn    0.50000   0.25000   0.21771   0.00000  Uiso   1.00
Zn270  Zn    0.50000   0.25000   0.11563   0.00000  Uiso   1.00
Zn271  Zn    0.75000   0.00000   0.21771   0.00000  Uiso   1.00
Zn272  Zn    0.75000  -0.00000   0.11563   0.00000  Uiso   1.00
C273   C     0.06165   0.69149   0.16787   0.00000  Uiso   1.00
C274   C     0.49615   0.71118   0.31021   0.00000  Uiso   1.00
C275   C     0.49618   0.71117   0.02488   0.00000  Uiso   1.00
C276   C     0.00382   0.78883   0.30845   0.00000  Uiso   1.00
C277   C     0.25385   0.53883   0.02312   0.00000  Uiso   1.00
C278   C     0.24615   0.96117   0.31021   0.00000  Uiso   1.00
C279   C     0.24618   0.96117   0.02488   0.00000  Uiso   1.00
C280   C     0.25382   0.53883   0.30845   0.00000  Uiso   1.00
C281   C     0.36534   0.66728   0.14626   0.00000  Uiso   1.00
C282   C     0.13465   0.83273   0.18709   0.00000  Uiso   1.00
C283   C     0.08194   0.88557   0.14944   0.00000  Uiso   1.00
C284   C     0.43835   0.80851   0.16546   0.00000  Uiso   1.00
C285   C     0.41806   0.61443   0.18388   0.00000  Uiso   1.00
C286   C     0.10051   0.62866   0.20655   0.00000  Uiso   1.00
C287   C     0.39949   0.87134   0.12678   0.00000  Uiso   1.00
C288   C     0.37497   0.84065   0.20039   0.00000  Uiso   1.00
C289   C     0.12503   0.65935   0.13295   0.00000  Uiso   1.00
C290   C     0.11534   0.91728   0.14625   0.00000  Uiso   1.00
C291   C     0.38466   0.58272   0.18707   0.00000  Uiso   1.00
C292   C     0.33193   0.63557   0.14946   0.00000  Uiso   1.00
C293   C     0.16806   0.86444   0.18389   0.00000  Uiso   1.00
C294   C     0.35050   0.87865   0.20655   0.00000  Uiso   1.00
C295   C     0.43980   0.69038   0.16632   0.00000  Uiso   1.00
C296   C     0.14950   0.62135   0.12679   0.00000  Uiso   1.00
C297   C     0.12498   0.59066   0.20039   0.00000  Uiso   1.00
C298   C     0.37502   0.90934   0.13294   0.00000  Uiso   1.00
C299   C     0.09272   0.84341   0.16816   0.00000  Uiso   1.00
C300   C     0.40728   0.65659   0.16518   0.00000  Uiso   1.00
C301   C     0.40247   0.83939   0.16291   0.00000  Uiso   1.00
C302   C     0.09753   0.66061   0.17042   0.00000  Uiso   1.00
C303   C     0.34272   0.59341   0.16816   0.00000  Uiso   1.00
C304   C     0.15728   0.90659   0.16517   0.00000  Uiso   1.00
C305   C     0.15248   0.58940   0.16291   0.00000  Uiso   1.00
C306   C     0.06021   0.80962   0.16702   0.00000  Uiso   1.00
C307   C     0.34752   0.91060   0.17042   0.00000  Uiso   1.00
C308   C     0.35731   0.71233   0.12281   0.00000  Uiso   1.00
C309   C     0.14268   0.78769   0.21056   0.00000  Uiso   1.00
C310   C     0.03490   0.89742   0.13506   0.00000  Uiso   1.00
C311   C     0.46510   0.60257   0.19825   0.00000  Uiso   1.00
C312   C     0.07939   0.63548   0.25197   0.00000  Uiso   1.00
C313   C     0.42060   0.86450   0.08136   0.00000  Uiso   1.00
C314   C     0.36901   0.80036   0.23190   0.00000  Uiso   1.00
C315   C     0.13100   0.69964   0.10144   0.00000  Uiso   1.00
C316   C     0.10732   0.96232   0.12280   0.00000  Uiso   1.00
C317   C     0.31165   0.94149   0.16787   0.00000  Uiso   1.00
C318   C     0.39269   0.53767   0.21051   0.00000  Uiso   1.00
C319   C     0.28490   0.64743   0.13509   0.00000  Uiso   1.00
C320   C     0.21510   0.85258   0.19826   0.00000  Uiso   1.00
C321   C     0.32938   0.88548   0.25197   0.00000  Uiso   1.00
C322   C     0.17062   0.61453   0.08137   0.00000  Uiso   1.00
C323   C     0.11901   0.55037   0.23190   0.00000  Uiso   1.00
C324   C     0.38099   0.94962   0.10142   0.00000  Uiso   1.00
C325   C     0.18835   0.55852   0.16546   0.00000  Uiso   1.00
C326   C     0.18980   0.94038   0.16632   0.00000  Uiso   1.00
C327   C     0.31020   0.55962   0.16702   0.00000  Uiso   1.00
C328   C     0.00385   0.78882   0.02312   0.00000  Uiso   1.00
H329   H     0.00705   0.81982   0.04063   0.00000  Uiso   1.00
H330   H     0.32328   0.71767   0.10954   0.00000  Uiso   1.00
H331   H     0.36508   0.73930   0.14663   0.00000  Uiso   1.00
H332   H     0.12141   0.78397   0.24026   0.00000  Uiso   1.00
H333   H     0.13493   0.76071   0.18674   0.00000  Uiso   1.00
H334   H     0.17670   0.78236   0.22385   0.00000  Uiso   1.00
H335   H     0.01040   0.87208   0.14516   0.00000  Uiso   1.00
H336   H     0.02506   0.92811   0.15197   0.00000  Uiso   1.00
H337   H     0.03217   0.90237   0.09761   0.00000  Uiso   1.00
H338   H     0.48960   0.62793   0.18818   0.00000  Uiso   1.00
H339   H     0.46783   0.59758   0.23569   0.00000  Uiso   1.00
H340   H     0.49295   0.68018   0.29270   0.00000  Uiso   1.00
H341   H     0.47494   0.57190   0.18130   0.00000  Uiso   1.00
H342   H     0.08915   0.66840   0.26523   0.00000  Uiso   1.00
H343   H     0.04315   0.63269   0.24834   0.00000  Uiso   1.00
H344   H     0.09030   0.61163   0.27914   0.00000  Uiso   1.00
H345   H     0.41084   0.83158   0.06811   0.00000  Uiso   1.00
H346   H     0.40968   0.88836   0.05419   0.00000  Uiso   1.00
H347   H     0.45683   0.86730   0.08499   0.00000  Uiso   1.00
H348   H     0.37931   0.76909   0.21666   0.00000  Uiso   1.00
H349   H     0.38817   0.80478   0.26427   0.00000  Uiso   1.00
H350   H     0.33365   0.79542   0.23898   0.00000  Uiso   1.00
H351   H     0.49315   0.68015   0.04381   0.00000  Uiso   1.00
H352   H     0.12069   0.73092   0.11669   0.00000  Uiso   1.00
H353   H     0.16636   0.70459   0.09437   0.00000  Uiso   1.00
H354   H     0.11184   0.69523   0.06907   0.00000  Uiso   1.00
H355   H     0.12856   0.96605   0.09309   0.00000  Uiso   1.00
H356   H     0.07328   0.96767   0.10955   0.00000  Uiso   1.00
H357   H     0.11509   0.98929   0.14662   0.00000  Uiso   1.00
H358   H     0.37145   0.53395   0.24024   0.00000  Uiso   1.00
H359   H     0.38489   0.51071   0.18669   0.00000  Uiso   1.00
H360   H     0.42673   0.53231   0.22375   0.00000  Uiso   1.00
H361   H     0.26040   0.62209   0.14520   0.00000  Uiso   1.00
H362   H     0.00685   0.81985   0.28952   0.00000  Uiso   1.00
H363   H     0.27507   0.67813   0.15201   0.00000  Uiso   1.00
H364   H     0.28216   0.65238   0.09764   0.00000  Uiso   1.00
H365   H     0.23960   0.87791   0.18813   0.00000  Uiso   1.00
H366   H     0.21784   0.84765   0.23572   0.00000  Uiso   1.00
H367   H     0.22492   0.82187   0.18136   0.00000  Uiso   1.00
H368   H     0.33914   0.91839   0.26523   0.00000  Uiso   1.00
H369   H     0.29314   0.88269   0.24833   0.00000  Uiso   1.00
H370   H     0.34028   0.86162   0.27914   0.00000  Uiso   1.00
H371   H     0.16087   0.58162   0.06810   0.00000  Uiso   1.00
H372   H     0.15972   0.63839   0.05420   0.00000  Uiso   1.00
H373   H     0.25705   0.56982   0.04063   0.00000  Uiso   1.00
H374   H     0.20686   0.61731   0.08501   0.00000  Uiso   1.00
H375   H     0.12931   0.51909   0.21666   0.00000  Uiso   1.00
H376   H     0.13817   0.55478   0.26427   0.00000  Uiso   1.00
H377   H     0.08365   0.54543   0.23897   0.00000  Uiso   1.00
H378   H     0.37069   0.98090   0.11667   0.00000  Uiso   1.00
H379   H     0.41635   0.95456   0.09434   0.00000  Uiso   1.00
H380   H     0.36182   0.94521   0.06906   0.00000  Uiso   1.00
H381   H     0.24295   0.93018   0.29270   0.00000  Uiso   1.00
H382   H     0.24315   0.93015   0.04381   0.00000  Uiso   1.00
H383   H     0.25685   0.56985   0.28952   0.00000  Uiso   1.00
H384   H     0.37857   0.71605   0.09310   0.00000  Uiso   1.00
N385   N     0.00000   0.75000   0.28573   0.00000  Uiso   1.00
N386   N     0.00000   0.75000   0.04760   0.00000  Uiso   1.00
N387   N     0.25000   0.50000   0.28573   0.00000  Uiso   1.00
N388   N     0.25000   0.50000   0.04760   0.00000  Uiso   1.00
O389   O     0.04581   0.70419   0.20487   0.00000  Uiso   1.00
O390   O     0.20420   0.54581   0.12846   0.00000  Uiso   1.00
O391   O     0.20420   0.54581   0.20487   0.00000  Uiso   1.00
O392   O     0.29581   0.95419   0.12846   0.00000  Uiso   1.00
O393   O     0.20420   0.95419   0.12846   0.00000  Uiso   1.00
O394   O     0.29581   0.54581   0.20487   0.00000  Uiso   1.00
O395   O     0.29581   0.54581   0.12846   0.00000  Uiso   1.00
O396   O     0.20420   0.95419   0.20487   0.00000  Uiso   1.00
O397   O     0.45420   0.79581   0.12846   0.00000  Uiso   1.00
O398   O     0.45420   0.79581   0.20487   0.00000  Uiso   1.00
O399   O     0.04581   0.70419   0.12846   0.00000  Uiso   1.00
O400   O     0.45420   0.70419   0.12846   0.00000  Uiso   1.00
O401   O     0.04581   0.79581   0.20487   0.00000  Uiso   1.00
O402   O     0.04581   0.79581   0.12846   0.00000  Uiso   1.00
O403   O     0.45420   0.70419   0.20487   0.00000  Uiso   1.00
O404   O     0.29581   0.95419   0.20487   0.00000  Uiso   1.00
Zn405  Zn    0.00000   0.75000   0.21771   0.00000  Uiso   1.00
Zn406  Zn    0.00000   0.75000   0.11563   0.00000  Uiso   1.00
Zn407  Zn    0.25000   0.50000   0.21771   0.00000  Uiso   1.00
Zn408  Zn    0.25000   0.50000   0.11563   0.00000  Uiso   1.00
C409   C     0.56165   0.69149   0.16787   0.00000  Uiso   1.00
C410   C     0.99615   0.71118   0.31021   0.00000  Uiso   1.00
C411   C     0.99618   0.71117   0.02488   0.00000  Uiso   1.00
C412   C     0.50382   0.78883   0.30845   0.00000  Uiso   1.00
C413   C     0.75385   0.53883   0.02312   0.00000  Uiso   1.00
C414   C     0.74615   0.96117   0.31021   0.00000  Uiso   1.00
C415   C     0.74618   0.96117   0.02488   0.00000  Uiso   1.00
C416   C     0.75382   0.53883   0.30845   0.00000  Uiso   1.00
C417   C     0.86534   0.66728   0.14626   0.00000  Uiso   1.00
C418   C     0.63465   0.83273   0.18709   0.00000  Uiso   1.00
C419   C     0.58194   0.88557   0.14944   0.00000  Uiso   1.00
C420   C     0.93835   0.80851   0.16546   0.00000  Uiso   1.00
C421   C     0.91806   0.61443   0.18388   0.00000  Uiso   1.00
C422   C     0.60051   0.62866   0.20655   0.00000  Uiso   1.00
C423   C     0.89949   0.87134   0.12678   0.00000  Uiso   1.00
C424   C     0.87497   0.84065   0.20039   0.00000  Uiso   1.00
C425   C     0.62503   0.65935   0.13295   0.00000  Uiso   1.00
C426   C     0.61534   0.91728   0.14625   0.00000  Uiso   1.00
C427   C     0.88466   0.58272   0.18707   0.00000  Uiso   1.00
C428   C     0.83193   0.63557   0.14946   0.00000  Uiso   1.00
C429   C     0.66806   0.86444   0.18389   0.00000  Uiso   1.00
C430   C     0.85050   0.87865   0.20655   0.00000  Uiso   1.00
C431   C     0.93980   0.69038   0.16632   0.00000  Uiso   1.00
C432   C     0.64950   0.62135   0.12679   0.00000  Uiso   1.00
C433   C     0.62498   0.59066   0.20039   0.00000  Uiso   1.00
C434   C     0.87502   0.90934   0.13294   0.00000  Uiso   1.00
C435   C     0.59272   0.84341   0.16816   0.00000  Uiso   1.00
C436   C     0.90728   0.65659   0.16518   0.00000  Uiso   1.00
C437   C     0.90247   0.83939   0.16291   0.00000  Uiso   1.00
C438   C     0.59753   0.66061   0.17042   0.00000  Uiso   1.00
C439   C     0.84272   0.59341   0.16816   0.00000  Uiso   1.00
C440   C     0.65728   0.90659   0.16517   0.00000  Uiso   1.00
C441   C     0.65248   0.58940   0.16291   0.00000  Uiso   1.00
C442   C     0.56021   0.80962   0.16702   0.00000  Uiso   1.00
C443   C     0.84752   0.91060   0.17042   0.00000  Uiso   1.00
C444   C     0.85731   0.71233   0.12281   0.00000  Uiso   1.00
C445   C     0.64268   0.78769   0.21056   0.00000  Uiso   1.00
C446   C     0.53490   0.89742   0.13506   0.00000  Uiso   1.00
C447   C     0.96510   0.60257   0.19825   0.00000  Uiso   1.00
C448   C     0.57939   0.63548   0.25197   0.00000  Uiso   1.00
C449   C     0.92060   0.86450   0.08136   0.00000  Uiso   1.00
C450   C     0.86901   0.80036   0.23190   0.00000  Uiso   1.00
C451   C     0.63100   0.69964   0.10144   0.00000  Uiso   1.00
C452   C     0.60732   0.96232   0.12280   0.00000  Uiso   1.00
C453   C     0.81165   0.94149   0.16787   0.00000  Uiso   1.00
C454   C     0.89269   0.53767   0.21051   0.00000  Uiso   1.00
C455   C     0.78490   0.64743   0.13509   0.00000  Uiso   1.00
C456   C     0.71510   0.85258   0.19826   0.00000  Uiso   1.00
C457   C     0.82938   0.88548   0.25197   0.00000  Uiso   1.00
C458   C     0.67062   0.61453   0.08137   0.00000  Uiso   1.00
C459   C     0.61901   0.55037   0.23190   0.00000  Uiso   1.00
C460   C     0.88099   0.94962   0.10142   0.00000  Uiso   1.00
C461   C     0.68835   0.55852   0.16546   0.00000  Uiso   1.00
C462   C     0.68980   0.94038   0.16632   0.00000  Uiso   1.00
C463   C     0.81020   0.55962   0.16702   0.00000  Uiso   1.00
C464   C     0.50385   0.78882   0.02312   0.00000  Uiso   1.00
H465   H     0.50705   0.81982   0.04063   0.00000  Uiso   1.00
H466   H     0.82328   0.71767   0.10954   0.00000  Uiso   1.00
H467   H     0.86508   0.73930   0.14663   0.00000  Uiso   1.00
H468   H     0.62141   0.78397   0.24026   0.00000  Uiso   1.00
H469   H     0.63493   0.76071   0.18674   0.00000  Uiso   1.00
H470   H     0.67670   0.78236   0.22385   0.00000  Uiso   1.00
H471   H     0.51040   0.87208   0.14516   0.00000  Uiso   1.00
H472   H     0.52506   0.92811   0.15197   0.00000  Uiso   1.00
H473   H     0.53217   0.90237   0.09761   0.00000  Uiso   1.00
H474   H     0.98960   0.62793   0.18818   0.00000  Uiso   1.00
H475   H     0.96783   0.59758   0.23569   0.00000  Uiso   1.00
H476   H     0.99295   0.68018   0.29270   0.00000  Uiso   1.00
H477   H     0.97494   0.57190   0.18130   0.00000  Uiso   1.00
H478   H     0.58915   0.66840   0.26523   0.00000  Uiso   1.00
H479   H     0.54315   0.63269   0.24834   0.00000  Uiso   1.00
H480   H     0.59030   0.61163   0.27914   0.00000  Uiso   1.00
H481   H     0.91084   0.83158   0.06811   0.00000  Uiso   1.00
H482   H     0.90968   0.88836   0.05419   0.00000  Uiso   1.00
H483   H     0.95683   0.86730   0.08499   0.00000  Uiso   1.00
H484   H     0.87931   0.76909   0.21666   0.00000  Uiso   1.00
H485   H     0.88817   0.80478   0.26427   0.00000  Uiso   1.00
H486   H     0.83365   0.79542   0.23898   0.00000  Uiso   1.00
H487   H     0.99315   0.68015   0.04381   0.00000  Uiso   1.00
H488   H     0.62069   0.73092   0.11669   0.00000  Uiso   1.00
H489   H     0.66636   0.70459   0.09437   0.00000  Uiso   1.00
H490   H     0.61184   0.69523   0.06907   0.00000  Uiso   1.00
H491   H     0.62856   0.96605   0.09309   0.00000  Uiso   1.00
H492   H     0.57328   0.96767   0.10955   0.00000  Uiso   1.00
H493   H     0.61509   0.98929   0.14662   0.00000  Uiso   1.00
H494   H     0.87145   0.53395   0.24024   0.00000  Uiso   1.00
H495   H     0.88489   0.51071   0.18669   0.00000  Uiso   1.00
H496   H     0.92673   0.53231   0.22375   0.00000  Uiso   1.00
H497   H     0.76040   0.62209   0.14520   0.00000  Uiso   1.00
H498   H     0.50685   0.81985   0.28952   0.00000  Uiso   1.00
H499   H     0.77507   0.67813   0.15201   0.00000  Uiso   1.00
H500   H     0.78216   0.65238   0.09764   0.00000  Uiso   1.00
H501   H     0.73960   0.87791   0.18813   0.00000  Uiso   1.00
H502   H     0.71784   0.84765   0.23572   0.00000  Uiso   1.00
H503   H     0.72492   0.82187   0.18136   0.00000  Uiso   1.00
H504   H     0.83914   0.91839   0.26523   0.00000  Uiso   1.00
H505   H     0.79314   0.88269   0.24833   0.00000  Uiso   1.00
H506   H     0.84028   0.86162   0.27914   0.00000  Uiso   1.00
H507   H     0.66087   0.58162   0.06810   0.00000  Uiso   1.00
H508   H     0.65972   0.63839   0.05420   0.00000  Uiso   1.00
H509   H     0.75705   0.56982   0.04063   0.00000  Uiso   1.00
H510   H     0.70686   0.61731   0.08501   0.00000  Uiso   1.00
H511   H     0.62931   0.51909   0.21666   0.00000  Uiso   1.00
H512   H     0.63817   0.55478   0.26427   0.00000  Uiso   1.00
H513   H     0.58365   0.54543   0.23897   0.00000  Uiso   1.00
H514   H     0.87069   0.98090   0.11667   0.00000  Uiso   1.00
H515   H     0.91635   0.95456   0.09434   0.00000  Uiso   1.00
H516   H     0.86182   0.94521   0.06906   0.00000  Uiso   1.00
H517   H     0.74295   0.93018   0.29270   0.00000  Uiso   1.00
H518   H     0.74315   0.93015   0.04381   0.00000  Uiso   1.00
H519   H     0.75685   0.56985   0.28952   0.00000  Uiso   1.00
H520   H     0.87857   0.71605   0.09310   0.00000  Uiso   1.00
N521   N     0.50000   0.75000   0.28573   0.00000  Uiso   1.00
N522   N     0.50000   0.75000   0.04760   0.00000  Uiso   1.00
N523   N     0.75000   0.50000   0.28573   0.00000  Uiso   1.00
N524   N     0.75000   0.50000   0.04760   0.00000  Uiso   1.00
O525   O     0.54581   0.70419   0.20487   0.00000  Uiso   1.00
O526   O     0.70420   0.54581   0.12846   0.00000  Uiso   1.00
O527   O     0.70420   0.54581   0.20487   0.00000  Uiso   1.00
O528   O     0.79581   0.95419   0.12846   0.00000  Uiso   1.00
O529   O     0.70420   0.95419   0.12846   0.00000  Uiso   1.00
O530   O     0.79581   0.54581   0.20487   0.00000  Uiso   1.00
O531   O     0.79581   0.54581   0.12846   0.00000  Uiso   1.00
O532   O     0.70420   0.95419   0.20487   0.00000  Uiso   1.00
O533   O     0.95420   0.79581   0.12846   0.00000  Uiso   1.00
O534   O     0.95420   0.79581   0.20487   0.00000  Uiso   1.00
O535   O     0.54581   0.70419   0.12846   0.00000  Uiso   1.00
O536   O     0.95420   0.70419   0.12846   0.00000  Uiso   1.00
O537   O     0.54581   0.79581   0.20487   0.00000  Uiso   1.00
O538   O     0.54581   0.79581   0.12846   0.00000  Uiso   1.00
O539   O     0.95420   0.70419   0.20487   0.00000  Uiso   1.00
O540   O     0.79581   0.95419   0.20487   0.00000  Uiso   1.00
Zn541  Zn    0.50000   0.75000   0.21771   0.00000  Uiso   1.00
Zn542  Zn    0.50000   0.75000   0.11563   0.00000  Uiso   1.00
Zn543  Zn    0.75000   0.50000   0.21771   0.00000  Uiso   1.00
Zn544  Zn    0.75000   0.50000   0.11563   0.00000  Uiso   1.00
C545   C     0.06165   0.19149   0.50120   0.00000  Uiso   1.00
C546   C     0.49615   0.21118   0.64354   0.00000  Uiso   1.00
C547   C     0.49618   0.21117   0.35821   0.00000  Uiso   1.00
C548   C     0.00382   0.28883   0.64179   0.00000  Uiso   1.00
C549   C     0.25385   0.03883   0.35645   0.00000  Uiso   1.00
C550   C     0.24615   0.46117   0.64355   0.00000  Uiso   1.00
C551   C     0.24618   0.46117   0.35821   0.00000  Uiso   1.00
C552   C     0.25382   0.03883   0.64179   0.00000  Uiso   1.00
C553   C     0.36534   0.16728   0.47960   0.00000  Uiso   1.00
C554   C     0.13465   0.33273   0.52042   0.00000  Uiso   1.00
C555   C     0.08194   0.38557   0.48278   0.00000  Uiso   1.00
C556   C     0.43835   0.30851   0.49880   0.00000  Uiso   1.00
C557   C     0.41806   0.11443   0.51721   0.00000  Uiso   1.00
C558   C     0.10051   0.12866   0.53988   0.00000  Uiso   1.00
C559   C     0.39949   0.37134   0.46012   0.00000  Uiso   1.00
C560   C     0.37497   0.34065   0.53372   0.00000  Uiso   1.00
C561   C     0.12503   0.15935   0.46628   0.00000  Uiso   1.00
C562   C     0.11534   0.41728   0.47959   0.00000  Uiso   1.00
C563   C     0.38466   0.08272   0.52040   0.00000  Uiso   1.00
C564   C     0.33193   0.13557   0.48279   0.00000  Uiso   1.00
C565   C     0.16806   0.36444   0.51722   0.00000  Uiso   1.00
C566   C     0.35050   0.37865   0.53988   0.00000  Uiso   1.00
C567   C     0.43980   0.19038   0.49965   0.00000  Uiso   1.00
C568   C     0.14950   0.12135   0.46012   0.00000  Uiso   1.00
C569   C     0.12498   0.09066   0.53372   0.00000  Uiso   1.00
C570   C     0.37502   0.40934   0.46628   0.00000  Uiso   1.00
C571   C     0.09272   0.34341   0.50149   0.00000  Uiso   1.00
C572   C     0.40728   0.15659   0.49851   0.00000  Uiso   1.00
C573   C     0.40247   0.33939   0.49625   0.00000  Uiso   1.00
C574   C     0.09753   0.16061   0.50375   0.00000  Uiso   1.00
C575   C     0.34272   0.09341   0.50149   0.00000  Uiso   1.00
C576   C     0.15728   0.40659   0.49851   0.00000  Uiso   1.00
C577   C     0.15248   0.08940   0.49625   0.00000  Uiso   1.00
C578   C     0.06021   0.30962   0.50035   0.00000  Uiso   1.00
C579   C     0.34752   0.41060   0.50375   0.00000  Uiso   1.00
C580   C     0.35731   0.21233   0.45614   0.00000  Uiso   1.00
C581   C     0.14268   0.28769   0.54389   0.00000  Uiso   1.00
C582   C     0.03490   0.39742   0.46839   0.00000  Uiso   1.00
C583   C     0.46510   0.10257   0.53158   0.00000  Uiso   1.00
C584   C     0.07939   0.13548   0.58530   0.00000  Uiso   1.00
C585   C     0.42060   0.36450   0.41469   0.00000  Uiso   1.00
C586   C     0.36901   0.30036   0.56523   0.00000  Uiso   1.00
C587   C     0.13100   0.19964   0.43477   0.00000  Uiso   1.00
C588   C     0.10732   0.46232   0.45614   0.00000  Uiso   1.00
C589   C     0.31165   0.44149   0.50120   0.00000  Uiso   1.00
C590   C     0.39269   0.03767   0.54384   0.00000  Uiso   1.00
C591   C     0.28490   0.14743   0.46843   0.00000  Uiso   1.00
C592   C     0.21510   0.35258   0.53159   0.00000  Uiso   1.00
C593   C     0.32938   0.38548   0.58530   0.00000  Uiso   1.00
C594   C     0.17062   0.11453   0.41470   0.00000  Uiso   1.00
C595   C     0.11901   0.05037   0.56523   0.00000  Uiso   1.00
C596   C     0.38099   0.44962   0.43476   0.00000  Uiso   1.00
C597   C     0.18835   0.05852   0.49880   0.00000  Uiso   1.00
C598   C     0.18980   0.44038   0.49965   0.00000  Uiso   1.00
C599   C     0.31020   0.05962   0.50035   0.00000  Uiso   1.00
C600   C     0.00385   0.28882   0.35645   0.00000  Uiso   1.00
H601   H     0.00705   0.31982   0.37397   0.00000  Uiso   1.00
H602   H     0.32328   0.21767   0.44288   0.00000  Uiso   1.00
H603   H     0.36508   0.23930   0.47996   0.00000  Uiso   1.00
H604   H     0.12141   0.28397   0.57359   0.00000  Uiso   1.00
H605   H     0.13493   0.26071   0.52008   0.00000  Uiso   1.00
H606   H     0.17670   0.28236   0.55718   0.00000  Uiso   1.00
H607   H     0.01040   0.37208   0.47849   0.00000  Uiso   1.00
H608   H     0.02506   0.42811   0.48530   0.00000  Uiso   1.00
H609   H     0.03217   0.40237   0.43094   0.00000  Uiso   1.00
H610   H     0.48960   0.12793   0.52152   0.00000  Uiso   1.00
H611   H     0.46783   0.09758   0.56903   0.00000  Uiso   1.00
H612   H     0.49295   0.18018   0.62603   0.00000  Uiso   1.00
H613   H     0.47494   0.07190   0.51463   0.00000  Uiso   1.00
H614   H     0.08915   0.16840   0.59856   0.00000  Uiso   1.00
H615   H     0.04315   0.13269   0.58167   0.00000  Uiso   1.00
H616   H     0.09030   0.11163   0.61247   0.00000  Uiso   1.00
H617   H     0.41084   0.33158   0.40144   0.00000  Uiso   1.00
H618   H     0.40968   0.38836   0.38752   0.00000  Uiso   1.00
H619   H     0.45683   0.36730   0.41832   0.00000  Uiso   1.00
H620   H     0.37931   0.26909   0.54999   0.00000  Uiso   1.00
H621   H     0.38817   0.30478   0.59760   0.00000  Uiso   1.00
H622   H     0.33365   0.29542   0.57231   0.00000  Uiso   1.00
H623   H     0.49315   0.18015   0.37714   0.00000  Uiso   1.00
H624   H     0.12069   0.23092   0.45002   0.00000  Uiso   1.00
H625   H     0.16636   0.20459   0.42770   0.00000  Uiso   1.00
H626   H     0.11184   0.19523   0.40241   0.00000  Uiso   1.00
H627   H     0.12856   0.46605   0.42642   0.00000  Uiso   1.00
H628   H     0.07328   0.46767   0.44288   0.00000  Uiso   1.00
H629   H     0.11509   0.48929   0.47996   0.00000  Uiso   1.00
H630   H     0.37145   0.03395   0.57357   0.00000  Uiso   1.00
H631   H     0.38489   0.01071   0.52003   0.00000  Uiso   1.00
H632   H     0.42673   0.03231   0.55708   0.00000  Uiso   1.00
H633   H     0.26040   0.12209   0.47853   0.00000  Uiso   1.00
H634   H     0.00685   0.31985   0.62286   0.00000  Uiso   1.00
H635   H     0.27507   0.17813   0.48534   0.00000  Uiso   1.00
H636   H     0.28216   0.15238   0.43097   0.00000  Uiso   1.00
H637   H     0.23960   0.37791   0.52146   0.00000  Uiso   1.00
H638   H     0.21784   0.34765   0.56905   0.00000  Uiso   1.00
H639   H     0.22492   0.32187   0.51470   0.00000  Uiso   1.00
H640   H     0.33914   0.41839   0.59856   0.00000  Uiso   1.00
H641   H     0.29314   0.38269   0.58166   0.00000  Uiso   1.00
H642   H     0.34028   0.36162   0.61247   0.00000  Uiso   1.00
H643   H     0.16087   0.08162   0.40143   0.00000  Uiso   1.00
H644   H     0.15972   0.13839   0.38753   0.00000  Uiso   1.00
H645   H     0.25705   0.06982   0.37397   0.00000  Uiso   1.00
H646   H     0.20686   0.11731   0.41834   0.00000  Uiso   1.00
H647   H     0.12931   0.01909   0.54999   0.00000  Uiso   1.00
H648   H     0.13817   0.05478   0.59760   0.00000  Uiso   1.00
H649   H     0.08365   0.04543   0.57231   0.00000  Uiso   1.00
H650   H     0.37069   0.48090   0.45000   0.00000  Uiso   1.00
H651   H     0.41635   0.45456   0.42768   0.00000  Uiso   1.00
H652   H     0.36182   0.44521   0.40239   0.00000  Uiso   1.00
H653   H     0.24295   0.43018   0.62603   0.00000  Uiso   1.00
H654   H     0.24315   0.43015   0.37714   0.00000  Uiso   1.00
H655   H     0.25685   0.06985   0.62286   0.00000  Uiso   1.00
H656   H     0.37857   0.21605   0.42643   0.00000  Uiso   1.00
N657   N     0.00000   0.25000   0.61907   0.00000  Uiso   1.00
N658   N     0.00000   0.25000   0.38093   0.00000  Uiso   1.00
N659   N     0.25000  -0.00000   0.61907   0.00000  Uiso   1.00
N660   N     0.25000   0.00000   0.38093   0.00000  Uiso   1.00
O661   O     0.04581   0.20419   0.53821   0.00000  Uiso   1.00
O662   O     0.20420   0.04581   0.46179   0.00000  Uiso   1.00
O663   O     0.20420   0.04581   0.53821   0.00000  Uiso   1.00
O664   O     0.29581   0.45419   0.46179   0.00000  Uiso   1.00
O665   O     0.20420   0.45419   0.46179   0.00000  Uiso   1.00
O666   O     0.29581   0.04581   0.53821   0.00000  Uiso   1.00
O667   O     0.29581   0.04581   0.46179   0.00000  Uiso   1.00
O668   O     0.20420   0.45419   0.53821   0.00000  Uiso   1.00
O669   O     0.45420   0.29581   0.46179   0.00000  Uiso   1.00
O670   O     0.45420   0.29581   0.53821   0.00000  Uiso   1.00
O671   O     0.04581   0.20419   0.46179   0.00000  Uiso   1.00
O672   O     0.45420   0.20419   0.46179   0.00000  Uiso   1.00
O673   O     0.04581   0.29581   0.53821   0.00000  Uiso   1.00
O674   O     0.04581   0.29581   0.46179   0.00000  Uiso   1.00
O675   O     0.45420   0.20419   0.53821   0.00000  Uiso   1.00
O676   O     0.29581   0.45419   0.53821   0.00000  Uiso   1.00
Zn677  Zn    0.00000   0.25000   0.55104   0.00000  Uiso   1.00
Zn678  Zn    0.00000   0.25000   0.44896   0.00000  Uiso   1.00
Zn679  Zn    0.25000   0.00000   0.55104   0.00000  Uiso   1.00
Zn680  Zn    0.25000  -0.00000   0.44896   0.00000  Uiso   1.00
C681   C     0.56165   0.19149   0.50120   0.00000  Uiso   1.00
C682   C     0.99615   0.21118   0.64354   0.00000  Uiso   1.00
C683   C     0.99618   0.21117   0.35821   0.00000  Uiso   1.00
C684   C     0.50382   0.28883   0.64179   0.00000  Uiso   1.00
C685   C     0.75385   0.03883   0.35645   0.00000  Uiso   1.00
C686   C     0.74615   0.46117   0.64355   0.00000  Uiso   1.00
C687   C     0.74618   0.46117   0.35821   0.00000  Uiso   1.00
C688   C     0.75382   0.03883   0.64179   0.00000  Uiso   1.00
C689   C     0.86534   0.16728   0.47960   0.00000  Uiso   1.00
C690   C     0.63465   0.33273   0.52042   0.00000  Uiso   1.00
C691   C     0.58194   0.38557   0.48278   0.00000  Uiso   1.00
C692   C     0.93835   0.30851   0.49880   0.00000  Uiso   1.00
C693   C     0.91806   0.11443   0.51721   0.00000  Uiso   1.00
C694   C     0.60051   0.12866   0.53988   0.00000  Uiso   1.00
C695   C     0.89949   0.37134   0.46012   0.00000  Uiso   1.00
C696   C     0.87497   0.34065   0.53372   0.00000  Uiso   1.00
C697   C     0.62503   0.15935   0.46628   0.00000  Uiso   1.00
C698   C     0.61534   0.41728   0.47959   0.00000  Uiso   1.00
C699   C     0.88466   0.08272   0.52040   0.00000  Uiso   1.00
C700   C     0.83193   0.13557   0.48279   0.00000  Uiso   1.00
C701   C     0.66806   0.36444   0.51722   0.00000  Uiso   1.00
C702   C     0.85050   0.37865   0.53988   0.00000  Uiso   1.00
C703   C     0.93980   0.19038   0.49965   0.00000  Uiso   1.00
C704   C     0.64950   0.12135   0.46012   0.00000  Uiso   1.00
C705   C     0.62498   0.09066   0.53372   0.00000  Uiso   1.00
C706   C     0.87502   0.40934   0.46628   0.00000  Uiso   1.00
C707   C     0.59272   0.34341   0.50149   0.00000  Uiso   1.00
C708   C     0.90728   0.15659   0.49851   0.00000  Uiso   1.00
C709   C     0.90247   0.33939   0.49625   0.00000  Uiso   1.00
C710   C     0.59753   0.16061   0.50375   0.00000  Uiso   1.00
C711   C     0.84272   0.09341   0.50149   0.00000  Uiso   1.00
C712   C     0.65728   0.40659   0.49851   0.00000  Uiso   1.00
C713   C     0.65248   0.08940   0.49625   0.00000  Uiso   1.00
C714   C     0.56021   0.30962   0.50035   0.00000  Uiso   1.00
C715   C     0.84752   0.41060   0.50375   0.00000  Uiso   1.00
C716   C     0.85731   0.21233   0.45614   0.00000  Uiso   1.00
C717   C     0.64268   0.28769   0.54389   0.00000  Uiso   1.00
C718   C     0.53490   0.39742   0.46839   0.00000  Uiso   1.00
C719   C     0.96510   0.10257   0.53158   0.00000  Uiso   1.00
C720   C     0.57939   0.13548   0.58530   0.00000  Uiso   1.00
C721   C     0.92060   0.36450   0.41469   0.00000  Uiso   1.00
C722   C     0.86901   0.30036   0.56523   0.00000  Uiso   1.00
C723   C     0.63100   0.19964   0.43477   0.00000  Uiso   1.00
C724   C     0.60732   0.46232   0.45614   0.00000  Uiso   1.00
C725   C     0.81165   0.44149   0.50120   0.00000  Uiso   1.00
C726   C     0.89269   0.03767   0.54384   0.00000  Uiso   1.00
C727   C     0.78490   0.14743   0.46843   0.00000  Uiso   1.00
C728   C     0.71510   0.35258   0.53159   0.00000  Uiso   1.00
C729   C     0.82938   0.38548   0.58530   0.00000  Uiso   1.00
C730   C     0.67062   0.11453   0.41470   0.00000  Uiso   1.00
C731   C     0.61901   0.05037   0.56523   0.00000  Uiso   1.00
C732   C     0.88099   0.44962   0.43476   0.00000  Uiso   1.00
C733   C     0.68835   0.05852   0.49880   0.00000  Uiso   1.00
C734   C     0.68980   0.44038   0.49965   0.00000  Uiso   1.00
C735   C     0.81020   0.05962   0.50035   0.00000  Uiso   1.00
C736   C     0.50385   0.28882   0.35645   0.00000  Uiso   1.00
H737   H     0.50705   0.31982   0.37397   0.00000  Uiso   1.00
H738   H     0.82328   0.21767   0.44288   0.00000  Uiso   1.00
H739   H     0.86508   0.23930   0.47996   0.00000  Uiso   1.00
H740   H     0.62141   0.28397   0.57359   0.00000  Uiso   1.00
H741   H     0.63493   0.26071   0.52008   0.00000  Uiso   1.00
H742   H     0.67670   0.28236   0.55718   0.00000  Uiso   1.00
H743   H     0.51040   0.37208   0.47849   0.00000  Uiso   1.00
H744   H     0.52506   0.42811   0.48530   0.00000  Uiso   1.00
H745   H     0.53217   0.40237   0.43094   0.00000  Uiso   1.00
H746   H     0.98960   0.12793   0.52152   0.00000  Uiso   1.00
H747   H     0.96783   0.09758   0.56903   0.00000  Uiso   1.00
H748   H     0.99295   0.18018   0.62603   0.00000  Uiso   1.00
H749   H     0.97494   0.07190   0.51463   0.00000  Uiso   1.00
H750   H     0.58915   0.16840   0.59856   0.00000  Uiso   1.00
H751   H     0.54315   0.13269   0.58167   0.00000  Uiso   1.00
H752   H     0.59030   0.11163   0.61247   0.00000  Uiso   1.00
H753   H     0.91084   0.33158   0.40144   0.00000  Uiso   1.00
H754   H     0.90968   0.38836   0.38752   0.00000  Uiso   1.00
H755   H     0.95683   0.36730   0.41832   0.00000  Uiso   1.00
H756   H     0.87931   0.26909   0.54999   0.00000  Uiso   1.00
H757   H     0.88817   0.30478   0.59760   0.00000  Uiso   1.00
H758   H     0.83365   0.29542   0.57231   0.00000  Uiso   1.00
H759   H     0.99315   0.18015   0.37714   0.00000  Uiso   1.00
H760   H     0.62069   0.23092   0.45002   0.00000  Uiso   1.00
H761   H     0.66636   0.20459   0.42770   0.00000  Uiso   1.00
H762   H     0.61184   0.19523   0.40241   0.00000  Uiso   1.00
H763   H     0.62856   0.46605   0.42642   0.00000  Uiso   1.00
H764   H     0.57328   0.46767   0.44288   0.00000  Uiso   1.00
H765   H     0.61509   0.48929   0.47996   0.00000  Uiso   1.00
H766   H     0.87145   0.03395   0.57357   0.00000  Uiso   1.00
H767   H     0.88489   0.01071   0.52003   0.00000  Uiso   1.00
H768   H     0.92673   0.03231   0.55708   0.00000  Uiso   1.00
H769   H     0.76040   0.12209   0.47853   0.00000  Uiso   1.00
H770   H     0.50685   0.31985   0.62286   0.00000  Uiso   1.00
H771   H     0.77507   0.17813   0.48534   0.00000  Uiso   1.00
H772   H     0.78216   0.15238   0.43097   0.00000  Uiso   1.00
H773   H     0.73960   0.37791   0.52146   0.00000  Uiso   1.00
H774   H     0.71784   0.34765   0.56905   0.00000  Uiso   1.00
H775   H     0.72492   0.32187   0.51470   0.00000  Uiso   1.00
H776   H     0.83914   0.41839   0.59856   0.00000  Uiso   1.00
H777   H     0.79314   0.38269   0.58166   0.00000  Uiso   1.00
H778   H     0.84028   0.36162   0.61247   0.00000  Uiso   1.00
H779   H     0.66087   0.08162   0.40143   0.00000  Uiso   1.00
H780   H     0.65972   0.13839   0.38753   0.00000  Uiso   1.00
H781   H     0.75705   0.06982   0.37397   0.00000  Uiso   1.00
H782   H     0.70686   0.11731   0.41834   0.00000  Uiso   1.00
H783   H     0.62931   0.01909   0.54999   0.00000  Uiso   1.00
H784   H     0.63817   0.05478   0.59760   0.00000  Uiso   1.00
H785   H     0.58365   0.04543   0.57231   0.00000  Uiso   1.00
H786   H     0.87069   0.48090   0.45000   0.00000  Uiso   1.00
H787   H     0.91635   0.45456   0.42768   0.00000  Uiso   1.00
H788   H     0.86182   0.44521   0.40239   0.00000  Uiso   1.00
H789   H     0.74295   0.43018   0.62603   0.00000  Uiso   1.00
H790   H     0.74315   0.43015   0.37714   0.00000  Uiso   1.00
H791   H     0.75685   0.06985   0.62286   0.00000  Uiso   1.00
H792   H     0.87857   0.21605   0.42643   0.00000  Uiso   1.00
N793   N     0.50000   0.25000   0.61907   0.00000  Uiso   1.00
N794   N     0.50000   0.25000   0.38093   0.00000  Uiso   1.00
N795   N     0.75000  -0.00000   0.61907   0.00000  Uiso   1.00
N796   N     0.75000   0.00000   0.38093   0.00000  Uiso   1.00
O797   O     0.54581   0.20419   0.53821   0.00000  Uiso   1.00
O798   O     0.70420   0.04581   0.46179   0.00000  Uiso   1.00
O799   O     0.70420   0.04581   0.53821   0.00000  Uiso   1.00
O800   O     0.79581   0.45419   0.46179   0.00000  Uiso   1.00
O801   O     0.70420   0.45419   0.46179   0.00000  Uiso   1.00
O802   O     0.79581   0.04581   0.53821   0.00000  Uiso   1.00
O803   O     0.79581   0.04581   0.46179   0.00000  Uiso   1.00
O804   O     0.70420   0.45419   0.53821   0.00000  Uiso   1.00
O805   O     0.95420   0.29581   0.46179   0.00000  Uiso   1.00
O806   O     0.95420   0.29581   0.53821   0.00000  Uiso   1.00
O807   O     0.54581   0.20419   0.46179   0.00000  Uiso   1.00
O808   O     0.95420   0.20419   0.46179   0.00000  Uiso   1.00
O809   O     0.54581   0.29581   0.53821   0.00000  Uiso   1.00
O810   O     0.54581   0.29581   0.46179   0.00000  Uiso   1.00
O811   O     0.95420   0.20419   0.53821   0.00000  Uiso   1.00
O812   O     0.79581   0.45419   0.53821   0.00000  Uiso   1.00
Zn813  Zn    0.50000   0.25000   0.55104   0.00000  Uiso   1.00
Zn814  Zn    0.50000   0.25000   0.44896   0.00000  Uiso   1.00
Zn815  Zn    0.75000   0.00000   0.55104   0.00000  Uiso   1.00
Zn816  Zn    0.75000  -0.00000   0.44896   0.00000  Uiso   1.00
C817   C     0.06165   0.69149   0.50120   0.00000  Uiso   1.00
C818   C     0.49615   0.71118   0.64354   0.00000  Uiso   1.00
C819   C     0.49618   0.71117   0.35821   0.00000  Uiso   1.00
C820   C     0.00382   0.78883   0.64179   0.00000  Uiso   1.00
C821   C     0.25385   0.53883   0.35645   0.00000  Uiso   1.00
C822   C     0.24615   0.96117   0.64355   0.00000  Uiso   1.00
C823   C     0.24618   0.96117   0.35821   0.00000  Uiso   1.00
C824   C     0.25382   0.53883   0.64179   0.00000  Uiso   1.00
C825   C     0.36534   0.66728   0.47960   0.00000  Uiso   1.00
C826   C     0.13465   0.83273   0.52042   0.00000  Uiso   1.00
C827   C     0.08194   0.88557   0.48278   0.00000  Uiso   1.00
C828   C     0.43835   0.80851   0.49880   0.00000  Uiso   1.00
C829   C     0.41806   0.61443   0.51721   0.00000  Uiso   1.00
C830   C     0.10051   0.62866   0.53988   0.00000  Uiso   1.00
C831   C     0.39949   0.87134   0.46012   0.00000  Uiso   1.00
C832   C     0.37497   0.84065   0.53372   0.00000  Uiso   1.00
C833   C     0.12503   0.65935   0.46628   0.00000  Uiso   1.00
C834   C     0.11534   0.91728   0.47959   0.00000  Uiso   1.00
C835   C     0.38466   0.58272   0.52040   0.00000  Uiso   1.00
C836   C     0.33193   0.63557   0.48279   0.00000  Uiso   1.00
C837   C     0.16806   0.86444   0.51722   0.00000  Uiso   1.00
C838   C     0.35050   0.87865   0.53988   0.00000  Uiso   1.00
C839   C     0.43980   0.69038   0.49965   0.00000  Uiso   1.00
C840   C     0.14950   0.62135   0.46012   0.00000  Uiso   1.00
C841   C     0.12498   0.59066   0.53372   0.00000  Uiso   1.00
C842   C     0.37502   0.90934   0.46628   0.00000  Uiso   1.00
C843   C     0.09272   0.84341   0.50149   0.00000  Uiso   1.00
C844   C     0.40728   0.65659   0.49851   0.00000  Uiso   1.00
C845   C     0.40247   0.83939   0.49625   0.00000  Uiso   1.00
C846   C     0.09753   0.66061   0.50375   0.00000  Uiso   1.00
C847   C     0.34272   0.59341   0.50149   0.00000  Uiso   1.00
C848   C     0.15728   0.90659   0.49851   0.00000  Uiso   1.00
C849   C     0.15248   0.58940   0.49625   0.00000  Uiso   1.00
C850   C     0.06021   0.80962   0.50035   0.00000  Uiso   1.00
C851   C     0.34752   0.91060   0.50375   0.00000  Uiso   1.00
C852   C     0.35731   0.71233   0.45614   0.00000  Uiso   1.00
C853   C     0.14268   0.78769   0.54389   0.00000  Uiso   1.00
C854   C     0.03490   0.89742   0.46839   0.00000  Uiso   1.00
C855   C     0.46510   0.60257   0.53158   0.00000  Uiso   1.00
C856   C     0.07939   0.63548   0.58530   0.00000  Uiso   1.00
C857   C     0.42060   0.86450   0.41469   0.00000  Uiso   1.00
C858   C     0.36901   0.80036   0.56523   0.00000  Uiso   1.00
C859   C     0.13100   0.69964   0.43477   0.00000  Uiso   1.00
C860   C     0.10732   0.96232   0.45614   0.00000  Uiso   1.00
C861   C     0.31165   0.94149   0.50120   0.00000  Uiso   1.00
C862   C     0.39269   0.53767   0.54384   0.00000  Uiso   1.00
C863   C     0.28490   0.64743   0.46843   0.00000  Uiso   1.00
C864   C     0.21510   0.85258   0.53159   0.00000  Uiso   1.00
C865   C     0.32938   0.88548   0.58530   0.00000  Uiso   1.00
C866   C     0.17062   0.61453   0.41470   0.00000  Uiso   1.00
C867   C     0.11901   0.55037   0.56523   0.00000  Uiso   1.00
C868   C     0.38099   0.94962   0.43476   0.00000  Uiso   1.00
C869   C     0.18835   0.55852   0.49880   0.00000  Uiso   1.00
C870   C     0.18980   0.94038   0.49965   0.00000  Uiso   1.00
C871   C     0.31020   0.55962   0.50035   0.00000  Uiso   1.00
C872   C     0.00385   0.78882   0.35645   0.00000  Uiso   1.00
H873   H     0.00705   0.81982   0.37397   0.00000  Uiso   1.00
H874   H     0.32328   0.71767   0.44288   0.00000  Uiso   1.00
H875   H     0.36508   0.73930   0.47996   0.00000  Uiso   1.00
H876   H     0.12141   0.78397   0.57359   0.00000  Uiso   1.00
H877   H     0.13493   0.76071   0.52008   0.00000  Uiso   1.00
H878   H     0.17670   0.78236   0.55718   0.00000  Uiso   1.00
H879   H     0.01040   0.87208   0.47849   0.00000  Uiso   1.00
H880   H     0.02506   0.92811   0.48530   0.00000  Uiso   1.00
H881   H     0.03217   0.90237   0.43094   0.00000  Uiso   1.00
H882   H     0.48960   0.62793   0.52152   0.00000  Uiso   1.00
H883   H     0.46783   0.59758   0.56903   0.00000  Uiso   1.00
H884   H     0.49295   0.68018   0.62603   0.00000  Uiso   1.00
H885   H     0.47494   0.57190   0.51463   0.00000  Uiso   1.00
H886   H     0.08915   0.66840   0.59856   0.00000  Uiso   1.00
H887   H     0.04315   0.63269   0.58167   0.00000  Uiso   1.00
H888   H     0.09030   0.61163   0.61247   0.00000  Uiso   1.00
H889   H     0.41084   0.83158   0.40144   0.00000  Uiso   1.00
H890   H     0.40968   0.88836   0.38752   0.00000  Uiso   1.00
H891   H     0.45683   0.86730   0.41832   0.00000  Uiso   1.00
H892   H     0.37931   0.76909   0.54999   0.00000  Uiso   1.00
H893   H     0.38817   0.80478   0.59760   0.00000  Uiso   1.00
H894   H     0.33365   0.79542   0.57231   0.00000  Uiso   1.00
H895   H     0.49315   0.68015   0.37714   0.00000  Uiso   1.00
H896   H     0.12069   0.73092   0.45002   0.00000  Uiso   1.00
H897   H     0.16636   0.70459   0.42770   0.00000  Uiso   1.00
H898   H     0.11184   0.69523   0.40241   0.00000  Uiso   1.00
H899   H     0.12856   0.96605   0.42642   0.00000  Uiso   1.00
H900   H     0.07328   0.96767   0.44288   0.00000  Uiso   1.00
H901   H     0.11509   0.98929   0.47996   0.00000  Uiso   1.00
H902   H     0.37145   0.53395   0.57357   0.00000  Uiso   1.00
H903   H     0.38489   0.51071   0.52003   0.00000  Uiso   1.00
H904   H     0.42673   0.53231   0.55708   0.00000  Uiso   1.00
H905   H     0.26040   0.62209   0.47853   0.00000  Uiso   1.00
H906   H     0.00685   0.81985   0.62286   0.00000  Uiso   1.00
H907   H     0.27507   0.67813   0.48534   0.00000  Uiso   1.00
H908   H     0.28216   0.65238   0.43097   0.00000  Uiso   1.00
H909   H     0.23960   0.87791   0.52146   0.00000  Uiso   1.00
H910   H     0.21784   0.84765   0.56905   0.00000  Uiso   1.00
H911   H     0.22492   0.82187   0.51470   0.00000  Uiso   1.00
H912   H     0.33914   0.91839   0.59856   0.00000  Uiso   1.00
H913   H     0.29314   0.88269   0.58166   0.00000  Uiso   1.00
H914   H     0.34028   0.86162   0.61247   0.00000  Uiso   1.00
H915   H     0.16087   0.58162   0.40143   0.00000  Uiso   1.00
H916   H     0.15972   0.63839   0.38753   0.00000  Uiso   1.00
H917   H     0.25705   0.56982   0.37397   0.00000  Uiso   1.00
H918   H     0.20686   0.61731   0.41834   0.00000  Uiso   1.00
H919   H     0.12931   0.51909   0.54999   0.00000  Uiso   1.00
H920   H     0.13817   0.55478   0.59760   0.00000  Uiso   1.00
H921   H     0.08365   0.54543   0.57231   0.00000  Uiso   1.00
H922   H     0.37069   0.98090   0.45000   0.00000  Uiso   1.00
H923   H     0.41635   0.95456   0.42768   0.00000  Uiso   1.00
H924   H     0.36182   0.94521   0.40239   0.00000  Uiso   1.00
H925   H     0.24295   0.93018   0.62603   0.00000  Uiso   1.00
H926   H     0.24315   0.93015   0.37714   0.00000  Uiso   1.00
H927   H     0.25685   0.56985   0.62286   0.00000  Uiso   1.00
H928   H     0.37857   0.71605   0.42643   0.00000  Uiso   1.00
N929   N     0.00000   0.75000   0.61907   0.00000  Uiso   1.00
N930   N     0.00000   0.75000   0.38093   0.00000  Uiso   1.00
N931   N     0.25000   0.50000   0.61907   0.00000  Uiso   1.00
N932   N     0.25000   0.50000   0.38093   0.00000  Uiso   1.00
O933   O     0.04581   0.70419   0.53821   0.00000  Uiso   1.00
O934   O     0.20420   0.54581   0.46179   0.00000  Uiso   1.00
O935   O     0.20420   0.54581   0.53821   0.00000  Uiso   1.00
O936   O     0.29581   0.95419   0.46179   0.00000  Uiso   1.00
O937   O     0.20420   0.95419   0.46179   0.00000  Uiso   1.00
O938   O     0.29581   0.54581   0.53821   0.00000  Uiso   1.00
O939   O     0.29581   0.54581   0.46179   0.00000  Uiso   1.00
O940   O     0.20420   0.95419   0.53821   0.00000  Uiso   1.00
O941   O     0.45420   0.79581   0.46179   0.00000  Uiso   1.00
O942   O     0.45420   0.79581   0.53821   0.00000  Uiso   1.00
O943   O     0.04581   0.70419   0.46179   0.00000  Uiso   1.00
O944   O     0.45420   0.70419   0.46179   0.00000  Uiso   1.00
O945   O     0.04581   0.79581   0.53821   0.00000  Uiso   1.00
O946   O     0.04581   0.79581   0.46179   0.00000  Uiso   1.00
O947   O     0.45420   0.70419   0.53821   0.00000  Uiso   1.00
O948   O     0.29581   0.95419   0.53821   0.00000  Uiso   1.00
Zn949  Zn    0.00000   0.75000   0.55104   0.00000  Uiso   1.00
Zn950  Zn    0.00000   0.75000   0.44896   0.00000  Uiso   1.00
Zn951  Zn    0.25000   0.50000   0.55104   0.00000  Uiso   1.00
Zn952  Zn    0.25000   0.50000   0.44896   0.00000  Uiso   1.00
C953   C     0.56165   0.69149   0.50120   0.00000  Uiso   1.00
C954   C     0.99615   0.71118   0.64354   0.00000  Uiso   1.00
C955   C     0.99618   0.71117   0.35821   0.00000  Uiso   1.00
C956   C     0.50382   0.78883   0.64179   0.00000  Uiso   1.00
C957   C     0.75385   0.53883   0.35645   0.00000  Uiso   1.00
C958   C     0.74615   0.96117   0.64355   0.00000  Uiso   1.00
C959   C     0.74618   0.96117   0.35821   0.00000  Uiso   1.00
C960   C     0.75382   0.53883   0.64179   0.00000  Uiso   1.00
C961   C     0.86534   0.66728   0.47960   0.00000  Uiso   1.00
C962   C     0.63465   0.83273   0.52042   0.00000  Uiso   1.00
C963   C     0.58194   0.88557   0.48278   0.00000  Uiso   1.00
C964   C     0.93835   0.80851   0.49880   0.00000  Uiso   1.00
C965   C     0.91806   0.61443   0.51721   0.00000  Uiso   1.00
C966   C     0.60051   0.62866   0.53988   0.00000  Uiso   1.00
C967   C     0.89949   0.87134   0.46012   0.00000  Uiso   1.00
C968   C     0.87497   0.84065   0.53372   0.00000  Uiso   1.00
C969   C     0.62503   0.65935   0.46628   0.00000  Uiso   1.00
C970   C     0.61534   0.91728   0.47959   0.00000  Uiso   1.00
C971   C     0.88466   0.58272   0.52040   0.00000  Uiso   1.00
C972   C     0.83193   0.63557   0.48279   0.00000  Uiso   1.00
C973   C     0.66806   0.86444   0.51722   0.00000  Uiso   1.00
C974   C     0.85050   0.87865   0.53988   0.00000  Uiso   1.00
C975   C     0.93980   0.69038   0.49965   0.00000  Uiso   1.00
C976   C     0.64950   0.62135   0.46012   0.00000  Uiso   1.00
C977   C     0.62498   0.59066   0.53372   0.00000  Uiso   1.00
C978   C     0.87502   0.90934   0.46628   0.00000  Uiso   1.00
C979   C     0.59272   0.84341   0.50149   0.00000  Uiso   1.00
C980   C     0.90728   0.65659   0.49851   0.00000  Uiso   1.00
C981   C     0.90247   0.83939   0.49625   0.00000  Uiso   1.00
C982   C     0.59753   0.66061   0.50375   0.00000  Uiso   1.00
C983   C     0.84272   0.59341   0.50149   0.00000  Uiso   1.00
C984   C     0.65728   0.90659   0.49851   0.00000  Uiso   1.00
C985   C     0.65248   0.58940   0.49625   0.00000  Uiso   1.00
C986   C     0.56021   0.80962   0.50035   0.00000  Uiso   1.00
C987   C     0.84752   0.91060   0.50375   0.00000  Uiso   1.00
C988   C     0.85731   0.71233   0.45614   0.00000  Uiso   1.00
C989   C     0.64268   0.78769   0.54389   0.00000  Uiso   1.00
C990   C     0.53490   0.89742   0.46839   0.00000  Uiso   1.00
C991   C     0.96510   0.60257   0.53158   0.00000  Uiso   1.00
C992   C     0.57939   0.63548   0.58530   0.00000  Uiso   1.00
C993   C     0.92060   0.86450   0.41469   0.00000  Uiso   1.00
C994   C     0.86901   0.80036   0.56523   0.00000  Uiso   1.00
C995   C     0.63100   0.69964   0.43477   0.00000  Uiso   1.00
C996   C     0.60732   0.96232   0.45614   0.00000  Uiso   1.00
C997   C     0.81165   0.94149   0.50120   0.00000  Uiso   1.00
C998   C     0.89269   0.53767   0.54384   0.00000  Uiso   1.00
C999   C     0.78490   0.64743   0.46843   0.00000  Uiso   1.00
C1000  C     0.71510   0.85258   0.53159   0.00000  Uiso   1.00
C1001  C     0.82938   0.88548   0.58530   0.00000  Uiso   1.00
C1002  C     0.67062   0.61453   0.41470   0.00000  Uiso   1.00
C1003  C     0.61901   0.55037   0.56523   0.00000  Uiso   1.00
C1004  C     0.88099   0.94962   0.43476   0.00000  Uiso   1.00
C1005  C     0.68835   0.55852   0.49880   0.00000  Uiso   1.00
C1006  C     0.68980   0.94038   0.49965   0.00000  Uiso   1.00
C1007  C     0.81020   0.55962   0.50035   0.00000  Uiso   1.00
C1008  C     0.50385   0.78882   0.35645   0.00000  Uiso   1.00
H1009  H     0.50705   0.81982   0.37397   0.00000  Uiso   1.00
H1010  H     0.82328   0.71767   0.44288   0.00000  Uiso   1.00
H1011  H     0.86508   0.73930   0.47996   0.00000  Uiso   1.00
H1012  H     0.62141   0.78397   0.57359   0.00000  Uiso   1.00
H1013  H     0.63493   0.76071   0.52008   0.00000  Uiso   1.00
H1014  H     0.67670   0.78236   0.55718   0.00000  Uiso   1.00
H1015  H     0.51040   0.87208   0.47849   0.00000  Uiso   1.00
H1016  H     0.52506   0.92811   0.48530   0.00000  Uiso   1.00
H1017  H     0.53217   0.90237   0.43094   0.00000  Uiso   1.00
H1018  H     0.98960   0.62793   0.52152   0.00000  Uiso   1.00
H1019  H     0.96783   0.59758   0.56903   0.00000  Uiso   1.00
H1020  H     0.99295   0.68018   0.62603   0.00000  Uiso   1.00
H1021  H     0.97494   0.57190   0.51463   0.00000  Uiso   1.00
H1022  H     0.58915   0.66840   0.59856   0.00000  Uiso   1.00
H1023  H     0.54315   0.63269   0.58167   0.00000  Uiso   1.00
H1024  H     0.59030   0.61163   0.61247   0.00000  Uiso   1.00
H1025  H     0.91084   0.83158   0.40144   0.00000  Uiso   1.00
H1026  H     0.90968   0.88836   0.38752   0.00000  Uiso   1.00
H1027  H     0.95683   0.86730   0.41832   0.00000  Uiso   1.00
H1028  H     0.87931   0.76909   0.54999   0.00000  Uiso   1.00
H1029  H     0.88817   0.80478   0.59760   0.00000  Uiso   1.00
H1030  H     0.83365   0.79542   0.57231   0.00000  Uiso   1.00
H1031  H     0.99315   0.68015   0.37714   0.00000  Uiso   1.00
H1032  H     0.62069   0.73092   0.45002   0.00000  Uiso   1.00
H1033  H     0.66636   0.70459   0.42770   0.00000  Uiso   1.00
H1034  H     0.61184   0.69523   0.40241   0.00000  Uiso   1.00
H1035  H     0.62856   0.96605   0.42642   0.00000  Uiso   1.00
H1036  H     0.57328   0.96767   0.44288   0.00000  Uiso   1.00
H1037  H     0.61509   0.98929   0.47996   0.00000  Uiso   1.00
H1038  H     0.87145   0.53395   0.57357   0.00000  Uiso   1.00
H1039  H     0.88489   0.51071   0.52003   0.00000  Uiso   1.00
H1040  H     0.92673   0.53231   0.55708   0.00000  Uiso   1.00
H1041  H     0.76040   0.62209   0.47853   0.00000  Uiso   1.00
H1042  H     0.50685   0.81985   0.62286   0.00000  Uiso   1.00
H1043  H     0.77507   0.67813   0.48534   0.00000  Uiso   1.00
H1044  H     0.78216   0.65238   0.43097   0.00000  Uiso   1.00
H1045  H     0.73960   0.87791   0.52146   0.00000  Uiso   1.00
H1046  H     0.71784   0.84765   0.56905   0.00000  Uiso   1.00
H1047  H     0.72492   0.82187   0.51470   0.00000  Uiso   1.00
H1048  H     0.83914   0.91839   0.59856   0.00000  Uiso   1.00
H1049  H     0.79314   0.88269   0.58166   0.00000  Uiso   1.00
H1050  H     0.84028   0.86162   0.61247   0.00000  Uiso   1.00
H1051  H     0.66087   0.58162   0.40143   0.00000  Uiso   1.00
H1052  H     0.65972   0.63839   0.38753   0.00000  Uiso   1.00
H1053  H     0.75705   0.56982   0.37397   0.00000  Uiso   1.00
H1054  H     0.70686   0.61731   0.41834   0.00000  Uiso   1.00
H1055  H     0.62931   0.51909   0.54999   0.00000  Uiso   1.00
H1056  H     0.63817   0.55478   0.59760   0.00000  Uiso   1.00
H1057  H     0.58365   0.54543   0.57231   0.00000  Uiso   1.00
H1058  H     0.87069   0.98090   0.45000   0.00000  Uiso   1.00
H1059  H     0.91635   0.95456   0.42768   0.00000  Uiso   1.00
H1060  H     0.86182   0.94521   0.40239   0.00000  Uiso   1.00
H1061  H     0.74295   0.93018   0.62603   0.00000  Uiso   1.00
H1062  H     0.74315   0.93015   0.37714   0.00000  Uiso   1.00
H1063  H     0.75685   0.56985   0.62286   0.00000  Uiso   1.00
H1064  H     0.87857   0.71605   0.42643   0.00000  Uiso   1.00
N1065  N     0.50000   0.75000   0.61907   0.00000  Uiso   1.00
N1066  N     0.50000   0.75000   0.38093   0.00000  Uiso   1.00
N1067  N     0.75000   0.50000   0.61907   0.00000  Uiso   1.00
N1068  N     0.75000   0.50000   0.38093   0.00000  Uiso   1.00
O1069  O     0.54581   0.70419   0.53821   0.00000  Uiso   1.00
O1070  O     0.70420   0.54581   0.46179   0.00000  Uiso   1.00
O1071  O     0.70420   0.54581   0.53821   0.00000  Uiso   1.00
O1072  O     0.79581   0.95419   0.46179   0.00000  Uiso   1.00
O1073  O     0.70420   0.95419   0.46179   0.00000  Uiso   1.00
O1074  O     0.79581   0.54581   0.53821   0.00000  Uiso   1.00
O1075  O     0.79581   0.54581   0.46179   0.00000  Uiso   1.00
O1076  O     0.70420   0.95419   0.53821   0.00000  Uiso   1.00
O1077  O     0.95420   0.79581   0.46179   0.00000  Uiso   1.00
O1078  O     0.95420   0.79581   0.53821   0.00000  Uiso   1.00
O1079  O     0.54581   0.70419   0.46179   0.00000  Uiso   1.00
O1080  O     0.95420   0.70419   0.46179   0.00000  Uiso   1.00
O1081  O     0.54581   0.79581   0.53821   0.00000  Uiso   1.00
O1082  O     0.54581   0.79581   0.46179   0.00000  Uiso   1.00
O1083  O     0.95420   0.70419   0.53821   0.00000  Uiso   1.00
O1084  O     0.79581   0.95419   0.53821   0.00000  Uiso   1.00
Zn1085 Zn    0.50000   0.75000   0.55104   0.00000  Uiso   1.00
Zn1086 Zn    0.50000   0.75000   0.44896   0.00000  Uiso   1.00
Zn1087 Zn    0.75000   0.50000   0.55104   0.00000  Uiso   1.00
Zn1088 Zn    0.75000   0.50000   0.44896   0.00000  Uiso   1.00
C1089  C     0.06165   0.19149   0.83454   0.00000  Uiso   1.00
C1090  C     0.49615   0.21118   0.97688   0.00000  Uiso   1.00
C1091  C     0.49618   0.21117   0.69155   0.00000  Uiso   1.00
C1092  C     0.00382   0.28883   0.97512   0.00000  Uiso   1.00
C1093  C     0.25385   0.03883   0.68979   0.00000  Uiso   1.00
C1094  C     0.24615   0.46117   0.97688   0.00000  Uiso   1.00
C1095  C     0.24618   0.46117   0.69155   0.00000  Uiso   1.00
C1096  C     0.25382   0.03883   0.97512   0.00000  Uiso   1.00
C1097  C     0.36534   0.16728   0.81293   0.00000  Uiso   1.00
C1098  C     0.13465   0.33273   0.85376   0.00000  Uiso   1.00
C1099  C     0.08194   0.38557   0.81611   0.00000  Uiso   1.00
C1100  C     0.43835   0.30851   0.83213   0.00000  Uiso   1.00
C1101  C     0.41806   0.11443   0.85054   0.00000  Uiso   1.00
C1102  C     0.10051   0.12866   0.87322   0.00000  Uiso   1.00
C1103  C     0.39949   0.37134   0.79345   0.00000  Uiso   1.00
C1104  C     0.37497   0.34065   0.86705   0.00000  Uiso   1.00
C1105  C     0.12503   0.15935   0.79962   0.00000  Uiso   1.00
C1106  C     0.11534   0.41728   0.81292   0.00000  Uiso   1.00
C1107  C     0.38466   0.08272   0.85373   0.00000  Uiso   1.00
C1108  C     0.33193   0.13557   0.81612   0.00000  Uiso   1.00
C1109  C     0.16806   0.36444   0.85056   0.00000  Uiso   1.00
C1110  C     0.35050   0.37865   0.87321   0.00000  Uiso   1.00
C1111  C     0.43980   0.19038   0.83298   0.00000  Uiso   1.00
C1112  C     0.14950   0.12135   0.79346   0.00000  Uiso   1.00
C1113  C     0.12498   0.09066   0.86705   0.00000  Uiso   1.00
C1114  C     0.37502   0.40934   0.79961   0.00000  Uiso   1.00
C1115  C     0.09272   0.34341   0.83483   0.00000  Uiso   1.00
C1116  C     0.40728   0.15659   0.83184   0.00000  Uiso   1.00
C1117  C     0.40247   0.33939   0.82958   0.00000  Uiso   1.00
C1118  C     0.09753   0.16061   0.83709   0.00000  Uiso   1.00
C1119  C     0.34272   0.09341   0.83483   0.00000  Uiso   1.00
C1120  C     0.15728   0.40659   0.83184   0.00000  Uiso   1.00
C1121  C     0.15248   0.08940   0.82958   0.00000  Uiso   1.00
C1122  C     0.06021   0.30962   0.83368   0.00000  Uiso   1.00
C1123  C     0.34752   0.41060   0.83708   0.00000  Uiso   1.00
C1124  C     0.35731   0.21233   0.78948   0.00000  Uiso   1.00
C1125  C     0.14268   0.28769   0.87723   0.00000  Uiso   1.00
C1126  C     0.03490   0.39742   0.80173   0.00000  Uiso   1.00
C1127  C     0.46510   0.10257   0.86491   0.00000  Uiso   1.00
C1128  C     0.07939   0.13548   0.91864   0.00000  Uiso   1.00
C1129  C     0.42060   0.36450   0.74803   0.00000  Uiso   1.00
C1130  C     0.36901   0.30036   0.89857   0.00000  Uiso   1.00
C1131  C     0.13100   0.19964   0.76811   0.00000  Uiso   1.00
C1132  C     0.10732   0.46232   0.78947   0.00000  Uiso   1.00
C1133  C     0.31165   0.44149   0.83454   0.00000  Uiso   1.00
C1134  C     0.39269   0.03767   0.87718   0.00000  Uiso   1.00
C1135  C     0.28490   0.14743   0.80176   0.00000  Uiso   1.00
C1136  C     0.21510   0.35258   0.86493   0.00000  Uiso   1.00
C1137  C     0.32938   0.38548   0.91863   0.00000  Uiso   1.00
C1138  C     0.17062   0.11453   0.74804   0.00000  Uiso   1.00
C1139  C     0.11901   0.05037   0.89857   0.00000  Uiso   1.00
C1140  C     0.38099   0.44962   0.76809   0.00000  Uiso   1.00
C1141  C     0.18835   0.05852   0.83213   0.00000  Uiso   1.00
C1142  C     0.18980   0.44038   0.83298   0.00000  Uiso   1.00
C1143  C     0.31020   0.05962   0.83368   0.00000  Uiso   1.00
C1144  C     0.00385   0.28882   0.68979   0.00000  Uiso   1.00
H1145  H     0.00705   0.31982   0.70730   0.00000  Uiso   1.00
H1146  H     0.32328   0.21767   0.77621   0.00000  Uiso   1.00
H1147  H     0.36508   0.23930   0.81330   0.00000  Uiso   1.00
H1148  H     0.12141   0.28397   0.90693   0.00000  Uiso   1.00
H1149  H     0.13493   0.26071   0.85341   0.00000  Uiso   1.00
H1150  H     0.17670   0.28236   0.89052   0.00000  Uiso   1.00
H1151  H     0.01040   0.37208   0.81182   0.00000  Uiso   1.00
H1152  H     0.02506   0.42811   0.81863   0.00000  Uiso   1.00
H1153  H     0.03217   0.40237   0.76428   0.00000  Uiso   1.00
H1154  H     0.48960   0.12793   0.85485   0.00000  Uiso   1.00
H1155  H     0.46783   0.09758   0.90236   0.00000  Uiso   1.00
H1156  H     0.49295   0.18018   0.95937   0.00000  Uiso   1.00
H1157  H     0.47494   0.07190   0.84796   0.00000  Uiso   1.00
H1158  H     0.08915   0.16840   0.93190   0.00000  Uiso   1.00
H1159  H     0.04315   0.13269   0.91501   0.00000  Uiso   1.00
H1160  H     0.09030   0.11163   0.94581   0.00000  Uiso   1.00
H1161  H     0.41084   0.33158   0.73477   0.00000  Uiso   1.00
H1162  H     0.40968   0.38836   0.72085   0.00000  Uiso   1.00
H1163  H     0.45683   0.36730   0.75165   0.00000  Uiso   1.00
H1164  H     0.37931   0.26909   0.88332   0.00000  Uiso   1.00
H1165  H     0.38817   0.30478   0.93093   0.00000  Uiso   1.00
H1166  H     0.33365   0.29542   0.90564   0.00000  Uiso   1.00
H1167  H     0.49315   0.18015   0.71048   0.00000  Uiso   1.00
H1168  H     0.12069   0.23092   0.78336   0.00000  Uiso   1.00
H1169  H     0.16636   0.20459   0.76104   0.00000  Uiso   1.00
H1170  H     0.11184   0.19523   0.73574   0.00000  Uiso   1.00
H1171  H     0.12856   0.46605   0.75975   0.00000  Uiso   1.00
H1172  H     0.07328   0.46767   0.77621   0.00000  Uiso   1.00
H1173  H     0.11509   0.48929   0.81329   0.00000  Uiso   1.00
H1174  H     0.37145   0.03395   0.90690   0.00000  Uiso   1.00
H1175  H     0.38489   0.01071   0.85336   0.00000  Uiso   1.00
H1176  H     0.42673   0.03231   0.89041   0.00000  Uiso   1.00
H1177  H     0.26040   0.12209   0.81186   0.00000  Uiso   1.00
H1178  H     0.00685   0.31985   0.95619   0.00000  Uiso   1.00
H1179  H     0.27507   0.17813   0.81867   0.00000  Uiso   1.00
H1180  H     0.28216   0.15238   0.76431   0.00000  Uiso   1.00
H1181  H     0.23960   0.37791   0.85479   0.00000  Uiso   1.00
H1182  H     0.21784   0.34765   0.90238   0.00000  Uiso   1.00
H1183  H     0.22492   0.32187   0.84803   0.00000  Uiso   1.00
H1184  H     0.33914   0.41839   0.93190   0.00000  Uiso   1.00
H1185  H     0.29314   0.38269   0.91500   0.00000  Uiso   1.00
H1186  H     0.34028   0.36162   0.94580   0.00000  Uiso   1.00
H1187  H     0.16087   0.08162   0.73477   0.00000  Uiso   1.00
H1188  H     0.15972   0.13839   0.72087   0.00000  Uiso   1.00
H1189  H     0.25705   0.06982   0.70730   0.00000  Uiso   1.00
H1190  H     0.20686   0.11731   0.75167   0.00000  Uiso   1.00
H1191  H     0.12931   0.01909   0.88332   0.00000  Uiso   1.00
H1192  H     0.13817   0.05478   0.93093   0.00000  Uiso   1.00
H1193  H     0.08365   0.04543   0.90564   0.00000  Uiso   1.00
H1194  H     0.37069   0.48090   0.78333   0.00000  Uiso   1.00
H1195  H     0.41635   0.45456   0.76101   0.00000  Uiso   1.00
H1196  H     0.36182   0.44521   0.73573   0.00000  Uiso   1.00
H1197  H     0.24295   0.43018   0.95937   0.00000  Uiso   1.00
H1198  H     0.24315   0.43015   0.71048   0.00000  Uiso   1.00
H1199  H     0.25685   0.06985   0.95619   0.00000  Uiso   1.00
H1200  H     0.37857   0.21605   0.75977   0.00000  Uiso   1.00
N1201  N     0.00000   0.25000   0.95240   0.00000  Uiso   1.00
N1202  N     0.00000   0.25000   0.71427   0.00000  Uiso   1.00
N1203  N     0.25000  -0.00000   0.95240   0.00000  Uiso   1.00
N1204  N     0.25000   0.00000   0.71427   0.00000  Uiso   1.00
O1205  O     0.04581   0.20419   0.87154   0.00000  Uiso   1.00
O1206  O     0.20420   0.04581   0.79513   0.00000  Uiso   1.00
O1207  O     0.20420   0.04581   0.87154   0.00000  Uiso   1.00
O1208  O     0.29581   0.45419   0.79513   0.00000  Uiso   1.00
O1209  O     0.20420   0.45419   0.79513   0.00000  Uiso   1.00
O1210  O     0.29581   0.04581   0.87154   0.00000  Uiso   1.00
O1211  O     0.29581   0.04581   0.79513   0.00000  Uiso   1.00
O1212  O     0.20420   0.45419   0.87154   0.00000  Uiso   1.00
O1213  O     0.45420   0.29581   0.79513   0.00000  Uiso   1.00
O1214  O     0.45420   0.29581   0.87154   0.00000  Uiso   1.00
O1215  O     0.04581   0.20419   0.79513   0.00000  Uiso   1.00
O1216  O     0.45420   0.20419   0.79513   0.00000  Uiso   1.00
O1217  O     0.04581   0.29581   0.87154   0.00000  Uiso   1.00
O1218  O     0.04581   0.29581   0.79513   0.00000  Uiso   1.00
O1219  O     0.45420   0.20419   0.87154   0.00000  Uiso   1.00
O1220  O     0.29581   0.45419   0.87154   0.00000  Uiso   1.00
Zn1221 Zn    0.00000   0.25000   0.88437   0.00000  Uiso   1.00
Zn1222 Zn    0.00000   0.25000   0.78229   0.00000  Uiso   1.00
Zn1223 Zn    0.25000   0.00000   0.88437   0.00000  Uiso   1.00
Zn1224 Zn    0.25000  -0.00000   0.78229   0.00000  Uiso   1.00
C1225  C     0.56165   0.19149   0.83454   0.00000  Uiso   1.00
C1226  C     0.99615   0.21118   0.97688   0.00000  Uiso   1.00
C1227  C     0.99618   0.21117   0.69155   0.00000  Uiso   1.00
C1228  C     0.50382   0.28883   0.97512   0.00000  Uiso   1.00
C1229  C     0.75385   0.03883   0.68979   0.00000  Uiso   1.00
C1230  C     0.74615   0.46117   0.97688   0.00000  Uiso   1.00
C1231  C     0.74618   0.46117   0.69155   0.00000  Uiso   1.00
C1232  C     0.75382   0.03883   0.97512   0.00000  Uiso   1.00
C1233  C     0.86534   0.16728   0.81293   0.00000  Uiso   1.00
C1234  C     0.63465   0.33273   0.85376   0.00000  Uiso   1.00
C1235  C     0.58194   0.38557   0.81611   0.00000  Uiso   1.00
C1236  C     0.93835   0.30851   0.83213   0.00000  Uiso   1.00
C1237  C     0.91806   0.11443   0.85054   0.00000  Uiso   1.00
C1238  C     0.60051   0.12866   0.87322   0.00000  Uiso   1.00
C1239  C     0.89949   0.37134   0.79345   0.00000  Uiso   1.00
C1240  C     0.87497   0.34065   0.86705   0.00000  Uiso   1.00
C1241  C     0.62503   0.15935   0.79962   0.00000  Uiso   1.00
C1242  C     0.61534   0.41728   0.81292   0.00000  Uiso   1.00
C1243  C     0.88466   0.08272   0.85373   0.00000  Uiso   1.00
C1244  C     0.83193   0.13557   0.81612   0.00000  Uiso   1.00
C1245  C     0.66806   0.36444   0.85056   0.00000  Uiso   1.00
C1246  C     0.85050   0.37865   0.87321   0.00000  Uiso   1.00
C1247  C     0.93980   0.19038   0.83298   0.00000  Uiso   1.00
C1248  C     0.64950   0.12135   0.79346   0.00000  Uiso   1.00
C1249  C     0.62498   0.09066   0.86705   0.00000  Uiso   1.00
C1250  C     0.87502   0.40934   0.79961   0.00000  Uiso   1.00
C1251  C     0.59272   0.34341   0.83483   0.00000  Uiso   1.00
C1252  C     0.90728   0.15659   0.83184   0.00000  Uiso   1.00
C1253  C     0.90247   0.33939   0.82958   0.00000  Uiso   1.00
C1254  C     0.59753   0.16061   0.83709   0.00000  Uiso   1.00
C1255  C     0.84272   0.09341   0.83483   0.00000  Uiso   1.00
C1256  C     0.65728   0.40659   0.83184   0.00000  Uiso   1.00
C1257  C     0.65248   0.08940   0.82958   0.00000  Uiso   1.00
C1258  C     0.56021   0.30962   0.83368   0.00000  Uiso   1.00
C1259  C     0.84752   0.41060   0.83708   0.00000  Uiso   1.00
C1260  C     0.85731   0.21233   0.78948   0.00000  Uiso   1.00
C1261  C     0.64268   0.28769   0.87723   0.00000  Uiso   1.00
C1262  C     0.53490   0.39742   0.80173   0.00000  Uiso   1.00
C1263  C     0.96510   0.10257   0.86491   0.00000  Uiso   1.00
C1264  C     0.57939   0.13548   0.91864   0.00000  Uiso   1.00
C1265  C     0.92060   0.36450   0.74803   0.00000  Uiso   1.00
C1266  C     0.86901   0.30036   0.89857   0.00000  Uiso   1.00
C1267  C     0.63100   0.19964   0.76811   0.00000  Uiso   1.00
C1268  C     0.60732   0.46232   0.78947   0.00000  Uiso   1.00
C1269  C     0.81165   0.44149   0.83454   0.00000  Uiso   1.00
C1270  C     0.89269   0.03767   0.87718   0.00000  Uiso   1.00
C1271  C     0.78490   0.14743   0.80176   0.00000  Uiso   1.00
C1272  C     0.71510   0.35258   0.86493   0.00000  Uiso   1.00
C1273  C     0.82938   0.38548   0.91863   0.00000  Uiso   1.00
C1274  C     0.67062   0.11453   0.74804   0.00000  Uiso   1.00
C1275  C     0.61901   0.05037   0.89857   0.00000  Uiso   1.00
C1276  C     0.88099   0.44962   0.76809   0.00000  Uiso   1.00
C1277  C     0.68835   0.05852   0.83213   0.00000  Uiso   1.00
C1278  C     0.68980   0.44038   0.83298   0.00000  Uiso   1.00
C1279  C     0.81020   0.05962   0.83368   0.00000  Uiso   1.00
C1280  C     0.50385   0.28882   0.68979   0.00000  Uiso   1.00
H1281  H     0.50705   0.31982   0.70730   0.00000  Uiso   1.00
H1282  H     0.82328   0.21767   0.77621   0.00000  Uiso   1.00
H1283  H     0.86508   0.23930   0.81330   0.00000  Uiso   1.00
H1284  H     0.62141   0.28397   0.90693   0.00000  Uiso   1.00
H1285  H     0.63493   0.26071   0.85341   0.00000  Uiso   1.00
H1286  H     0.67670   0.28236   0.89052   0.00000  Uiso   1.00
H1287  H     0.51040   0.37208   0.81182   0.00000  Uiso   1.00
H1288  H     0.52506   0.42811   0.81863   0.00000  Uiso   1.00
H1289  H     0.53217   0.40237   0.76428   0.00000  Uiso   1.00
H1290  H     0.98960   0.12793   0.85485   0.00000  Uiso   1.00
H1291  H     0.96783   0.09758   0.90236   0.00000  Uiso   1.00
H1292  H     0.99295   0.18018   0.95937   0.00000  Uiso   1.00
H1293  H     0.97494   0.07190   0.84796   0.00000  Uiso   1.00
H1294  H     0.58915   0.16840   0.93190   0.00000  Uiso   1.00
H1295  H     0.54315   0.13269   0.91501   0.00000  Uiso   1.00
H1296  H     0.59030   0.11163   0.94581   0.00000  Uiso   1.00
H1297  H     0.91084   0.33158   0.73477   0.00000  Uiso   1.00
H1298  H     0.90968   0.38836   0.72085   0.00000  Uiso   1.00
H1299  H     0.95683   0.36730   0.75165   0.00000  Uiso   1.00
H1300  H     0.87931   0.26909   0.88332   0.00000  Uiso   1.00
H1301  H     0.88817   0.30478   0.93093   0.00000  Uiso   1.00
H1302  H     0.83365   0.29542   0.90564   0.00000  Uiso   1.00
H1303  H     0.99315   0.18015   0.71048   0.00000  Uiso   1.00
H1304  H     0.62069   0.23092   0.78336   0.00000  Uiso   1.00
H1305  H     0.66636   0.20459   0.76104   0.00000  Uiso   1.00
H1306  H     0.61184   0.19523   0.73574   0.00000  Uiso   1.00
H1307  H     0.62856   0.46605   0.75975   0.00000  Uiso   1.00
H1308  H     0.57328   0.46767   0.77621   0.00000  Uiso   1.00
H1309  H     0.61509   0.48929   0.81329   0.00000  Uiso   1.00
H1310  H     0.87145   0.03395   0.90690   0.00000  Uiso   1.00
H1311  H     0.88489   0.01071   0.85336   0.00000  Uiso   1.00
H1312  H     0.92673   0.03231   0.89041   0.00000  Uiso   1.00
H1313  H     0.76040   0.12209   0.81186   0.00000  Uiso   1.00
H1314  H     0.50685   0.31985   0.95619   0.00000  Uiso   1.00
H1315  H     0.77507   0.17813   0.81867   0.00000  Uiso   1.00
H1316  H     0.78216   0.15238   0.76431   0.00000  Uiso   1.00
H1317  H     0.73960   0.37791   0.85479   0.00000  Uiso   1.00
H1318  H     0.71784   0.34765   0.90238   0.00000  Uiso   1.00
H1319  H     0.72492   0.32187   0.84803   0.00000  Uiso   1.00
H1320  H     0.83914   0.41839   0.93190   0.00000  Uiso   1.00
H1321  H     0.79314   0.38269   0.91500   0.00000  Uiso   1.00
H1322  H     0.84028   0.36162   0.94580   0.00000  Uiso   1.00
H1323  H     0.66087   0.08162   0.73477   0.00000  Uiso   1.00
H1324  H     0.65972   0.13839   0.72087   0.00000  Uiso   1.00
H1325  H     0.75705   0.06982   0.70730   0.00000  Uiso   1.00
H1326  H     0.70686   0.11731   0.75167   0.00000  Uiso   1.00
H1327  H     0.62931   0.01909   0.88332   0.00000  Uiso   1.00
H1328  H     0.63817   0.05478   0.93093   0.00000  Uiso   1.00
H1329  H     0.58365   0.04543   0.90564   0.00000  Uiso   1.00
H1330  H     0.87069   0.48090   0.78333   0.00000  Uiso   1.00
H1331  H     0.91635   0.45456   0.76101   0.00000  Uiso   1.00
H1332  H     0.86182   0.44521   0.73573   0.00000  Uiso   1.00
H1333  H     0.74295   0.43018   0.95937   0.00000  Uiso   1.00
H1334  H     0.74315   0.43015   0.71048   0.00000  Uiso   1.00
H1335  H     0.75685   0.06985   0.95619   0.00000  Uiso   1.00
H1336  H     0.87857   0.21605   0.75977   0.00000  Uiso   1.00
N1337  N     0.50000   0.25000   0.95240   0.00000  Uiso   1.00
N1338  N     0.50000   0.25000   0.71427   0.00000  Uiso   1.00
N1339  N     0.75000  -0.00000   0.95240   0.00000  Uiso   1.00
N1340  N     0.75000   0.00000   0.71427   0.00000  Uiso   1.00
O1341  O     0.54581   0.20419   0.87154   0.00000  Uiso   1.00
O1342  O     0.70420   0.04581   0.79513   0.00000  Uiso   1.00
O1343  O     0.70420   0.04581   0.87154   0.00000  Uiso   1.00
O1344  O     0.79581   0.45419   0.79513   0.00000  Uiso   1.00
O1345  O     0.70420   0.45419   0.79513   0.00000  Uiso   1.00
O1346  O     0.79581   0.04581   0.87154   0.00000  Uiso   1.00
O1347  O     0.79581   0.04581   0.79513   0.00000  Uiso   1.00
O1348  O     0.70420   0.45419   0.87154   0.00000  Uiso   1.00
O1349  O     0.95420   0.29581   0.79513   0.00000  Uiso   1.00
O1350  O     0.95420   0.29581   0.87154   0.00000  Uiso   1.00
O1351  O     0.54581   0.20419   0.79513   0.00000  Uiso   1.00
O1352  O     0.95420   0.20419   0.79513   0.00000  Uiso   1.00
O1353  O     0.54581   0.29581   0.87154   0.00000  Uiso   1.00
O1354  O     0.54581   0.29581   0.79513   0.00000  Uiso   1.00
O1355  O     0.95420   0.20419   0.87154   0.00000  Uiso   1.00
O1356  O     0.79581   0.45419   0.87154   0.00000  Uiso   1.00
Zn1357 Zn    0.50000   0.25000   0.88437   0.00000  Uiso   1.00
Zn1358 Zn    0.50000   0.25000   0.78229   0.00000  Uiso   1.00
Zn1359 Zn    0.75000   0.00000   0.88437   0.00000  Uiso   1.00
Zn1360 Zn    0.75000  -0.00000   0.78229   0.00000  Uiso   1.00
C1361  C     0.06165   0.69149   0.83454   0.00000  Uiso   1.00
C1362  C     0.49615   0.71118   0.97688   0.00000  Uiso   1.00
C1363  C     0.49618   0.71117   0.69155   0.00000  Uiso   1.00
C1364  C     0.00382   0.78883   0.97512   0.00000  Uiso   1.00
C1365  C     0.25385   0.53883   0.68979   0.00000  Uiso   1.00
C1366  C     0.24615   0.96117   0.97688   0.00000  Uiso   1.00
C1367  C     0.24618   0.96117   0.69155   0.00000  Uiso   1.00
C1368  C     0.25382   0.53883   0.97512   0.00000  Uiso   1.00
C1369  C     0.36534   0.66728   0.81293   0.00000  Uiso   1.00
C1370  C     0.13465   0.83273   0.85376   0.00000  Uiso   1.00
C1371  C     0.08194   0.88557   0.81611   0.00000  Uiso   1.00
C1372  C     0.43835   0.80851   0.83213   0.00000  Uiso   1.00
C1373  C     0.41806   0.61443   0.85054   0.00000  Uiso   1.00
C1374  C     0.10051   0.62866   0.87322   0.00000  Uiso   1.00
C1375  C     0.39949   0.87134   0.79345   0.00000  Uiso   1.00
C1376  C     0.37497   0.84065   0.86705   0.00000  Uiso   1.00
C1377  C     0.12503   0.65935   0.79962   0.00000  Uiso   1.00
C1378  C     0.11534   0.91728   0.81292   0.00000  Uiso   1.00
C1379  C     0.38466   0.58272   0.85373   0.00000  Uiso   1.00
C1380  C     0.33193   0.63557   0.81612   0.00000  Uiso   1.00
C1381  C     0.16806   0.86444   0.85056   0.00000  Uiso   1.00
C1382  C     0.35050   0.87865   0.87321   0.00000  Uiso   1.00
C1383  C     0.43980   0.69038   0.83298   0.00000  Uiso   1.00
C1384  C     0.14950   0.62135   0.79346   0.00000  Uiso   1.00
C1385  C     0.12498   0.59066   0.86705   0.00000  Uiso   1.00
C1386  C     0.37502   0.90934   0.79961   0.00000  Uiso   1.00
C1387  C     0.09272   0.84341   0.83483   0.00000  Uiso   1.00
C1388  C     0.40728   0.65659   0.83184   0.00000  Uiso   1.00
C1389  C     0.40247   0.83939   0.82958   0.00000  Uiso   1.00
C1390  C     0.09753   0.66061   0.83709   0.00000  Uiso   1.00
C1391  C     0.34272   0.59341   0.83483   0.00000  Uiso   1.00
C1392  C     0.15728   0.90659   0.83184   0.00000  Uiso   1.00
C1393  C     0.15248   0.58940   0.82958   0.00000  Uiso   1.00
C1394  C     0.06021   0.80962   0.83368   0.00000  Uiso   1.00
C1395  C     0.34752   0.91060   0.83708   0.00000  Uiso   1.00
C1396  C     0.35731   0.71233   0.78948   0.00000  Uiso   1.00
C1397  C     0.14268   0.78769   0.87723   0.00000  Uiso   1.00
C1398  C     0.03490   0.89742   0.80173   0.00000  Uiso   1.00
C1399  C     0.46510   0.60257   0.86491   0.00000  Uiso   1.00
C1400  C     0.07939   0.63548   0.91864   0.00000  Uiso   1.00
C1401  C     0.42060   0.86450   0.74803   0.00000  Uiso   1.00
C1402  C     0.36901   0.80036   0.89857   0.00000  Uiso   1.00
C1403  C     0.13100   0.69964   0.76811   0.00000  Uiso   1.00
C1404  C     0.10732   0.96232   0.78947   0.00000  Uiso   1.00
C1405  C     0.31165   0.94149   0.83454   0.00000  Uiso   1.00
C1406  C     0.39269   0.53767   0.87718   0.00000  Uiso   1.00
C1407  C     0.28490   0.64743   0.80176   0.00000  Uiso   1.00
C1408  C     0.21510   0.85258   0.86493   0.00000  Uiso   1.00
C1409  C     0.32938   0.88548   0.91863   0.00000  Uiso   1.00
C1410  C     0.17062   0.61453   0.74804   0.00000  Uiso   1.00
C1411  C     0.11901   0.55037   0.89857   0.00000  Uiso   1.00
C1412  C     0.38099   0.94962   0.76809   0.00000  Uiso   1.00
C1413  C     0.18835   0.55852   0.83213   0.00000  Uiso   1.00
C1414  C     0.18980   0.94038   0.83298   0.00000  Uiso   1.00
C1415  C     0.31020   0.55962   0.83368   0.00000  Uiso   1.00
C1416  C     0.00385   0.78882   0.68979   0.00000  Uiso   1.00
H1417  H     0.00705   0.81982   0.70730   0.00000  Uiso   1.00
H1418  H     0.32328   0.71767   0.77621   0.00000  Uiso   1.00
H1419  H     0.36508   0.73930   0.81330   0.00000  Uiso   1.00
H1420  H     0.12141   0.78397   0.90693   0.00000  Uiso   1.00
H1421  H     0.13493   0.76071   0.85341   0.00000  Uiso   1.00
H1422  H     0.17670   0.78236   0.89052   0.00000  Uiso   1.00
H1423  H     0.01040   0.87208   0.81182   0.00000  Uiso   1.00
H1424  H     0.02506   0.92811   0.81863   0.00000  Uiso   1.00
H1425  H     0.03217   0.90237   0.76428   0.00000  Uiso   1.00
H1426  H     0.48960   0.62793   0.85485   0.00000  Uiso   1.00
H1427  H     0.46783   0.59758   0.90236   0.00000  Uiso   1.00
H1428  H     0.49295   0.68018   0.95937   0.00000  Uiso   1.00
H1429  H     0.47494   0.57190   0.84796   0.00000  Uiso   1.00
H1430  H     0.08915   0.66840   0.93190   0.00000  Uiso   1.00
H1431  H     0.04315   0.63269   0.91501   0.00000  Uiso   1.00
H1432  H     0.09030   0.61163   0.94581   0.00000  Uiso   1.00
H1433  H     0.41084   0.83158   0.73477   0.00000  Uiso   1.00
H1434  H     0.40968   0.88836   0.72085   0.00000  Uiso   1.00
H1435  H     0.45683   0.86730   0.75165   0.00000  Uiso   1.00
H1436  H     0.37931   0.76909   0.88332   0.00000  Uiso   1.00
H1437  H     0.38817   0.80478   0.93093   0.00000  Uiso   1.00
H1438  H     0.33365   0.79542   0.90564   0.00000  Uiso   1.00
H1439  H     0.49315   0.68015   0.71048   0.00000  Uiso   1.00
H1440  H     0.12069   0.73092   0.78336   0.00000  Uiso   1.00
H1441  H     0.16636   0.70459   0.76104   0.00000  Uiso   1.00
H1442  H     0.11184   0.69523   0.73574   0.00000  Uiso   1.00
H1443  H     0.12856   0.96605   0.75975   0.00000  Uiso   1.00
H1444  H     0.07328   0.96767   0.77621   0.00000  Uiso   1.00
H1445  H     0.11509   0.98929   0.81329   0.00000  Uiso   1.00
H1446  H     0.37145   0.53395   0.90690   0.00000  Uiso   1.00
H1447  H     0.38489   0.51071   0.85336   0.00000  Uiso   1.00
H1448  H     0.42673   0.53231   0.89041   0.00000  Uiso   1.00
H1449  H     0.26040   0.62209   0.81186   0.00000  Uiso   1.00
H1450  H     0.00685   0.81985   0.95619   0.00000  Uiso   1.00
H1451  H     0.27507   0.67813   0.81867   0.00000  Uiso   1.00
H1452  H     0.28216   0.65238   0.76431   0.00000  Uiso   1.00
H1453  H     0.23960   0.87791   0.85479   0.00000  Uiso   1.00
H1454  H     0.21784   0.84765   0.90238   0.00000  Uiso   1.00
H1455  H     0.22492   0.82187   0.84803   0.00000  Uiso   1.00
H1456  H     0.33914   0.91839   0.93190   0.00000  Uiso   1.00
H1457  H     0.29314   0.88269   0.91500   0.00000  Uiso   1.00
H1458  H     0.34028   0.86162   0.94580   0.00000  Uiso   1.00
H1459  H     0.16087   0.58162   0.73477   0.00000  Uiso   1.00
H1460  H     0.15972   0.63839   0.72087   0.00000  Uiso   1.00
H1461  H     0.25705   0.56982   0.70730   0.00000  Uiso   1.00
H1462  H     0.20686   0.61731   0.75167   0.00000  Uiso   1.00
H1463  H     0.12931   0.51909   0.88332   0.00000  Uiso   1.00
H1464  H     0.13817   0.55478   0.93093   0.00000  Uiso   1.00
H1465  H     0.08365   0.54543   0.90564   0.00000  Uiso   1.00
H1466  H     0.37069   0.98090   0.78333   0.00000  Uiso   1.00
H1467  H     0.41635   0.95456   0.76101   0.00000  Uiso   1.00
H1468  H     0.36182   0.94521   0.73573   0.00000  Uiso   1.00
H1469  H     0.24295   0.93018   0.95937   0.00000  Uiso   1.00
H1470  H     0.24315   0.93015   0.71048   0.00000  Uiso   1.00
H1471  H     0.25685   0.56985   0.95619   0.00000  Uiso   1.00
H1472  H     0.37857   0.71605   0.75977   0.00000  Uiso   1.00
N1473  N     0.00000   0.75000   0.95240   0.00000  Uiso   1.00
N1474  N     0.00000   0.75000   0.71427   0.00000  Uiso   1.00
N1475  N     0.25000   0.50000   0.95240   0.00000  Uiso   1.00
N1476  N     0.25000   0.50000   0.71427   0.00000  Uiso   1.00
O1477  O     0.04581   0.70419   0.87154   0.00000  Uiso   1.00
O1478  O     0.20420   0.54581   0.79513   0.00000  Uiso   1.00
O1479  O     0.20420   0.54581   0.87154   0.00000  Uiso   1.00
O1480  O     0.29581   0.95419   0.79513   0.00000  Uiso   1.00
O1481  O     0.20420   0.95419   0.79513   0.00000  Uiso   1.00
O1482  O     0.29581   0.54581   0.87154   0.00000  Uiso   1.00
O1483  O     0.29581   0.54581   0.79513   0.00000  Uiso   1.00
O1484  O     0.20420   0.95419   0.87154   0.00000  Uiso   1.00
O1485  O     0.45420   0.79581   0.79513   0.00000  Uiso   1.00
O1486  O     0.45420   0.79581   0.87154   0.00000  Uiso   1.00
O1487  O     0.04581   0.70419   0.79513   0.00000  Uiso   1.00
O1488  O     0.45420   0.70419   0.79513   0.00000  Uiso   1.00
O1489  O     0.04581   0.79581   0.87154   0.00000  Uiso   1.00
O1490  O     0.04581   0.79581   0.79513   0.00000  Uiso   1.00
O1491  O     0.45420   0.70419   0.87154   0.00000  Uiso   1.00
O1492  O     0.29581   0.95419   0.87154   0.00000  Uiso   1.00
Zn1493 Zn    0.00000   0.75000   0.88437   0.00000  Uiso   1.00
Zn1494 Zn    0.00000   0.75000   0.78229   0.00000  Uiso   1.00
Zn1495 Zn    0.25000   0.50000   0.88437   0.00000  Uiso   1.00
Zn1496 Zn    0.25000   0.50000   0.78229   0.00000  Uiso   1.00
C1497  C     0.56165   0.69149   0.83454   0.00000  Uiso   1.00
C1498  C     0.99615   0.71118   0.97688   0.00000  Uiso   1.00
C1499  C     0.99618   0.71117   0.69155   0.00000  Uiso   1.00
C1500  C     0.50382   0.78883   0.97512   0.00000  Uiso   1.00
C1501  C     0.75385   0.53883   0.68979   0.00000  Uiso   1.00
C1502  C     0.74615   0.96117   0.97688   0.00000  Uiso   1.00
C1503  C     0.74618   0.96117   0.69155   0.00000  Uiso   1.00
C1504  C     0.75382   0.53883   0.97512   0.00000  Uiso   1.00
C1505  C     0.86534   0.66728   0.81293   0.00000  Uiso   1.00
C1506  C     0.63465   0.83273   0.85376   0.00000  Uiso   1.00
C1507  C     0.58194   0.88557   0.81611   0.00000  Uiso   1.00
C1508  C     0.93835   0.80851   0.83213   0.00000  Uiso   1.00
C1509  C     0.91806   0.61443   0.85054   0.00000  Uiso   1.00
C1510  C     0.60051   0.62866   0.87322   0.00000  Uiso   1.00
C1511  C     0.89949   0.87134   0.79345   0.00000  Uiso   1.00
C1512  C     0.87497   0.84065   0.86705   0.00000  Uiso   1.00
C1513  C     0.62503   0.65935   0.79962   0.00000  Uiso   1.00
C1514  C     0.61534   0.91728   0.81292   0.00000  Uiso   1.00
C1515  C     0.88466   0.58272   0.85373   0.00000  Uiso   1.00
C1516  C     0.83193   0.63557   0.81612   0.00000  Uiso   1.00
C1517  C     0.66806   0.86444   0.85056   0.00000  Uiso   1.00
C1518  C     0.85050   0.87865   0.87321   0.00000  Uiso   1.00
C1519  C     0.93980   0.69038   0.83298   0.00000  Uiso   1.00
C1520  C     0.64950   0.62135   0.79346   0.00000  Uiso   1.00
C1521  C     0.62498   0.59066   0.86705   0.00000  Uiso   1.00
C1522  C     0.87502   0.90934   0.79961   0.00000  Uiso   1.00
C1523  C     0.59272   0.84341   0.83483   0.00000  Uiso   1.00
C1524  C     0.90728   0.65659   0.83184   0.00000  Uiso   1.00
C1525  C     0.90247   0.83939   0.82958   0.00000  Uiso   1.00
C1526  C     0.59753   0.66061   0.83709   0.00000  Uiso   1.00
C1527  C     0.84272   0.59341   0.83483   0.00000  Uiso   1.00
C1528  C     0.65728   0.90659   0.83184   0.00000  Uiso   1.00
C1529  C     0.65248   0.58940   0.82958   0.00000  Uiso   1.00
C1530  C     0.56021   0.80962   0.83368   0.00000  Uiso   1.00
C1531  C     0.84752   0.91060   0.83708   0.00000  Uiso   1.00
C1532  C     0.85731   0.71233   0.78948   0.00000  Uiso   1.00
C1533  C     0.64268   0.78769   0.87723   0.00000  Uiso   1.00
C1534  C     0.53490   0.89742   0.80173   0.00000  Uiso   1.00
C1535  C     0.96510   0.60257   0.86491   0.00000  Uiso   1.00
C1536  C     0.57939   0.63548   0.91864   0.00000  Uiso   1.00
C1537  C     0.92060   0.86450   0.74803   0.00000  Uiso   1.00
C1538  C     0.86901   0.80036   0.89857   0.00000  Uiso   1.00
C1539  C     0.63100   0.69964   0.76811   0.00000  Uiso   1.00
C1540  C     0.60732   0.96232   0.78947   0.00000  Uiso   1.00
C1541  C     0.81165   0.94149   0.83454   0.00000  Uiso   1.00
C1542  C     0.89269   0.53767   0.87718   0.00000  Uiso   1.00
C1543  C     0.78490   0.64743   0.80176   0.00000  Uiso   1.00
C1544  C     0.71510   0.85258   0.86493   0.00000  Uiso   1.00
C1545  C     0.82938   0.88548   0.91863   0.00000  Uiso   1.00
C1546  C     0.67062   0.61453   0.74804   0.00000  Uiso   1.00
C1547  C     0.61901   0.55037   0.89857   0.00000  Uiso   1.00
C1548  C     0.88099   0.94962   0.76809   0.00000  Uiso   1.00
C1549  C     0.68835   0.55852   0.83213   0.00000  Uiso   1.00
C1550  C     0.68980   0.94038   0.83298   0.00000  Uiso   1.00
C1551  C     0.81020   0.55962   0.83368   0.00000  Uiso   1.00
C1552  C     0.50385   0.78882   0.68979   0.00000  Uiso   1.00
H1553  H     0.50705   0.81982   0.70730   0.00000  Uiso   1.00
H1554  H     0.82328   0.71767   0.77621   0.00000  Uiso   1.00
H1555  H     0.86508   0.73930   0.81330   0.00000  Uiso   1.00
H1556  H     0.62141   0.78397   0.90693   0.00000  Uiso   1.00
H1557  H     0.63493   0.76071   0.85341   0.00000  Uiso   1.00
H1558  H     0.67670   0.78236   0.89052   0.00000  Uiso   1.00
H1559  H     0.51040   0.87208   0.81182   0.00000  Uiso   1.00
H1560  H     0.52506   0.92811   0.81863   0.00000  Uiso   1.00
H1561  H     0.53217   0.90237   0.76428   0.00000  Uiso   1.00
H1562  H     0.98960   0.62793   0.85485   0.00000  Uiso   1.00
H1563  H     0.96783   0.59758   0.90236   0.00000  Uiso   1.00
H1564  H     0.99295   0.68018   0.95937   0.00000  Uiso   1.00
H1565  H     0.97494   0.57190   0.84796   0.00000  Uiso   1.00
H1566  H     0.58915   0.66840   0.93190   0.00000  Uiso   1.00
H1567  H     0.54315   0.63269   0.91501   0.00000  Uiso   1.00
H1568  H     0.59030   0.61163   0.94581   0.00000  Uiso   1.00
H1569  H     0.91084   0.83158   0.73477   0.00000  Uiso   1.00
H1570  H     0.90968   0.88836   0.72085   0.00000  Uiso   1.00
H1571  H     0.95683   0.86730   0.75165   0.00000  Uiso   1.00
H1572  H     0.87931   0.76909   0.88332   0.00000  Uiso   1.00
H1573  H     0.88817   0.80478   0.93093   0.00000  Uiso   1.00
H1574  H     0.83365   0.79542   0.90564   0.00000  Uiso   1.00
H1575  H     0.99315   0.68015   0.71048   0.00000  Uiso   1.00
H1576  H     0.62069   0.73092   0.78336   0.00000  Uiso   1.00
H1577  H     0.66636   0.70459   0.76104   0.00000  Uiso   1.00
H1578  H     0.61184   0.69523   0.73574   0.00000  Uiso   1.00
H1579  H     0.62856   0.96605   0.75975   0.00000  Uiso   1.00
H1580  H     0.57328   0.96767   0.77621   0.00000  Uiso   1.00
H1581  H     0.61509   0.98929   0.81329   0.00000  Uiso   1.00
H1582  H     0.87145   0.53395   0.90690   0.00000  Uiso   1.00
H1583  H     0.88489   0.51071   0.85336   0.00000  Uiso   1.00
H1584  H     0.92673   0.53231   0.89041   0.00000  Uiso   1.00
H1585  H     0.76040   0.62209   0.81186   0.00000  Uiso   1.00
H1586  H     0.50685   0.81985   0.95619   0.00000  Uiso   1.00
H1587  H     0.77507   0.67813   0.81867   0.00000  Uiso   1.00
H1588  H     0.78216   0.65238   0.76431   0.00000  Uiso   1.00
H1589  H     0.73960   0.87791   0.85479   0.00000  Uiso   1.00
H1590  H     0.71784   0.84765   0.90238   0.00000  Uiso   1.00
H1591  H     0.72492   0.82187   0.84803   0.00000  Uiso   1.00
H1592  H     0.83914   0.91839   0.93190   0.00000  Uiso   1.00
H1593  H     0.79314   0.88269   0.91500   0.00000  Uiso   1.00
H1594  H     0.84028   0.86162   0.94580   0.00000  Uiso   1.00
H1595  H     0.66087   0.58162   0.73477   0.00000  Uiso   1.00
H1596  H     0.65972   0.63839   0.72087   0.00000  Uiso   1.00
H1597  H     0.75705   0.56982   0.70730   0.00000  Uiso   1.00
H1598  H     0.70686   0.61731   0.75167   0.00000  Uiso   1.00
H1599  H     0.62931   0.51909   0.88332   0.00000  Uiso   1.00
H1600  H     0.63817   0.55478   0.93093   0.00000  Uiso   1.00
H1601  H     0.58365   0.54543   0.90564   0.00000  Uiso   1.00
H1602  H     0.87069   0.98090   0.78333   0.00000  Uiso   1.00
H1603  H     0.91635   0.95456   0.76101   0.00000  Uiso   1.00
H1604  H     0.86182   0.94521   0.73573   0.00000  Uiso   1.00
H1605  H     0.74295   0.93018   0.95937   0.00000  Uiso   1.00
H1606  H     0.74315   0.93015   0.71048   0.00000  Uiso   1.00
H1607  H     0.75685   0.56985   0.95619   0.00000  Uiso   1.00
H1608  H     0.87857   0.71605   0.75977   0.00000  Uiso   1.00
N1609  N     0.50000   0.75000   0.95240   0.00000  Uiso   1.00
N1610  N     0.50000   0.75000   0.71427   0.00000  Uiso   1.00
N1611  N     0.75000   0.50000   0.95240   0.00000  Uiso   1.00
N1612  N     0.75000   0.50000   0.71427   0.00000  Uiso   1.00
O1613  O     0.54581   0.70419   0.87154   0.00000  Uiso   1.00
O1614  O     0.70420   0.54581   0.79513   0.00000  Uiso   1.00
O1615  O     0.70420   0.54581   0.87154   0.00000  Uiso   1.00
O1616  O     0.79581   0.95419   0.79513   0.00000  Uiso   1.00
O1617  O     0.70420   0.95419   0.79513   0.00000  Uiso   1.00
O1618  O     0.79581   0.54581   0.87154   0.00000  Uiso   1.00
O1619  O     0.79581   0.54581   0.79513   0.00000  Uiso   1.00
O1620  O     0.70420   0.95419   0.87154   0.00000  Uiso   1.00
O1621  O     0.95420   0.79581   0.79513   0.00000  Uiso   1.00
O1622  O     0.95420   0.79581   0.87154   0.00000  Uiso   1.00
O1623  O     0.54581   0.70419   0.79513   0.00000  Uiso   1.00
O1624  O     0.95420   0.70419   0.79513   0.00000  Uiso   1.00
O1625  O     0.54581   0.79581   0.87154   0.00000  Uiso   1.00
O1626  O     0.54581   0.79581   0.79513   0.00000  Uiso   1.00
O1627  O     0.95420   0.70419   0.87154   0.00000  Uiso   1.00
O1628  O     0.79581   0.95419   0.87154   0.00000  Uiso   1.00
Zn1629 Zn    0.50000   0.75000   0.88437   0.00000  Uiso   1.00
Zn1630 Zn    0.50000   0.75000   0.78229   0.00000  Uiso   1.00
Zn1631 Zn    0.75000   0.50000   0.88437   0.00000  Uiso   1.00
Zn1632 Zn    0.75000   0.50000   0.78229   0.00000  Uiso   1.00
loop_
_geom_bond_atom_site_label_1
_geom_bond_atom_site_label_2
_geom_bond_distance
_geom_bond_site_symmetry_2
_ccdc_geom_bond_type
C1     O117    1.277   .     A
C1     O127    1.292   .     A
C1     C30     1.439   .     S
C2     H68     1.081   .     S
C2     C547    1.415   .     S
C2     N249    1.366   .     S
C3     H79     1.082   .     S
C3     C1090   1.415   1_554 S
C3     N250    1.366   .     S
C4     N113    1.366   .     A
C4     H90     1.082   .     S
C4     C600    1.415   .     S
C5     H101    1.081   .     S
C5     N116    1.366   .     A
C5     C1096   1.415   1_554 S
C6     H109    1.081   .     S
C6     N387    1.366   .     A
C6     C551    1.415   .     S
C7     H110    1.082   .     S
C7     C1094   1.415   1_554 S
C7     N388    1.366   .     S
C8     H111    1.082   .     S
C8     C549    1.415   .     S
C8     N115    1.366   .     S
C9     C36     1.526   .     S
C9     C20     1.394   .     A
C9     C28     1.410   .     A
C10    C27     1.410   .     A
C10    C37     1.526   .     S
C10    C21     1.394   .     A
C11    C18     1.394   .     A
C11    C38     1.521   .     S
C11    C27     1.409   .     A
C12    C29     1.439   .     S
C12    O126    1.292   .     A
C12    O125    1.277   .     A
C13    C28     1.409   .     A
C13    C19     1.394   .     A
C13    C39     1.521   .     S
C14    C30     1.418   .     A
C14    C25     1.391   .     A
C14    C40     1.524   .     S
C15    C29     1.418   .     A
C15    C26     1.391   .     A
C15    C41     1.524   .     S
C16    C42     1.524   .     S
C16    C22     1.391   .     A
C16    C29     1.410   .     A
C17    C43     1.524   .     S
C17    C30     1.410   .     A
C17    C24     1.391   .     A
C18    C32     1.410   .     A
C18    C44     1.526   .     S
C19    C31     1.410   .     A
C19    C46     1.526   .     S
C20    C47     1.520   .     S
C20    C31     1.409   .     A
C21    C48     1.521   .     S
C21    C32     1.409   .     A
C22    C35     1.418   .     A
C22    C49     1.524   .     S
C23    O131    1.282   .     A
C23    C28     1.415   .     S
C23    O128    1.272   .     A
C24    C50     1.524   .     S
C24    C33     1.418   .     A
C25    C51     1.524   .     S
C25    C33     1.410   .     A
C26    C52     1.524   .     S
C26    C35     1.410   .     A
C27    C34     1.415   .     S
C31    C55     1.415   .     S
C32    C54     1.415   .     S
C33    C53     1.439   .     S
C34    O130    1.282   .     A
C34    O129    1.272   .     A
C35    C45     1.439   .     S
C36    H59     1.107   .     S
C36    H112    1.109   .     S
C36    H58     1.105   .     S
C37    H62     1.105   .     S
C37    H61     1.107   .     S
C37    H60     1.109   .     S
C38    H63     1.106   .     S
C38    H64     1.110   .     S
C38    H65     1.110   .     S
C39    H69     1.111   .     S
C39    H66     1.106   .     S
C39    H67     1.110   .     S
C40    H70     1.110   .     S
C40    H71     1.106   .     S
C40    H72     1.106   .     S
C41    H73     1.110   .     S
C41    H74     1.106   .     S
C41    H75     1.106   .     S
C42    H77     1.111   .     S
C42    H78     1.111   .     S
C42    H76     1.107   .     S
C43    H81     1.111   .     S
C43    H80     1.107   .     S
C43    H82     1.111   .     S
C44    H83     1.109   .     S
C44    H84     1.105   .     S
C44    H85     1.107   .     S
C45    O120    1.292   .     A
C45    O132    1.277   .     A
C46    H88     1.105   .     S
C46    H87     1.107   .     S
C46    H86     1.109   .     S
C47    H92     1.110   .     S
C47    H89     1.106   .     S
C47    H91     1.111   .     S
C48    H95     1.111   .     S
C48    H93     1.106   .     S
C48    H94     1.110   .     S
C49    H98     1.106   .     S
C49    H96     1.110   .     S
C49    H97     1.106   .     S
C50    H99     1.110   .     S
C50    H102    1.106   .     S
C50    H100    1.106   .     S
C51    H103    1.107   .     S
C51    H104    1.111   .     S
C51    H105    1.111   .     S
C52    H107    1.111   .     S
C52    H106    1.107   .     S
C52    H108    1.111   .     S
C53    O118    1.277   .     A
C53    O119    1.292   .     A
C54    O121    1.272   .     A
C54    O124    1.282   .     A
C55    O122    1.272   .     A
C55    O123    1.282   .     A
C56    H57     1.081   .     S
C56    N114    1.366   .     A
C56    C1092   1.415   1_554 S
N113   Zn133   2.005   .     S
N113   C138    1.366   1_455 S
N114   Zn134   2.005   .     S
N114   C139    1.366   1_455 S
N115   C278    1.366   1_545 A
N115   Zn135   2.005   .     S
N116   C279    1.366   1_545 S
N116   Zn136   2.005   .     S
O117   Zn133   2.022   .     S
O118   Zn136   2.022   .     S
O119   Zn135   1.990   .     S
O120   Zn408   1.990   .     S
O121   Zn408   1.993   .     S
O122   Zn135   1.993   .     S
O123   Zn136   1.988   .     S
O124   Zn407   1.988   .     S
O125   Zn270   2.022   .     S
O126   Zn269   1.990   .     S
O127   Zn134   1.990   .     S
O128   Zn270   1.993   .     S
O129   Zn133   1.993   .     S
O130   Zn134   1.988   .     S
O131   Zn269   1.988   .     S
O132   Zn407   2.022   .     S
Zn133  O267    1.988   1_455 S
Zn133  O262    1.990   1_455 S
Zn134  O264    1.993   1_455 S
Zn134  O261    2.022   1_455 S
Zn135  O396    1.988   1_545 S
Zn135  O404    2.022   1_545 S
Zn136  O393    1.993   1_545 S
Zn136  O392    1.990   1_545 S
C137   O253    1.277   .     A
C137   O263    1.292   .     A
C137   C166    1.439   .     S
C138   H204    1.081   .     S
C138   C683    1.415   .     S
C138   N113    1.366   1_655 S
C139   H215    1.082   .     S
C139   C1226   1.415   1_554 S
C139   N114    1.366   1_655 S
C140   N249    1.366   .     A
C140   H226    1.082   .     S
C140   C736    1.415   .     S
C141   H237    1.081   .     S
C141   N252    1.366   .     A
C141   C1232   1.415   1_554 S
C142   H245    1.081   .     S
C142   N523    1.366   .     A
C142   C687    1.415   .     S
C143   H246    1.082   .     S
C143   C1230   1.415   1_554 S
C143   N524    1.366   .     S
C144   H247    1.082   .     S
C144   C685    1.415   .     S
C144   N251    1.366   .     S
C145   C172    1.526   .     S
C145   C156    1.394   .     A
C145   C164    1.410   .     A
C146   C163    1.410   .     A
C146   C173    1.526   .     S
C146   C157    1.394   .     A
C147   C154    1.394   .     A
C147   C174    1.521   .     S
C147   C163    1.409   .     A
C148   C165    1.439   .     S
C148   O262    1.292   .     A
C148   O261    1.277   .     A
C149   C164    1.409   .     A
C149   C155    1.394   .     A
C149   C175    1.521   .     S
C150   C166    1.418   .     A
C150   C161    1.391   .     A
C150   C176    1.524   .     S
C151   C165    1.418   .     A
C151   C162    1.391   .     A
C151   C177    1.524   .     S
C152   C178    1.524   .     S
C152   C158    1.391   .     A
C152   C165    1.410   .     A
C153   C179    1.524   .     S
C153   C166    1.410   .     A
C153   C160    1.391   .     A
C154   C168    1.410   .     A
C154   C180    1.526   .     S
C155   C167    1.410   .     A
C155   C182    1.526   .     S
C156   C183    1.520   .     S
C156   C167    1.409   .     A
C157   C184    1.521   .     S
C157   C168    1.409   .     A
C158   C171    1.418   .     A
C158   C185    1.524   .     S
C159   O267    1.282   .     A
C159   C164    1.415   .     S
C159   O264    1.272   .     A
C160   C186    1.524   .     S
C160   C169    1.418   .     A
C161   C187    1.524   .     S
C161   C169    1.410   .     A
C162   C188    1.524   .     S
C162   C171    1.410   .     A
C163   C170    1.415   .     S
C167   C191    1.415   .     S
C168   C190    1.415   .     S
C169   C189    1.439   .     S
C170   O266    1.282   .     A
C170   O265    1.272   .     A
C171   C181    1.439   .     S
C172   H195    1.107   .     S
C172   H248    1.109   .     S
C172   H194    1.105   .     S
C173   H198    1.105   .     S
C173   H197    1.107   .     S
C173   H196    1.109   .     S
C174   H199    1.106   .     S
C174   H200    1.110   .     S
C174   H201    1.110   .     S
C175   H205    1.111   .     S
C175   H202    1.106   .     S
C175   H203    1.110   .     S
C176   H206    1.110   .     S
C176   H207    1.106   .     S
C176   H208    1.106   .     S
C177   H209    1.110   .     S
C177   H210    1.106   .     S
C177   H211    1.106   .     S
C178   H213    1.111   .     S
C178   H214    1.111   .     S
C178   H212    1.107   .     S
C179   H217    1.111   .     S
C179   H216    1.107   .     S
C179   H218    1.111   .     S
C180   H219    1.109   .     S
C180   H220    1.105   .     S
C180   H221    1.107   .     S
C181   O256    1.292   .     A
C181   O268    1.277   .     A
C182   H224    1.105   .     S
C182   H223    1.107   .     S
C182   H222    1.109   .     S
C183   H228    1.110   .     S
C183   H225    1.106   .     S
C183   H227    1.111   .     S
C184   H231    1.111   .     S
C184   H229    1.106   .     S
C184   H230    1.110   .     S
C185   H234    1.106   .     S
C185   H232    1.110   .     S
C185   H233    1.106   .     S
C186   H235    1.110   .     S
C186   H238    1.106   .     S
C186   H236    1.106   .     S
C187   H239    1.107   .     S
C187   H240    1.111   .     S
C187   H241    1.111   .     S
C188   H243    1.111   .     S
C188   H242    1.107   .     S
C188   H244    1.111   .     S
C189   O254    1.277   .     A
C189   O255    1.292   .     A
C190   O257    1.272   .     A
C190   O260    1.282   .     A
C191   O258    1.272   .     A
C191   O259    1.282   .     A
C192   H193    1.081   .     S
C192   N250    1.366   .     A
C192   C1228   1.415   1_554 S
N249   Zn269   2.005   .     S
N250   Zn270   2.005   .     S
N251   C414    1.366   1_545 A
N251   Zn271   2.005   .     S
N252   C415    1.366   1_545 S
N252   Zn272   2.005   .     S
O253   Zn269   2.022   .     S
O254   Zn272   2.022   .     S
O255   Zn271   1.990   .     S
O256   Zn544   1.990   .     S
O257   Zn544   1.993   .     S
O258   Zn271   1.993   .     S
O259   Zn272   1.988   .     S
O260   Zn543   1.988   .     S
O261   Zn134   2.022   1_655 S
O262   Zn133   1.990   1_655 S
O263   Zn270   1.990   .     S
O264   Zn134   1.993   1_655 S
O265   Zn269   1.993   .     S
O266   Zn270   1.988   .     S
O267   Zn133   1.988   1_655 S
O268   Zn543   2.022   .     S
Zn271  O532    1.988   1_545 S
Zn271  O540    2.022   1_545 S
Zn272  O529    1.993   1_545 S
Zn272  O528    1.990   1_545 S
C273   O389    1.277   .     A
C273   O399    1.292   .     A
C273   C302    1.439   .     S
C274   H340    1.081   .     S
C274   C819    1.415   .     S
C274   N521    1.366   .     S
C275   H351    1.082   .     S
C275   C1362   1.415   1_554 S
C275   N522    1.366   .     S
C276   N385    1.366   .     A
C276   H362    1.082   .     S
C276   C872    1.415   .     S
C277   H373    1.081   .     S
C277   N388    1.366   .     A
C277   C1368   1.415   1_554 S
C278   H381    1.081   .     S
C278   N115    1.366   1_565 A
C278   C823    1.415   .     S
C279   H382    1.082   .     S
C279   C1366   1.415   1_554 S
C279   N116    1.366   1_565 S
C280   H383    1.082   .     S
C280   C821    1.415   .     S
C280   N387    1.366   .     S
C281   C308    1.526   .     S
C281   C292    1.394   .     A
C281   C300    1.410   .     A
C282   C299    1.410   .     A
C282   C309    1.526   .     S
C282   C293    1.394   .     A
C283   C290    1.394   .     A
C283   C310    1.521   .     S
C283   C299    1.409   .     A
C284   C301    1.439   .     S
C284   O398    1.292   .     A
C284   O397    1.277   .     A
C285   C300    1.409   .     A
C285   C291    1.394   .     A
C285   C311    1.521   .     S
C286   C302    1.418   .     A
C286   C297    1.391   .     A
C286   C312    1.524   .     S
C287   C301    1.418   .     A
C287   C298    1.391   .     A
C287   C313    1.524   .     S
C288   C314    1.524   .     S
C288   C294    1.391   .     A
C288   C301    1.410   .     A
C289   C315    1.524   .     S
C289   C302    1.410   .     A
C289   C296    1.391   .     A
C290   C304    1.410   .     A
C290   C316    1.526   .     S
C291   C303    1.410   .     A
C291   C318    1.526   .     S
C292   C319    1.520   .     S
C292   C303    1.409   .     A
C293   C320    1.521   .     S
C293   C304    1.409   .     A
C294   C307    1.418   .     A
C294   C321    1.524   .     S
C295   O403    1.282   .     A
C295   C300    1.415   .     S
C295   O400    1.272   .     A
C296   C322    1.524   .     S
C296   C305    1.418   .     A
C297   C323    1.524   .     S
C297   C305    1.410   .     A
C298   C324    1.524   .     S
C298   C307    1.410   .     A
C299   C306    1.415   .     S
C303   C327    1.415   .     S
C304   C326    1.415   .     S
C305   C325    1.439   .     S
C306   O402    1.282   .     A
C306   O401    1.272   .     A
C307   C317    1.439   .     S
C308   H331    1.107   .     S
C308   H384    1.109   .     S
C308   H330    1.105   .     S
C309   H334    1.105   .     S
C309   H333    1.107   .     S
C309   H332    1.109   .     S
C310   H335    1.106   .     S
C310   H336    1.110   .     S
C310   H337    1.110   .     S
C311   H341    1.111   .     S
C311   H338    1.106   .     S
C311   H339    1.110   .     S
C312   H342    1.110   .     S
C312   H343    1.106   .     S
C312   H344    1.106   .     S
C313   H345    1.110   .     S
C313   H346    1.106   .     S
C313   H347    1.106   .     S
C314   H349    1.111   .     S
C314   H350    1.111   .     S
C314   H348    1.107   .     S
C315   H353    1.111   .     S
C315   H352    1.107   .     S
C315   H354    1.111   .     S
C316   H355    1.109   .     S
C316   H356    1.105   .     S
C316   H357    1.107   .     S
C317   O392    1.292   .     A
C317   O404    1.277   .     A
C318   H360    1.105   .     S
C318   H359    1.107   .     S
C318   H358    1.109   .     S
C319   H364    1.110   .     S
C319   H361    1.106   .     S
C319   H363    1.111   .     S
C320   H367    1.111   .     S
C320   H365    1.106   .     S
C320   H366    1.110   .     S
C321   H370    1.106   .     S
C321   H368    1.110   .     S
C321   H369    1.106   .     S
C322   H371    1.110   .     S
C322   H374    1.106   .     S
C322   H372    1.106   .     S
C323   H375    1.107   .     S
C323   H376    1.111   .     S
C323   H377    1.111   .     S
C324   H379    1.111   .     S
C324   H378    1.107   .     S
C324   H380    1.111   .     S
C325   O390    1.277   .     A
C325   O391    1.292   .     A
C326   O393    1.272   .     A
C326   O396    1.282   .     A
C327   O394    1.272   .     A
C327   O395    1.282   .     A
C328   H329    1.081   .     S
C328   N386    1.366   .     A
C328   C1364   1.415   1_554 S
N385   Zn405   2.005   .     S
N385   C410    1.366   1_455 S
N386   Zn406   2.005   .     S
N386   C411    1.366   1_455 S
N387   Zn407   2.005   .     S
N388   Zn408   2.005   .     S
O389   Zn405   2.022   .     S
O390   Zn408   2.022   .     S
O391   Zn407   1.990   .     S
O392   Zn136   1.990   1_565 S
O393   Zn136   1.993   1_565 S
O394   Zn407   1.993   .     S
O395   Zn408   1.988   .     S
O396   Zn135   1.988   1_565 S
O397   Zn542   2.022   .     S
O398   Zn541   1.990   .     S
O399   Zn406   1.990   .     S
O400   Zn542   1.993   .     S
O401   Zn405   1.993   .     S
O402   Zn406   1.988   .     S
O403   Zn541   1.988   .     S
O404   Zn135   2.022   1_565 S
Zn405  O539    1.988   1_455 S
Zn405  O534    1.990   1_455 S
Zn406  O536    1.993   1_455 S
Zn406  O533    2.022   1_455 S
C409   O525    1.277   .     A
C409   O535    1.292   .     A
C409   C438    1.439   .     S
C410   H476    1.081   .     S
C410   C955    1.415   .     S
C410   N385    1.366   1_655 S
C411   H487    1.082   .     S
C411   C1498   1.415   1_554 S
C411   N386    1.366   1_655 S
C412   N521    1.366   .     A
C412   H498    1.082   .     S
C412   C1008   1.415   .     S
C413   H509    1.081   .     S
C413   N524    1.366   .     A
C413   C1504   1.415   1_554 S
C414   H517    1.081   .     S
C414   N251    1.366   1_565 A
C414   C959    1.415   .     S
C415   H518    1.082   .     S
C415   C1502   1.415   1_554 S
C415   N252    1.366   1_565 S
C416   H519    1.082   .     S
C416   C957    1.415   .     S
C416   N523    1.366   .     S
C417   C444    1.526   .     S
C417   C428    1.394   .     A
C417   C436    1.410   .     A
C418   C435    1.410   .     A
C418   C445    1.526   .     S
C418   C429    1.394   .     A
C419   C426    1.394   .     A
C419   C446    1.521   .     S
C419   C435    1.409   .     A
C420   C437    1.439   .     S
C420   O534    1.292   .     A
C420   O533    1.277   .     A
C421   C436    1.409   .     A
C421   C427    1.394   .     A
C421   C447    1.521   .     S
C422   C438    1.418   .     A
C422   C433    1.391   .     A
C422   C448    1.524   .     S
C423   C437    1.418   .     A
C423   C434    1.391   .     A
C423   C449    1.524   .     S
C424   C450    1.524   .     S
C424   C430    1.391   .     A
C424   C437    1.410   .     A
C425   C451    1.524   .     S
C425   C438    1.410   .     A
C425   C432    1.391   .     A
C426   C440    1.410   .     A
C426   C452    1.526   .     S
C427   C439    1.410   .     A
C427   C454    1.526   .     S
C428   C455    1.520   .     S
C428   C439    1.409   .     A
C429   C456    1.521   .     S
C429   C440    1.409   .     A
C430   C443    1.418   .     A
C430   C457    1.524   .     S
C431   O539    1.282   .     A
C431   C436    1.415   .     S
C431   O536    1.272   .     A
C432   C458    1.524   .     S
C432   C441    1.418   .     A
C433   C459    1.524   .     S
C433   C441    1.410   .     A
C434   C460    1.524   .     S
C434   C443    1.410   .     A
C435   C442    1.415   .     S
C439   C463    1.415   .     S
C440   C462    1.415   .     S
C441   C461    1.439   .     S
C442   O538    1.282   .     A
C442   O537    1.272   .     A
C443   C453    1.439   .     S
C444   H467    1.107   .     S
C444   H520    1.109   .     S
C444   H466    1.105   .     S
C445   H470    1.105   .     S
C445   H469    1.107   .     S
C445   H468    1.109   .     S
C446   H471    1.106   .     S
C446   H472    1.110   .     S
C446   H473    1.110   .     S
C447   H477    1.111   .     S
C447   H474    1.106   .     S
C447   H475    1.110   .     S
C448   H478    1.110   .     S
C448   H479    1.106   .     S
C448   H480    1.106   .     S
C449   H481    1.110   .     S
C449   H482    1.106   .     S
C449   H483    1.106   .     S
C450   H485    1.111   .     S
C450   H486    1.111   .     S
C450   H484    1.107   .     S
C451   H489    1.111   .     S
C451   H488    1.107   .     S
C451   H490    1.111   .     S
C452   H491    1.109   .     S
C452   H492    1.105   .     S
C452   H493    1.107   .     S
C453   O528    1.292   .     A
C453   O540    1.277   .     A
C454   H496    1.105   .     S
C454   H495    1.107   .     S
C454   H494    1.109   .     S
C455   H500    1.110   .     S
C455   H497    1.106   .     S
C455   H499    1.111   .     S
C456   H503    1.111   .     S
C456   H501    1.106   .     S
C456   H502    1.110   .     S
C457   H506    1.106   .     S
C457   H504    1.110   .     S
C457   H505    1.106   .     S
C458   H507    1.110   .     S
C458   H510    1.106   .     S
C458   H508    1.106   .     S
C459   H511    1.107   .     S
C459   H512    1.111   .     S
C459   H513    1.111   .     S
C460   H515    1.111   .     S
C460   H514    1.107   .     S
C460   H516    1.111   .     S
C461   O526    1.277   .     A
C461   O527    1.292   .     A
C462   O529    1.272   .     A
C462   O532    1.282   .     A
C463   O530    1.272   .     A
C463   O531    1.282   .     A
C464   H465    1.081   .     S
C464   N522    1.366   .     A
C464   C1500   1.415   1_554 S
N521   Zn541   2.005   .     S
N522   Zn542   2.005   .     S
N523   Zn543   2.005   .     S
N524   Zn544   2.005   .     S
O525   Zn541   2.022   .     S
O526   Zn544   2.022   .     S
O527   Zn543   1.990   .     S
O528   Zn272   1.990   1_565 S
O529   Zn272   1.993   1_565 S
O530   Zn543   1.993   .     S
O531   Zn544   1.988   .     S
O532   Zn271   1.988   1_565 S
O533   Zn406   2.022   1_655 S
O534   Zn405   1.990   1_655 S
O535   Zn542   1.990   .     S
O536   Zn406   1.993   1_655 S
O537   Zn541   1.993   .     S
O538   Zn542   1.988   .     S
O539   Zn405   1.988   1_655 S
O540   Zn271   2.022   1_565 S
C545   O661    1.277   .     A
C545   O671    1.292   .     A
C545   C574    1.439   .     S
C546   H612    1.081   .     S
C546   C1091   1.415   .     S
C546   N793    1.366   .     S
C547   H623    1.082   .     S
C547   N794    1.366   .     S
C548   N657    1.366   .     A
C548   H634    1.082   .     S
C548   C1144   1.415   .     S
C549   H645    1.081   .     S
C549   N660    1.366   .     A
C550   H653    1.081   .     S
C550   N931    1.366   .     A
C550   C1095   1.415   .     S
C551   H654    1.082   .     S
C551   N932    1.366   .     S
C552   H655    1.082   .     S
C552   C1093   1.415   .     S
C552   N659    1.366   .     S
C553   C580    1.526   .     S
C553   C564    1.394   .     A
C553   C572    1.410   .     A
C554   C571    1.410   .     A
C554   C581    1.526   .     S
C554   C565    1.394   .     A
C555   C562    1.394   .     A
C555   C582    1.521   .     S
C555   C571    1.409   .     A
C556   C573    1.439   .     S
C556   O670    1.292   .     A
C556   O669    1.277   .     A
C557   C572    1.409   .     A
C557   C563    1.394   .     A
C557   C583    1.521   .     S
C558   C574    1.418   .     A
C558   C569    1.391   .     A
C558   C584    1.524   .     S
C559   C573    1.418   .     A
C559   C570    1.391   .     A
C559   C585    1.524   .     S
C560   C586    1.524   .     S
C560   C566    1.391   .     A
C560   C573    1.410   .     A
C561   C587    1.524   .     S
C561   C574    1.410   .     A
C561   C568    1.391   .     A
C562   C576    1.410   .     A
C562   C588    1.526   .     S
C563   C575    1.410   .     A
C563   C590    1.526   .     S
C564   C591    1.520   .     S
C564   C575    1.409   .     A
C565   C592    1.521   .     S
C565   C576    1.409   .     A
C566   C579    1.418   .     A
C566   C593    1.524   .     S
C567   O675    1.282   .     A
C567   C572    1.415   .     S
C567   O672    1.272   .     A
C568   C594    1.524   .     S
C568   C577    1.418   .     A
C569   C595    1.524   .     S
C569   C577    1.410   .     A
C570   C596    1.524   .     S
C570   C579    1.410   .     A
C571   C578    1.415   .     S
C575   C599    1.415   .     S
C576   C598    1.415   .     S
C577   C597    1.439   .     S
C578   O674    1.282   .     A
C578   O673    1.272   .     A
C579   C589    1.439   .     S
C580   H603    1.107   .     S
C580   H656    1.109   .     S
C580   H602    1.105   .     S
C581   H606    1.105   .     S
C581   H605    1.107   .     S
C581   H604    1.109   .     S
C582   H607    1.106   .     S
C582   H608    1.110   .     S
C582   H609    1.110   .     S
C583   H613    1.111   .     S
C583   H610    1.106   .     S
C583   H611    1.110   .     S
C584   H614    1.110   .     S
C584   H615    1.106   .     S
C584   H616    1.106   .     S
C585   H617    1.110   .     S
C585   H618    1.106   .     S
C585   H619    1.106   .     S
C586   H621    1.111   .     S
C586   H622    1.111   .     S
C586   H620    1.107   .     S
C587   H625    1.111   .     S
C587   H624    1.107   .     S
C587   H626    1.111   .     S
C588   H627    1.109   .     S
C588   H628    1.105   .     S
C588   H629    1.107   .     S
C589   O664    1.292   .     A
C589   O676    1.277   .     A
C590   H632    1.105   .     S
C590   H631    1.107   .     S
C590   H630    1.109   .     S
C591   H636    1.110   .     S
C591   H633    1.106   .     S
C591   H635    1.111   .     S
C592   H639    1.111   .     S
C592   H637    1.106   .     S
C592   H638    1.110   .     S
C593   H642    1.106   .     S
C593   H640    1.110   .     S
C593   H641    1.106   .     S
C594   H643    1.110   .     S
C594   H646    1.106   .     S
C594   H644    1.106   .     S
C595   H647    1.107   .     S
C595   H648    1.111   .     S
C595   H649    1.111   .     S
C596   H651    1.111   .     S
C596   H650    1.107   .     S
C596   H652    1.111   .     S
C597   O662    1.277   .     A
C597   O663    1.292   .     A
C598   O665    1.272   .     A
C598   O668    1.282   .     A
C599   O666    1.272   .     A
C599   O667    1.282   .     A
C600   H601    1.081   .     S
C600   N658    1.366   .     A
N657   Zn677   2.005   .     S
N657   C682    1.366   1_455 S
N658   Zn678   2.005   .     S
N658   C683    1.366   1_455 S
N659   C822    1.366   1_545 A
N659   Zn679   2.005   .     S
N660   C823    1.366   1_545 S
N660   Zn680   2.005   .     S
O661   Zn677   2.022   .     S
O662   Zn680   2.022   .     S
O663   Zn679   1.990   .     S
O664   Zn952   1.990   .     S
O665   Zn952   1.993   .     S
O666   Zn679   1.993   .     S
O667   Zn680   1.988   .     S
O668   Zn951   1.988   .     S
O669   Zn814   2.022   .     S
O670   Zn813   1.990   .     S
O671   Zn678   1.990   .     S
O672   Zn814   1.993   .     S
O673   Zn677   1.993   .     S
O674   Zn678   1.988   .     S
O675   Zn813   1.988   .     S
O676   Zn951   2.022   .     S
Zn677  O811    1.988   1_455 S
Zn677  O806    1.990   1_455 S
Zn678  O808    1.993   1_455 S
Zn678  O805    2.022   1_455 S
Zn679  O940    1.988   1_545 S
Zn679  O948    2.022   1_545 S
Zn680  O937    1.993   1_545 S
Zn680  O936    1.990   1_545 S
C681   O797    1.277   .     A
C681   O807    1.292   .     A
C681   C710    1.439   .     S
C682   H748    1.081   .     S
C682   C1227   1.415   .     S
C682   N657    1.366   1_655 S
C683   H759    1.082   .     S
C683   N658    1.366   1_655 S
C684   N793    1.366   .     A
C684   H770    1.082   .     S
C684   C1280   1.415   .     S
C685   H781    1.081   .     S
C685   N796    1.366   .     A
C686   H789    1.081   .     S
C686   N1067   1.366   .     A
C686   C1231   1.415   .     S
C687   H790    1.082   .     S
C687   N1068   1.366   .     S
C688   H791    1.082   .     S
C688   C1229   1.415   .     S
C688   N795    1.366   .     S
C689   C716    1.526   .     S
C689   C700    1.394   .     A
C689   C708    1.410   .     A
C690   C707    1.410   .     A
C690   C717    1.526   .     S
C690   C701    1.394   .     A
C691   C698    1.394   .     A
C691   C718    1.521   .     S
C691   C707    1.409   .     A
C692   C709    1.439   .     S
C692   O806    1.292   .     A
C692   O805    1.277   .     A
C693   C708    1.409   .     A
C693   C699    1.394   .     A
C693   C719    1.521   .     S
C694   C710    1.418   .     A
C694   C705    1.391   .     A
C694   C720    1.524   .     S
C695   C709    1.418   .     A
C695   C706    1.391   .     A
C695   C721    1.524   .     S
C696   C722    1.524   .     S
C696   C702    1.391   .     A
C696   C709    1.410   .     A
C697   C723    1.524   .     S
C697   C710    1.410   .     A
C697   C704    1.391   .     A
C698   C712    1.410   .     A
C698   C724    1.526   .     S
C699   C711    1.410   .     A
C699   C726    1.526   .     S
C700   C727    1.520   .     S
C700   C711    1.409   .     A
C701   C728    1.521   .     S
C701   C712    1.409   .     A
C702   C715    1.418   .     A
C702   C729    1.524   .     S
C703   O811    1.282   .     A
C703   C708    1.415   .     S
C703   O808    1.272   .     A
C704   C730    1.524   .     S
C704   C713    1.418   .     A
C705   C731    1.524   .     S
C705   C713    1.410   .     A
C706   C732    1.524   .     S
C706   C715    1.410   .     A
C707   C714    1.415   .     S
C711   C735    1.415   .     S
C712   C734    1.415   .     S
C713   C733    1.439   .     S
C714   O810    1.282   .     A
C714   O809    1.272   .     A
C715   C725    1.439   .     S
C716   H739    1.107   .     S
C716   H792    1.109   .     S
C716   H738    1.105   .     S
C717   H742    1.105   .     S
C717   H741    1.107   .     S
C717   H740    1.109   .     S
C718   H743    1.106   .     S
C718   H744    1.110   .     S
C718   H745    1.110   .     S
C719   H749    1.111   .     S
C719   H746    1.106   .     S
C719   H747    1.110   .     S
C720   H750    1.110   .     S
C720   H751    1.106   .     S
C720   H752    1.106   .     S
C721   H753    1.110   .     S
C721   H754    1.106   .     S
C721   H755    1.106   .     S
C722   H757    1.111   .     S
C722   H758    1.111   .     S
C722   H756    1.107   .     S
C723   H761    1.111   .     S
C723   H760    1.107   .     S
C723   H762    1.111   .     S
C724   H763    1.109   .     S
C724   H764    1.105   .     S
C724   H765    1.107   .     S
C725   O800    1.292   .     A
C725   O812    1.277   .     A
C726   H768    1.105   .     S
C726   H767    1.107   .     S
C726   H766    1.109   .     S
C727   H772    1.110   .     S
C727   H769    1.106   .     S
C727   H771    1.111   .     S
C728   H775    1.111   .     S
C728   H773    1.106   .     S
C728   H774    1.110   .     S
C729   H778    1.106   .     S
C729   H776    1.110   .     S
C729   H777    1.106   .     S
C730   H779    1.110   .     S
C730   H782    1.106   .     S
C730   H780    1.106   .     S
C731   H783    1.107   .     S
C731   H784    1.111   .     S
C731   H785    1.111   .     S
C732   H787    1.111   .     S
C732   H786    1.107   .     S
C732   H788    1.111   .     S
C733   O798    1.277   .     A
C733   O799    1.292   .     A
C734   O801    1.272   .     A
C734   O804    1.282   .     A
C735   O802    1.272   .     A
C735   O803    1.282   .     A
C736   H737    1.081   .     S
C736   N794    1.366   .     A
N793   Zn813   2.005   .     S
N794   Zn814   2.005   .     S
N795   C958    1.366   1_545 A
N795   Zn815   2.005   .     S
N796   C959    1.366   1_545 S
N796   Zn816   2.005   .     S
O797   Zn813   2.022   .     S
O798   Zn816   2.022   .     S
O799   Zn815   1.990   .     S
O800   Zn1088  1.990   .     S
O801   Zn1088  1.993   .     S
O802   Zn815   1.993   .     S
O803   Zn816   1.988   .     S
O804   Zn1087  1.988   .     S
O805   Zn678   2.022   1_655 S
O806   Zn677   1.990   1_655 S
O807   Zn814   1.990   .     S
O808   Zn678   1.993   1_655 S
O809   Zn813   1.993   .     S
O810   Zn814   1.988   .     S
O811   Zn677   1.988   1_655 S
O812   Zn1087  2.022   .     S
Zn815  O1076   1.988   1_545 S
Zn815  O1084   2.022   1_545 S
Zn816  O1073   1.993   1_545 S
Zn816  O1072   1.990   1_545 S
C817   O933    1.277   .     A
C817   O943    1.292   .     A
C817   C846    1.439   .     S
C818   H884    1.081   .     S
C818   C1363   1.415   .     S
C818   N1065   1.366   .     S
C819   H895    1.082   .     S
C819   N1066   1.366   .     S
C820   N929    1.366   .     A
C820   H906    1.082   .     S
C820   C1416   1.415   .     S
C821   H917    1.081   .     S
C821   N932    1.366   .     A
C822   H925    1.081   .     S
C822   N659    1.366   1_565 A
C822   C1367   1.415   .     S
C823   H926    1.082   .     S
C823   N660    1.366   1_565 S
C824   H927    1.082   .     S
C824   C1365   1.415   .     S
C824   N931    1.366   .     S
C825   C852    1.526   .     S
C825   C836    1.394   .     A
C825   C844    1.410   .     A
C826   C843    1.410   .     A
C826   C853    1.526   .     S
C826   C837    1.394   .     A
C827   C834    1.394   .     A
C827   C854    1.521   .     S
C827   C843    1.409   .     A
C828   C845    1.439   .     S
C828   O942    1.292   .     A
C828   O941    1.277   .     A
C829   C844    1.409   .     A
C829   C835    1.394   .     A
C829   C855    1.521   .     S
C830   C846    1.418   .     A
C830   C841    1.391   .     A
C830   C856    1.524   .     S
C831   C845    1.418   .     A
C831   C842    1.391   .     A
C831   C857    1.524   .     S
C832   C858    1.524   .     S
C832   C838    1.391   .     A
C832   C845    1.410   .     A
C833   C859    1.524   .     S
C833   C846    1.410   .     A
C833   C840    1.391   .     A
C834   C848    1.410   .     A
C834   C860    1.526   .     S
C835   C847    1.410   .     A
C835   C862    1.526   .     S
C836   C863    1.520   .     S
C836   C847    1.409   .     A
C837   C864    1.521   .     S
C837   C848    1.409   .     A
C838   C851    1.418   .     A
C838   C865    1.524   .     S
C839   O947    1.282   .     A
C839   C844    1.415   .     S
C839   O944    1.272   .     A
C840   C866    1.524   .     S
C840   C849    1.418   .     A
C841   C867    1.524   .     S
C841   C849    1.410   .     A
C842   C868    1.524   .     S
C842   C851    1.410   .     A
C843   C850    1.415   .     S
C847   C871    1.415   .     S
C848   C870    1.415   .     S
C849   C869    1.439   .     S
C850   O946    1.282   .     A
C850   O945    1.272   .     A
C851   C861    1.439   .     S
C852   H875    1.107   .     S
C852   H928    1.109   .     S
C852   H874    1.105   .     S
C853   H878    1.105   .     S
C853   H877    1.107   .     S
C853   H876    1.109   .     S
C854   H879    1.106   .     S
C854   H880    1.110   .     S
C854   H881    1.110   .     S
C855   H885    1.111   .     S
C855   H882    1.106   .     S
C855   H883    1.110   .     S
C856   H886    1.110   .     S
C856   H887    1.106   .     S
C856   H888    1.106   .     S
C857   H889    1.110   .     S
C857   H890    1.106   .     S
C857   H891    1.106   .     S
C858   H893    1.111   .     S
C858   H894    1.111   .     S
C858   H892    1.107   .     S
C859   H897    1.111   .     S
C859   H896    1.107   .     S
C859   H898    1.111   .     S
C860   H899    1.109   .     S
C860   H900    1.105   .     S
C860   H901    1.107   .     S
C861   O936    1.292   .     A
C861   O948    1.277   .     A
C862   H904    1.105   .     S
C862   H903    1.107   .     S
C862   H902    1.109   .     S
C863   H908    1.110   .     S
C863   H905    1.106   .     S
C863   H907    1.111   .     S
C864   H911    1.111   .     S
C864   H909    1.106   .     S
C864   H910    1.110   .     S
C865   H914    1.106   .     S
C865   H912    1.110   .     S
C865   H913    1.106   .     S
C866   H915    1.110   .     S
C866   H918    1.106   .     S
C866   H916    1.106   .     S
C867   H919    1.107   .     S
C867   H920    1.111   .     S
C867   H921    1.111   .     S
C868   H923    1.111   .     S
C868   H922    1.107   .     S
C868   H924    1.111   .     S
C869   O934    1.277   .     A
C869   O935    1.292   .     A
C870   O937    1.272   .     A
C870   O940    1.282   .     A
C871   O938    1.272   .     A
C871   O939    1.282   .     A
C872   H873    1.081   .     S
C872   N930    1.366   .     A
N929   Zn949   2.005   .     S
N929   C954    1.366   1_455 S
N930   Zn950   2.005   .     S
N930   C955    1.366   1_455 S
N931   Zn951   2.005   .     S
N932   Zn952   2.005   .     S
O933   Zn949   2.022   .     S
O934   Zn952   2.022   .     S
O935   Zn951   1.990   .     S
O936   Zn680   1.990   1_565 S
O937   Zn680   1.993   1_565 S
O938   Zn951   1.993   .     S
O939   Zn952   1.988   .     S
O940   Zn679   1.988   1_565 S
O941   Zn1086  2.022   .     S
O942   Zn1085  1.990   .     S
O943   Zn950   1.990   .     S
O944   Zn1086  1.993   .     S
O945   Zn949   1.993   .     S
O946   Zn950   1.988   .     S
O947   Zn1085  1.988   .     S
O948   Zn679   2.022   1_565 S
Zn949  O1083   1.988   1_455 S
Zn949  O1078   1.990   1_455 S
Zn950  O1080   1.993   1_455 S
Zn950  O1077   2.022   1_455 S
C953   O1069   1.277   .     A
C953   O1079   1.292   .     A
C953   C982    1.439   .     S
C954   H1020   1.081   .     S
C954   C1499   1.415   .     S
C954   N929    1.366   1_655 S
C955   H1031   1.082   .     S
C955   N930    1.366   1_655 S
C956   N1065   1.366   .     A
C956   H1042   1.082   .     S
C956   C1552   1.415   .     S
C957   H1053   1.081   .     S
C957   N1068   1.366   .     A
C958   H1061   1.081   .     S
C958   N795    1.366   1_565 A
C958   C1503   1.415   .     S
C959   H1062   1.082   .     S
C959   N796    1.366   1_565 S
C960   H1063   1.082   .     S
C960   C1501   1.415   .     S
C960   N1067   1.366   .     S
C961   C988    1.526   .     S
C961   C972    1.394   .     A
C961   C980    1.410   .     A
C962   C979    1.410   .     A
C962   C989    1.526   .     S
C962   C973    1.394   .     A
C963   C970    1.394   .     A
C963   C990    1.521   .     S
C963   C979    1.409   .     A
C964   C981    1.439   .     S
C964   O1078   1.292   .     A
C964   O1077   1.277   .     A
C965   C980    1.409   .     A
C965   C971    1.394   .     A
C965   C991    1.521   .     S
C966   C982    1.418   .     A
C966   C977    1.391   .     A
C966   C992    1.524   .     S
C967   C981    1.418   .     A
C967   C978    1.391   .     A
C967   C993    1.524   .     S
C968   C994    1.524   .     S
C968   C974    1.391   .     A
C968   C981    1.410   .     A
C969   C995    1.524   .     S
C969   C982    1.410   .     A
C969   C976    1.391   .     A
C970   C984    1.410   .     A
C970   C996    1.526   .     S
C971   C983    1.410   .     A
C971   C998    1.526   .     S
C972   C999    1.520   .     S
C972   C983    1.409   .     A
C973   C1000   1.521   .     S
C973   C984    1.409   .     A
C974   C987    1.418   .     A
C974   C1001   1.524   .     S
C975   O1083   1.282   .     A
C975   C980    1.415   .     S
C975   O1080   1.272   .     A
C976   C1002   1.524   .     S
C976   C985    1.418   .     A
C977   C1003   1.524   .     S
C977   C985    1.410   .     A
C978   C1004   1.524   .     S
C978   C987    1.410   .     A
C979   C986    1.415   .     S
C983   C1007   1.415   .     S
C984   C1006   1.415   .     S
C985   C1005   1.439   .     S
C986   O1082   1.282   .     A
C986   O1081   1.272   .     A
C987   C997    1.439   .     S
C988   H1011   1.107   .     S
C988   H1064   1.109   .     S
C988   H1010   1.105   .     S
C989   H1014   1.105   .     S
C989   H1013   1.107   .     S
C989   H1012   1.109   .     S
C990   H1015   1.106   .     S
C990   H1016   1.110   .     S
C990   H1017   1.110   .     S
C991   H1021   1.111   .     S
C991   H1018   1.106   .     S
C991   H1019   1.110   .     S
C992   H1022   1.110   .     S
C992   H1023   1.106   .     S
C992   H1024   1.106   .     S
C993   H1025   1.110   .     S
C993   H1026   1.106   .     S
C993   H1027   1.106   .     S
C994   H1029   1.111   .     S
C994   H1030   1.111   .     S
C994   H1028   1.107   .     S
C995   H1033   1.111   .     S
C995   H1032   1.107   .     S
C995   H1034   1.111   .     S
C996   H1035   1.109   .     S
C996   H1036   1.105   .     S
C996   H1037   1.107   .     S
C997   O1072   1.292   .     A
C997   O1084   1.277   .     A
C998   H1040   1.105   .     S
C998   H1039   1.107   .     S
C998   H1038   1.109   .     S
C999   H1044   1.110   .     S
C999   H1041   1.106   .     S
C999   H1043   1.111   .     S
C1000  H1047   1.111   .     S
C1000  H1045   1.106   .     S
C1000  H1046   1.110   .     S
C1001  H1050   1.106   .     S
C1001  H1048   1.110   .     S
C1001  H1049   1.106   .     S
C1002  H1051   1.110   .     S
C1002  H1054   1.106   .     S
C1002  H1052   1.106   .     S
C1003  H1055   1.107   .     S
C1003  H1056   1.111   .     S
C1003  H1057   1.111   .     S
C1004  H1059   1.111   .     S
C1004  H1058   1.107   .     S
C1004  H1060   1.111   .     S
C1005  O1070   1.277   .     A
C1005  O1071   1.292   .     A
C1006  O1073   1.272   .     A
C1006  O1076   1.282   .     A
C1007  O1074   1.272   .     A
C1007  O1075   1.282   .     A
C1008  H1009   1.081   .     S
C1008  N1066   1.366   .     A
N1065  Zn1085  2.005   .     S
N1066  Zn1086  2.005   .     S
N1067  Zn1087  2.005   .     S
N1068  Zn1088  2.005   .     S
O1069  Zn1085  2.022   .     S
O1070  Zn1088  2.022   .     S
O1071  Zn1087  1.990   .     S
O1072  Zn816   1.990   1_565 S
O1073  Zn816   1.993   1_565 S
O1074  Zn1087  1.993   .     S
O1075  Zn1088  1.988   .     S
O1076  Zn815   1.988   1_565 S
O1077  Zn950   2.022   1_655 S
O1078  Zn949   1.990   1_655 S
O1079  Zn1086  1.990   .     S
O1080  Zn950   1.993   1_655 S
O1081  Zn1085  1.993   .     S
O1082  Zn1086  1.988   .     S
O1083  Zn949   1.988   1_655 S
O1084  Zn815   2.022   1_565 S
C1089  O1205   1.277   .     A
C1089  O1215   1.292   .     A
C1089  C1118   1.439   .     S
C1090  H1156   1.081   .     S
C1090  C3      1.415   1_556 S
C1090  N1337   1.366   .     S
C1091  H1167   1.082   .     S
C1091  N1338   1.366   .     S
C1092  N1201   1.366   .     A
C1092  H1178   1.082   .     S
C1092  C56     1.415   1_556 S
C1093  H1189   1.081   .     S
C1093  N1204   1.366   .     A
C1094  H1197   1.081   .     S
C1094  N1475   1.366   .     A
C1094  C7      1.415   1_556 S
C1095  H1198   1.082   .     S
C1095  N1476   1.366   .     S
C1096  H1199   1.082   .     S
C1096  C5      1.415   1_556 S
C1096  N1203   1.366   .     S
C1097  C1124   1.526   .     S
C1097  C1108   1.394   .     A
C1097  C1116   1.410   .     A
C1098  C1115   1.410   .     A
C1098  C1125   1.526   .     S
C1098  C1109   1.394   .     A
C1099  C1106   1.394   .     A
C1099  C1126   1.521   .     S
C1099  C1115   1.409   .     A
C1100  C1117   1.439   .     S
C1100  O1214   1.292   .     A
C1100  O1213   1.277   .     A
C1101  C1116   1.409   .     A
C1101  C1107   1.394   .     A
C1101  C1127   1.521   .     S
C1102  C1118   1.418   .     A
C1102  C1113   1.391   .     A
C1102  C1128   1.524   .     S
C1103  C1117   1.418   .     A
C1103  C1114   1.391   .     A
C1103  C1129   1.524   .     S
C1104  C1130   1.524   .     S
C1104  C1110   1.391   .     A
C1104  C1117   1.410   .     A
C1105  C1131   1.524   .     S
C1105  C1118   1.410   .     A
C1105  C1112   1.391   .     A
C1106  C1120   1.410   .     A
C1106  C1132   1.526   .     S
C1107  C1119   1.410   .     A
C1107  C1134   1.526   .     S
C1108  C1135   1.520   .     S
C1108  C1119   1.409   .     A
C1109  C1136   1.521   .     S
C1109  C1120   1.409   .     A
C1110  C1123   1.418   .     A
C1110  C1137   1.524   .     S
C1111  O1219   1.282   .     A
C1111  C1116   1.415   .     S
C1111  O1216   1.272   .     A
C1112  C1138   1.524   .     S
C1112  C1121   1.418   .     A
C1113  C1139   1.524   .     S
C1113  C1121   1.410   .     A
C1114  C1140   1.524   .     S
C1114  C1123   1.410   .     A
C1115  C1122   1.415   .     S
C1119  C1143   1.415   .     S
C1120  C1142   1.415   .     S
C1121  C1141   1.439   .     S
C1122  O1218   1.282   .     A
C1122  O1217   1.272   .     A
C1123  C1133   1.439   .     S
C1124  H1147   1.107   .     S
C1124  H1200   1.109   .     S
C1124  H1146   1.105   .     S
C1125  H1150   1.105   .     S
C1125  H1149   1.107   .     S
C1125  H1148   1.109   .     S
C1126  H1151   1.106   .     S
C1126  H1152   1.110   .     S
C1126  H1153   1.110   .     S
C1127  H1157   1.111   .     S
C1127  H1154   1.106   .     S
C1127  H1155   1.110   .     S
C1128  H1158   1.110   .     S
C1128  H1159   1.106   .     S
C1128  H1160   1.106   .     S
C1129  H1161   1.110   .     S
C1129  H1162   1.106   .     S
C1129  H1163   1.106   .     S
C1130  H1165   1.111   .     S
C1130  H1166   1.111   .     S
C1130  H1164   1.107   .     S
C1131  H1169   1.111   .     S
C1131  H1168   1.107   .     S
C1131  H1170   1.111   .     S
C1132  H1171   1.109   .     S
C1132  H1172   1.105   .     S
C1132  H1173   1.107   .     S
C1133  O1208   1.292   .     A
C1133  O1220   1.277   .     A
C1134  H1176   1.105   .     S
C1134  H1175   1.107   .     S
C1134  H1174   1.109   .     S
C1135  H1180   1.110   .     S
C1135  H1177   1.106   .     S
C1135  H1179   1.111   .     S
C1136  H1183   1.111   .     S
C1136  H1181   1.106   .     S
C1136  H1182   1.110   .     S
C1137  H1186   1.106   .     S
C1137  H1184   1.110   .     S
C1137  H1185   1.106   .     S
C1138  H1187   1.110   .     S
C1138  H1190   1.106   .     S
C1138  H1188   1.106   .     S
C1139  H1191   1.107   .     S
C1139  H1192   1.111   .     S
C1139  H1193   1.111   .     S
C1140  H1195   1.111   .     S
C1140  H1194   1.107   .     S
C1140  H1196   1.111   .     S
C1141  O1206   1.277   .     A
C1141  O1207   1.292   .     A
C1142  O1209   1.272   .     A
C1142  O1212   1.282   .     A
C1143  O1210   1.272   .     A
C1143  O1211   1.282   .     A
C1144  H1145   1.081   .     S
C1144  N1202   1.366   .     A
N1201  Zn1221  2.005   .     S
N1201  C1226   1.366   1_455 S
N1202  Zn1222  2.005   .     S
N1202  C1227   1.366   1_455 S
N1203  C1366   1.366   1_545 A
N1203  Zn1223  2.005   .     S
N1204  C1367   1.366   1_545 S
N1204  Zn1224  2.005   .     S
O1205  Zn1221  2.022   .     S
O1206  Zn1224  2.022   .     S
O1207  Zn1223  1.990   .     S
O1208  Zn1496  1.990   .     S
O1209  Zn1496  1.993   .     S
O1210  Zn1223  1.993   .     S
O1211  Zn1224  1.988   .     S
O1212  Zn1495  1.988   .     S
O1213  Zn1358  2.022   .     S
O1214  Zn1357  1.990   .     S
O1215  Zn1222  1.990   .     S
O1216  Zn1358  1.993   .     S
O1217  Zn1221  1.993   .     S
O1218  Zn1222  1.988   .     S
O1219  Zn1357  1.988   .     S
O1220  Zn1495  2.022   .     S
Zn1221 O1355   1.988   1_455 S
Zn1221 O1350   1.990   1_455 S
Zn1222 O1352   1.993   1_455 S
Zn1222 O1349   2.022   1_455 S
Zn1223 O1484   1.988   1_545 S
Zn1223 O1492   2.022   1_545 S
Zn1224 O1481   1.993   1_545 S
Zn1224 O1480   1.990   1_545 S
C1225  O1341   1.277   .     A
C1225  O1351   1.292   .     A
C1225  C1254   1.439   .     S
C1226  H1292   1.081   .     S
C1226  C139    1.415   1_556 S
C1226  N1201   1.366   1_655 S
C1227  H1303   1.082   .     S
C1227  N1202   1.366   1_655 S
C1228  N1337   1.366   .     A
C1228  H1314   1.082   .     S
C1228  C192    1.415   1_556 S
C1229  H1325   1.081   .     S
C1229  N1340   1.366   .     A
C1230  H1333   1.081   .     S
C1230  N1611   1.366   .     A
C1230  C143    1.415   1_556 S
C1231  H1334   1.082   .     S
C1231  N1612   1.366   .     S
C1232  H1335   1.082   .     S
C1232  C141    1.415   1_556 S
C1232  N1339   1.366   .     S
C1233  C1260   1.526   .     S
C1233  C1244   1.394   .     A
C1233  C1252   1.410   .     A
C1234  C1251   1.410   .     A
C1234  C1261   1.526   .     S
C1234  C1245   1.394   .     A
C1235  C1242   1.394   .     A
C1235  C1262   1.521   .     S
C1235  C1251   1.409   .     A
C1236  C1253   1.439   .     S
C1236  O1350   1.292   .     A
C1236  O1349   1.277   .     A
C1237  C1252   1.409   .     A
C1237  C1243   1.394   .     A
C1237  C1263   1.521   .     S
C1238  C1254   1.418   .     A
C1238  C1249   1.391   .     A
C1238  C1264   1.524   .     S
C1239  C1253   1.418   .     A
C1239  C1250   1.391   .     A
C1239  C1265   1.524   .     S
C1240  C1266   1.524   .     S
C1240  C1246   1.391   .     A
C1240  C1253   1.410   .     A
C1241  C1267   1.524   .     S
C1241  C1254   1.410   .     A
C1241  C1248   1.391   .     A
C1242  C1256   1.410   .     A
C1242  C1268   1.526   .     S
C1243  C1255   1.410   .     A
C1243  C1270   1.526   .     S
C1244  C1271   1.520   .     S
C1244  C1255   1.409   .     A
C1245  C1272   1.521   .     S
C1245  C1256   1.409   .     A
C1246  C1259   1.418   .     A
C1246  C1273   1.524   .     S
C1247  O1355   1.282   .     A
C1247  C1252   1.415   .     S
C1247  O1352   1.272   .     A
C1248  C1274   1.524   .     S
C1248  C1257   1.418   .     A
C1249  C1275   1.524   .     S
C1249  C1257   1.410   .     A
C1250  C1276   1.524   .     S
C1250  C1259   1.410   .     A
C1251  C1258   1.415   .     S
C1255  C1279   1.415   .     S
C1256  C1278   1.415   .     S
C1257  C1277   1.439   .     S
C1258  O1354   1.282   .     A
C1258  O1353   1.272   .     A
C1259  C1269   1.439   .     S
C1260  H1283   1.107   .     S
C1260  H1336   1.109   .     S
C1260  H1282   1.105   .     S
C1261  H1286   1.105   .     S
C1261  H1285   1.107   .     S
C1261  H1284   1.109   .     S
C1262  H1287   1.106   .     S
C1262  H1288   1.110   .     S
C1262  H1289   1.110   .     S
C1263  H1293   1.111   .     S
C1263  H1290   1.106   .     S
C1263  H1291   1.110   .     S
C1264  H1294   1.110   .     S
C1264  H1295   1.106   .     S
C1264  H1296   1.106   .     S
C1265  H1297   1.110   .     S
C1265  H1298   1.106   .     S
C1265  H1299   1.106   .     S
C1266  H1301   1.111   .     S
C1266  H1302   1.111   .     S
C1266  H1300   1.107   .     S
C1267  H1305   1.111   .     S
C1267  H1304   1.107   .     S
C1267  H1306   1.111   .     S
C1268  H1307   1.109   .     S
C1268  H1308   1.105   .     S
C1268  H1309   1.107   .     S
C1269  O1344   1.292   .     A
C1269  O1356   1.277   .     A
C1270  H1312   1.105   .     S
C1270  H1311   1.107   .     S
C1270  H1310   1.109   .     S
C1271  H1316   1.110   .     S
C1271  H1313   1.106   .     S
C1271  H1315   1.111   .     S
C1272  H1319   1.111   .     S
C1272  H1317   1.106   .     S
C1272  H1318   1.110   .     S
C1273  H1322   1.106   .     S
C1273  H1320   1.110   .     S
C1273  H1321   1.106   .     S
C1274  H1323   1.110   .     S
C1274  H1326   1.106   .     S
C1274  H1324   1.106   .     S
C1275  H1327   1.107   .     S
C1275  H1328   1.111   .     S
C1275  H1329   1.111   .     S
C1276  H1331   1.111   .     S
C1276  H1330   1.107   .     S
C1276  H1332   1.111   .     S
C1277  O1342   1.277   .     A
C1277  O1343   1.292   .     A
C1278  O1345   1.272   .     A
C1278  O1348   1.282   .     A
C1279  O1346   1.272   .     A
C1279  O1347   1.282   .     A
C1280  H1281   1.081   .     S
C1280  N1338   1.366   .     A
N1337  Zn1357  2.005   .     S
N1338  Zn1358  2.005   .     S
N1339  C1502   1.366   1_545 A
N1339  Zn1359  2.005   .     S
N1340  C1503   1.366   1_545 S
N1340  Zn1360  2.005   .     S
O1341  Zn1357  2.022   .     S
O1342  Zn1360  2.022   .     S
O1343  Zn1359  1.990   .     S
O1344  Zn1632  1.990   .     S
O1345  Zn1632  1.993   .     S
O1346  Zn1359  1.993   .     S
O1347  Zn1360  1.988   .     S
O1348  Zn1631  1.988   .     S
O1349  Zn1222  2.022   1_655 S
O1350  Zn1221  1.990   1_655 S
O1351  Zn1358  1.990   .     S
O1352  Zn1222  1.993   1_655 S
O1353  Zn1357  1.993   .     S
O1354  Zn1358  1.988   .     S
O1355  Zn1221  1.988   1_655 S
O1356  Zn1631  2.022   .     S
Zn1359 O1620   1.988   1_545 S
Zn1359 O1628   2.022   1_545 S
Zn1360 O1617   1.993   1_545 S
Zn1360 O1616   1.990   1_545 S
C1361  O1477   1.277   .     A
C1361  O1487   1.292   .     A
C1361  C1390   1.439   .     S
C1362  H1428   1.081   .     S
C1362  C275    1.415   1_556 S
C1362  N1609   1.366   .     S
C1363  H1439   1.082   .     S
C1363  N1610   1.366   .     S
C1364  N1473   1.366   .     A
C1364  H1450   1.082   .     S
C1364  C328    1.415   1_556 S
C1365  H1461   1.081   .     S
C1365  N1476   1.366   .     A
C1366  H1469   1.081   .     S
C1366  N1203   1.366   1_565 A
C1366  C279    1.415   1_556 S
C1367  H1470   1.082   .     S
C1367  N1204   1.366   1_565 S
C1368  H1471   1.082   .     S
C1368  C277    1.415   1_556 S
C1368  N1475   1.366   .     S
C1369  C1396   1.526   .     S
C1369  C1380   1.394   .     A
C1369  C1388   1.410   .     A
C1370  C1387   1.410   .     A
C1370  C1397   1.526   .     S
C1370  C1381   1.394   .     A
C1371  C1378   1.394   .     A
C1371  C1398   1.521   .     S
C1371  C1387   1.409   .     A
C1372  C1389   1.439   .     S
C1372  O1486   1.292   .     A
C1372  O1485   1.277   .     A
C1373  C1388   1.409   .     A
C1373  C1379   1.394   .     A
C1373  C1399   1.521   .     S
C1374  C1390   1.418   .     A
C1374  C1385   1.391   .     A
C1374  C1400   1.524   .     S
C1375  C1389   1.418   .     A
C1375  C1386   1.391   .     A
C1375  C1401   1.524   .     S
C1376  C1402   1.524   .     S
C1376  C1382   1.391   .     A
C1376  C1389   1.410   .     A
C1377  C1403   1.524   .     S
C1377  C1390   1.410   .     A
C1377  C1384   1.391   .     A
C1378  C1392   1.410   .     A
C1378  C1404   1.526   .     S
C1379  C1391   1.410   .     A
C1379  C1406   1.526   .     S
C1380  C1407   1.520   .     S
C1380  C1391   1.409   .     A
C1381  C1408   1.521   .     S
C1381  C1392   1.409   .     A
C1382  C1395   1.418   .     A
C1382  C1409   1.524   .     S
C1383  O1491   1.282   .     A
C1383  C1388   1.415   .     S
C1383  O1488   1.272   .     A
C1384  C1410   1.524   .     S
C1384  C1393   1.418   .     A
C1385  C1411   1.524   .     S
C1385  C1393   1.410   .     A
C1386  C1412   1.524   .     S
C1386  C1395   1.410   .     A
C1387  C1394   1.415   .     S
C1391  C1415   1.415   .     S
C1392  C1414   1.415   .     S
C1393  C1413   1.439   .     S
C1394  O1490   1.282   .     A
C1394  O1489   1.272   .     A
C1395  C1405   1.439   .     S
C1396  H1419   1.107   .     S
C1396  H1472   1.109   .     S
C1396  H1418   1.105   .     S
C1397  H1422   1.105   .     S
C1397  H1421   1.107   .     S
C1397  H1420   1.109   .     S
C1398  H1423   1.106   .     S
C1398  H1424   1.110   .     S
C1398  H1425   1.110   .     S
C1399  H1429   1.111   .     S
C1399  H1426   1.106   .     S
C1399  H1427   1.110   .     S
C1400  H1430   1.110   .     S
C1400  H1431   1.106   .     S
C1400  H1432   1.106   .     S
C1401  H1433   1.110   .     S
C1401  H1434   1.106   .     S
C1401  H1435   1.106   .     S
C1402  H1437   1.111   .     S
C1402  H1438   1.111   .     S
C1402  H1436   1.107   .     S
C1403  H1441   1.111   .     S
C1403  H1440   1.107   .     S
C1403  H1442   1.111   .     S
C1404  H1443   1.109   .     S
C1404  H1444   1.105   .     S
C1404  H1445   1.107   .     S
C1405  O1480   1.292   .     A
C1405  O1492   1.277   .     A
C1406  H1448   1.105   .     S
C1406  H1447   1.107   .     S
C1406  H1446   1.109   .     S
C1407  H1452   1.110   .     S
C1407  H1449   1.106   .     S
C1407  H1451   1.111   .     S
C1408  H1455   1.111   .     S
C1408  H1453   1.106   .     S
C1408  H1454   1.110   .     S
C1409  H1458   1.106   .     S
C1409  H1456   1.110   .     S
C1409  H1457   1.106   .     S
C1410  H1459   1.110   .     S
C1410  H1462   1.106   .     S
C1410  H1460   1.106   .     S
C1411  H1463   1.107   .     S
C1411  H1464   1.111   .     S
C1411  H1465   1.111   .     S
C1412  H1467   1.111   .     S
C1412  H1466   1.107   .     S
C1412  H1468   1.111   .     S
C1413  O1478   1.277   .     A
C1413  O1479   1.292   .     A
C1414  O1481   1.272   .     A
C1414  O1484   1.282   .     A
C1415  O1482   1.272   .     A
C1415  O1483   1.282   .     A
C1416  H1417   1.081   .     S
C1416  N1474   1.366   .     A
N1473  Zn1493  2.005   .     S
N1473  C1498   1.366   1_455 S
N1474  Zn1494  2.005   .     S
N1474  C1499   1.366   1_455 S
N1475  Zn1495  2.005   .     S
N1476  Zn1496  2.005   .     S
O1477  Zn1493  2.022   .     S
O1478  Zn1496  2.022   .     S
O1479  Zn1495  1.990   .     S
O1480  Zn1224  1.990   1_565 S
O1481  Zn1224  1.993   1_565 S
O1482  Zn1495  1.993   .     S
O1483  Zn1496  1.988   .     S
O1484  Zn1223  1.988   1_565 S
O1485  Zn1630  2.022   .     S
O1486  Zn1629  1.990   .     S
O1487  Zn1494  1.990   .     S
O1488  Zn1630  1.993   .     S
O1489  Zn1493  1.993   .     S
O1490  Zn1494  1.988   .     S
O1491  Zn1629  1.988   .     S
O1492  Zn1223  2.022   1_565 S
Zn1493 O1627   1.988   1_455 S
Zn1493 O1622   1.990   1_455 S
Zn1494 O1624   1.993   1_455 S
Zn1494 O1621   2.022   1_455 S
C1497  O1613   1.277   .     A
C1497  O1623   1.292   .     A
C1497  C1526   1.439   .     S
C1498  H1564   1.081   .     S
C1498  C411    1.415   1_556 S
C1498  N1473   1.366   1_655 S
C1499  H1575   1.082   .     S
C1499  N1474   1.366   1_655 S
C1500  N1609   1.366   .     A
C1500  H1586   1.082   .     S
C1500  C464    1.415   1_556 S
C1501  H1597   1.081   .     S
C1501  N1612   1.366   .     A
C1502  H1605   1.081   .     S
C1502  N1339   1.366   1_565 A
C1502  C415    1.415   1_556 S
C1503  H1606   1.082   .     S
C1503  N1340   1.366   1_565 S
C1504  H1607   1.082   .     S
C1504  C413    1.415   1_556 S
C1504  N1611   1.366   .     S
C1505  C1532   1.526   .     S
C1505  C1516   1.394   .     A
C1505  C1524   1.410   .     A
C1506  C1523   1.410   .     A
C1506  C1533   1.526   .     S
C1506  C1517   1.394   .     A
C1507  C1514   1.394   .     A
C1507  C1534   1.521   .     S
C1507  C1523   1.409   .     A
C1508  C1525   1.439   .     S
C1508  O1622   1.292   .     A
C1508  O1621   1.277   .     A
C1509  C1524   1.409   .     A
C1509  C1515   1.394   .     A
C1509  C1535   1.521   .     S
C1510  C1526   1.418   .     A
C1510  C1521   1.391   .     A
C1510  C1536   1.524   .     S
C1511  C1525   1.418   .     A
C1511  C1522   1.391   .     A
C1511  C1537   1.524   .     S
C1512  C1538   1.524   .     S
C1512  C1518   1.391   .     A
C1512  C1525   1.410   .     A
C1513  C1539   1.524   .     S
C1513  C1526   1.410   .     A
C1513  C1520   1.391   .     A
C1514  C1528   1.410   .     A
C1514  C1540   1.526   .     S
C1515  C1527   1.410   .     A
C1515  C1542   1.526   .     S
C1516  C1543   1.520   .     S
C1516  C1527   1.409   .     A
C1517  C1544   1.521   .     S
C1517  C1528   1.409   .     A
C1518  C1531   1.418   .     A
C1518  C1545   1.524   .     S
C1519  O1627   1.282   .     A
C1519  C1524   1.415   .     S
C1519  O1624   1.272   .     A
C1520  C1546   1.524   .     S
C1520  C1529   1.418   .     A
C1521  C1547   1.524   .     S
C1521  C1529   1.410   .     A
C1522  C1548   1.524   .     S
C1522  C1531   1.410   .     A
C1523  C1530   1.415   .     S
C1527  C1551   1.415   .     S
C1528  C1550   1.415   .     S
C1529  C1549   1.439   .     S
C1530  O1626   1.282   .     A
C1530  O1625   1.272   .     A
C1531  C1541   1.439   .     S
C1532  H1555   1.107   .     S
C1532  H1608   1.109   .     S
C1532  H1554   1.105   .     S
C1533  H1558   1.105   .     S
C1533  H1557   1.107   .     S
C1533  H1556   1.109   .     S
C1534  H1559   1.106   .     S
C1534  H1560   1.110   .     S
C1534  H1561   1.110   .     S
C1535  H1565   1.111   .     S
C1535  H1562   1.106   .     S
C1535  H1563   1.110   .     S
C1536  H1566   1.110   .     S
C1536  H1567   1.106   .     S
C1536  H1568   1.106   .     S
C1537  H1569   1.110   .     S
C1537  H1570   1.106   .     S
C1537  H1571   1.106   .     S
C1538  H1573   1.111   .     S
C1538  H1574   1.111   .     S
C1538  H1572   1.107   .     S
C1539  H1577   1.111   .     S
C1539  H1576   1.107   .     S
C1539  H1578   1.111   .     S
C1540  H1579   1.109   .     S
C1540  H1580   1.105   .     S
C1540  H1581   1.107   .     S
C1541  O1616   1.292   .     A
C1541  O1628   1.277   .     A
C1542  H1584   1.105   .     S
C1542  H1583   1.107   .     S
C1542  H1582   1.109   .     S
C1543  H1588   1.110   .     S
C1543  H1585   1.106   .     S
C1543  H1587   1.111   .     S
C1544  H1591   1.111   .     S
C1544  H1589   1.106   .     S
C1544  H1590   1.110   .     S
C1545  H1594   1.106   .     S
C1545  H1592   1.110   .     S
C1545  H1593   1.106   .     S
C1546  H1595   1.110   .     S
C1546  H1598   1.106   .     S
C1546  H1596   1.106   .     S
C1547  H1599   1.107   .     S
C1547  H1600   1.111   .     S
C1547  H1601   1.111   .     S
C1548  H1603   1.111   .     S
C1548  H1602   1.107   .     S
C1548  H1604   1.111   .     S
C1549  O1614   1.277   .     A
C1549  O1615   1.292   .     A
C1550  O1617   1.272   .     A
C1550  O1620   1.282   .     A
C1551  O1618   1.272   .     A
C1551  O1619   1.282   .     A
C1552  H1553   1.081   .     S
C1552  N1610   1.366   .     A
N1609  Zn1629  2.005   .     S
N1610  Zn1630  2.005   .     S
N1611  Zn1631  2.005   .     S
N1612  Zn1632  2.005   .     S
O1613  Zn1629  2.022   .     S
O1614  Zn1632  2.022   .     S
O1615  Zn1631  1.990   .     S
O1616  Zn1360  1.990   1_565 S
O1617  Zn1360  1.993   1_565 S
O1618  Zn1631  1.993   .     S
O1619  Zn1632  1.988   .     S
O1620  Zn1359  1.988   1_565 S
O1621  Zn1494  2.022   1_655 S
O1622  Zn1493  1.990   1_655 S
O1623  Zn1630  1.990   .     S
O1624  Zn1494  1.993   1_655 S
O1625  Zn1629  1.993   .     S
O1626  Zn1630  1.988   .     S
O1627  Zn1493  1.988   1_655 S
O1628  Zn1359  2.022   1_565 S
