data_str_m3_o2_o10_pcu_sym.48
_audit_creation_date              2020-01-03
_audit_creation_method            'Materials Studio'
_symmetry_space_group_name_H-M    'P1'
_symmetry_Int_Tables_number       1
_symmetry_cell_setting            triclinic
loop_
_symmetry_equiv_pos_as_xyz
  x,y,z
_cell_length_a                    25.7678
_cell_length_b                    29.7409
_cell_length_c                    28.5126
_cell_angle_alpha                 89.6237
_cell_angle_beta                  98.4493
_cell_angle_gamma                 91.0139
loop_
_atom_site_label
_atom_site_type_symbol
_atom_site_fract_x
_atom_site_fract_y
_atom_site_fract_z
_atom_site_U_iso_or_equiv
_atom_site_adp_type
_atom_site_occupancy
C1     C     0.16802   0.16378   0.25019   0.00000  Uiso   1.00
C2     C     0.15701   0.20975   0.44630   0.00000  Uiso   1.00
C3     C     0.16627   0.24968   0.02695   0.00000  Uiso   1.00
C4     C     0.16597   0.24970   0.47348   0.00000  Uiso   1.00
C5     C     0.06705   0.24876   0.23780   0.00000  Uiso   1.00
C6     C     0.26626   0.25139   0.26227   0.00000  Uiso   1.00
C7     C     0.01220   0.24100   0.23327   0.00000  Uiso   1.00
C8     C     0.32115   0.25890   0.26716   0.00000  Uiso   1.00
C9     C     0.15783   0.04194   0.28030   0.00000  Uiso   1.00
C10    C     0.14520   0.45635   0.21824   0.00000  Uiso   1.00
C11    C     0.14784   0.08797   0.27785   0.00000  Uiso   1.00
C12    C     0.16694   0.33601   0.24975   0.00000  Uiso   1.00
C13    C     0.13536   0.41068   0.22226   0.00000  Uiso   1.00
C14    C     0.17648   0.11580   0.25092   0.00000  Uiso   1.00
C15    C     0.17349   0.38393   0.24915   0.00000  Uiso   1.00
C16    C     0.21414   0.09857   0.22505   0.00000  Uiso   1.00
C17    C     0.22179   0.40201   0.27049   0.00000  Uiso   1.00
C18    C     0.22133   0.05205   0.22399   0.00000  Uiso   1.00
C19    C     0.23021   0.44861   0.26993   0.00000  Uiso   1.00
C20    C     0.19251   0.02398   0.25140   0.00000  Uiso   1.00
C21    C     0.19105   0.47565   0.24439   0.00000  Uiso   1.00
C22    C     0.31786   0.21206   0.15850   0.00000  Uiso   1.00
C23    C     0.12474   0.22928   0.04782   0.00000  Uiso   1.00
C24    C     0.01597   0.28314   0.34294   0.00000  Uiso   1.00
C25    C     0.10412   0.15464   0.11373   0.00000  Uiso   1.00
C26    C     0.24805   0.34150   0.40323   0.00000  Uiso   1.00
C27    C     0.23278   0.34420   0.13004   0.00000  Uiso   1.00
C28    C     0.07942   0.16431   0.37807   0.00000  Uiso   1.00
C29    C     0.17428   0.28995   0.44848   0.00000  Uiso   1.00
C30    C     0.12912   0.22595   0.09777   0.00000  Uiso   1.00
C31    C     0.18174   0.28784   0.40003   0.00000  Uiso   1.00
C32    C     0.20417   0.27392   0.10711   0.00000  Uiso   1.00
C33    C     0.15048   0.21244   0.39603   0.00000  Uiso   1.00
C34    C     0.20800   0.27039   0.05823   0.00000  Uiso   1.00
H35    H     0.00422   0.18524   0.14143   0.00000  Uiso   1.00
H36    H     0.08155   0.36298   0.21083   0.00000  Uiso   1.00
H37    H     0.26956   0.11206   0.18629   0.00000  Uiso   1.00
H38    H     0.29354   0.38955   0.30046   0.00000  Uiso   1.00
H39    H     0.25849   0.00258   0.19852   0.00000  Uiso   1.00
H40    H     0.27835   0.49900   0.29077   0.00000  Uiso   1.00
H41    H     0.07491   0.22650   0.48956   0.00000  Uiso   1.00
H42    H     0.15711   0.32984   0.49775   0.00000  Uiso   1.00
H43    H     0.14652   0.14727   0.12430   0.00000  Uiso   1.00
H44    H     0.09086   0.14292   0.07694   0.00000  Uiso   1.00
H45    H     0.08203   0.13483   0.13759   0.00000  Uiso   1.00
H46    H     0.33275   0.24549   0.14787   0.00000  Uiso   1.00
H47    H     0.27177   0.31504   0.42390   0.00000  Uiso   1.00
H48    H     0.24047   0.36934   0.42689   0.00000  Uiso   1.00
H49    H     0.27255   0.35590   0.37795   0.00000  Uiso   1.00
H50    H     0.19112   0.35291   0.13131   0.00000  Uiso   1.00
H51    H     0.24463   0.35592   0.09602   0.00000  Uiso   1.00
H52    H     0.25729   0.36284   0.15906   0.00000  Uiso   1.00
H53    H     0.08022   0.13072   0.39530   0.00000  Uiso   1.00
H54    H     0.05286   0.16209   0.34378   0.00000  Uiso   1.00
H55    H     0.06159   0.18851   0.40058   0.00000  Uiso   1.00
H56    H     0.25722   0.27303   0.01258   0.00000  Uiso   1.00
H57    H     0.27560   0.20914   0.14414   0.00000  Uiso   1.00
H58    H     0.17054   0.16873  -0.00000   0.00000  Uiso   1.00
H59    H     0.03387   0.24961   0.34987   0.00000  Uiso   1.00
H60    H     0.31137   0.28415   0.35670   0.00000  Uiso   1.00
H61    H     0.04270   0.30815   0.36315   0.00000  Uiso   1.00
H62    H     0.14949   0.48645   0.31593   0.00000  Uiso   1.00
H63    H     0.12242   0.01109   0.18343   0.00000  Uiso   1.00
H64    H     0.08999   0.08309   0.31533   0.00000  Uiso   1.00
N65    N     0.16667   0.24999   0.12624   0.00000  Uiso   1.00
N66    N     0.16667   0.25001   0.37376   0.00000  Uiso   1.00
O67    O     0.16667   0.18453   0.28974   0.00000  Uiso   1.00
O68    O     0.00999   0.29493   0.29447   0.00000  Uiso   1.00
O69    O     0.13110   0.01521   0.30908   0.00000  Uiso   1.00
O70    O     0.10735   0.48151   0.19084   0.00000  Uiso   1.00
O71    O     0.10919   0.10674   0.29995   0.00000  Uiso   1.00
O72    O     0.08806   0.39371   0.19929   0.00000  Uiso   1.00
O73    O     0.24283   0.12827   0.20089   0.00000  Uiso   1.00
O74    O     0.26010   0.37291   0.29087   0.00000  Uiso   1.00
O75    O     0.25512   0.03550   0.19490   0.00000  Uiso   1.00
O76    O     0.27569   0.46620   0.29577   0.00000  Uiso   1.00
O77    O     0.07960   0.21220   0.02130   0.00000  Uiso   1.00
O78    O     0.16666   0.31547   0.21026   0.00000  Uiso   1.00
O79    O     0.17542   0.33171   0.46961   0.00000  Uiso   1.00
O80    O     0.09324   0.20063   0.11844   0.00000  Uiso   1.00
O81    O     0.20026   0.32505   0.37767   0.00000  Uiso   1.00
O82    O     0.24171   0.29780   0.13698   0.00000  Uiso   1.00
O83    O     0.13061   0.17599   0.36899   0.00000  Uiso   1.00
O84    O     0.25295   0.28732   0.04298   0.00000  Uiso   1.00
O85    O     0.15294   0.16783   0.46674   0.00000  Uiso   1.00
O86    O     0.16667   0.18453   0.21026   0.00000  Uiso   1.00
O87    O     0.16666   0.31547   0.28974   0.00000  Uiso   1.00
O88    O     0.09058   0.25000   0.28044   0.00000  Uiso   1.00
O89    O     0.24275   0.25000   0.21956   0.00000  Uiso   1.00
O90    O     0.09058   0.25000   0.20096   0.00000  Uiso   1.00
O91    O     0.24275   0.25000   0.29903   0.00000  Uiso   1.00
O92    O     0.32406   0.20367   0.20780   0.00000  Uiso   1.00
Zn93   Zn    0.16667   0.25001   0.30307   0.00000  Uiso   1.00
Zn94   Zn    0.16667   0.25000   0.19693   0.00000  Uiso   1.00
C95    C     0.50135   0.16378   0.25019   0.00000  Uiso   1.00
C96    C     0.49034   0.20975   0.44630   0.00000  Uiso   1.00
C97    C     0.49960   0.24968   0.02695   0.00000  Uiso   1.00
C98    C     0.49930   0.24970   0.47348   0.00000  Uiso   1.00
C99    C     0.40038   0.24876   0.23780   0.00000  Uiso   1.00
C100   C     0.59959   0.25139   0.26227   0.00000  Uiso   1.00
C101   C     0.34553   0.24100   0.23327   0.00000  Uiso   1.00
C102   C     0.65448   0.25890   0.26716   0.00000  Uiso   1.00
C103   C     0.49116   0.04194   0.28030   0.00000  Uiso   1.00
C104   C     0.47853   0.45635   0.21824   0.00000  Uiso   1.00
C105   C     0.48117   0.08797   0.27785   0.00000  Uiso   1.00
C106   C     0.50028   0.33601   0.24975   0.00000  Uiso   1.00
C107   C     0.46869   0.41068   0.22226   0.00000  Uiso   1.00
C108   C     0.50981   0.11580   0.25092   0.00000  Uiso   1.00
C109   C     0.50682   0.38393   0.24915   0.00000  Uiso   1.00
C110   C     0.54747   0.09857   0.22505   0.00000  Uiso   1.00
C111   C     0.55513   0.40201   0.27049   0.00000  Uiso   1.00
C112   C     0.55466   0.05205   0.22399   0.00000  Uiso   1.00
C113   C     0.56354   0.44861   0.26993   0.00000  Uiso   1.00
C114   C     0.52584   0.02398   0.25140   0.00000  Uiso   1.00
C115   C     0.52438   0.47565   0.24439   0.00000  Uiso   1.00
C116   C     0.65119   0.21206   0.15850   0.00000  Uiso   1.00
C117   C     0.45807   0.22928   0.04782   0.00000  Uiso   1.00
C118   C     0.34930   0.28314   0.34294   0.00000  Uiso   1.00
C119   C     0.43746   0.15464   0.11373   0.00000  Uiso   1.00
C120   C     0.58139   0.34150   0.40323   0.00000  Uiso   1.00
C121   C     0.56611   0.34420   0.13004   0.00000  Uiso   1.00
C122   C     0.41275   0.16431   0.37807   0.00000  Uiso   1.00
C123   C     0.50762   0.28995   0.44848   0.00000  Uiso   1.00
C124   C     0.46245   0.22595   0.09777   0.00000  Uiso   1.00
C125   C     0.51507   0.28784   0.40003   0.00000  Uiso   1.00
C126   C     0.53750   0.27392   0.10711   0.00000  Uiso   1.00
C127   C     0.48381   0.21244   0.39603   0.00000  Uiso   1.00
C128   C     0.54133   0.27039   0.05823   0.00000  Uiso   1.00
H129   H     0.33755   0.18524   0.14143   0.00000  Uiso   1.00
H130   H     0.41488   0.36298   0.21083   0.00000  Uiso   1.00
H131   H     0.60290   0.11206   0.18629   0.00000  Uiso   1.00
H132   H     0.62687   0.38955   0.30046   0.00000  Uiso   1.00
H133   H     0.59182   0.00258   0.19852   0.00000  Uiso   1.00
H134   H     0.61168   0.49900   0.29077   0.00000  Uiso   1.00
H135   H     0.40825   0.22650   0.48956   0.00000  Uiso   1.00
H136   H     0.49044   0.32984   0.49775   0.00000  Uiso   1.00
H137   H     0.47985   0.14727   0.12430   0.00000  Uiso   1.00
H138   H     0.42419   0.14292   0.07694   0.00000  Uiso   1.00
H139   H     0.41537   0.13483   0.13759   0.00000  Uiso   1.00
H140   H     0.66608   0.24549   0.14787   0.00000  Uiso   1.00
H141   H     0.60511   0.31504   0.42390   0.00000  Uiso   1.00
H142   H     0.57380   0.36934   0.42689   0.00000  Uiso   1.00
H143   H     0.60589   0.35590   0.37795   0.00000  Uiso   1.00
H144   H     0.52445   0.35291   0.13131   0.00000  Uiso   1.00
H145   H     0.57796   0.35592   0.09602   0.00000  Uiso   1.00
H146   H     0.59062   0.36284   0.15906   0.00000  Uiso   1.00
H147   H     0.41356   0.13072   0.39530   0.00000  Uiso   1.00
H148   H     0.38620   0.16209   0.34378   0.00000  Uiso   1.00
H149   H     0.39493   0.18851   0.40058   0.00000  Uiso   1.00
H150   H     0.59055   0.27303   0.01258   0.00000  Uiso   1.00
H151   H     0.60893   0.20914   0.14414   0.00000  Uiso   1.00
H152   H     0.50387   0.16873  -0.00000   0.00000  Uiso   1.00
H153   H     0.36720   0.24961   0.34987   0.00000  Uiso   1.00
H154   H     0.64470   0.28415   0.35670   0.00000  Uiso   1.00
H155   H     0.37604   0.30815   0.36315   0.00000  Uiso   1.00
H156   H     0.48282   0.48645   0.31593   0.00000  Uiso   1.00
H157   H     0.45575   0.01109   0.18343   0.00000  Uiso   1.00
H158   H     0.42332   0.08309   0.31533   0.00000  Uiso   1.00
N159   N     0.50000   0.24999   0.12624   0.00000  Uiso   1.00
N160   N     0.50000   0.25001   0.37376   0.00000  Uiso   1.00
O161   O     0.50000   0.18453   0.28974   0.00000  Uiso   1.00
O162   O     0.34332   0.29493   0.29447   0.00000  Uiso   1.00
O163   O     0.46444   0.01521   0.30908   0.00000  Uiso   1.00
O164   O     0.44068   0.48151   0.19084   0.00000  Uiso   1.00
O165   O     0.44252   0.10674   0.29995   0.00000  Uiso   1.00
O166   O     0.42139   0.39371   0.19929   0.00000  Uiso   1.00
O167   O     0.57616   0.12827   0.20089   0.00000  Uiso   1.00
O168   O     0.59343   0.37291   0.29087   0.00000  Uiso   1.00
O169   O     0.58845   0.03550   0.19490   0.00000  Uiso   1.00
O170   O     0.60902   0.46620   0.29577   0.00000  Uiso   1.00
O171   O     0.41293   0.21220   0.02130   0.00000  Uiso   1.00
O172   O     0.50000   0.31547   0.21026   0.00000  Uiso   1.00
O173   O     0.50876   0.33171   0.46961   0.00000  Uiso   1.00
O174   O     0.42657   0.20063   0.11844   0.00000  Uiso   1.00
O175   O     0.53360   0.32505   0.37767   0.00000  Uiso   1.00
O176   O     0.57504   0.29780   0.13698   0.00000  Uiso   1.00
O177   O     0.46394   0.17599   0.36899   0.00000  Uiso   1.00
O178   O     0.58628   0.28732   0.04298   0.00000  Uiso   1.00
O179   O     0.48628   0.16783   0.46674   0.00000  Uiso   1.00
O180   O     0.50000   0.18453   0.21026   0.00000  Uiso   1.00
O181   O     0.50000   0.31547   0.28974   0.00000  Uiso   1.00
O182   O     0.42392   0.25000   0.28044   0.00000  Uiso   1.00
O183   O     0.57608   0.25000   0.21956   0.00000  Uiso   1.00
O184   O     0.42392   0.25000   0.20096   0.00000  Uiso   1.00
O185   O     0.57608   0.25000   0.29903   0.00000  Uiso   1.00
O186   O     0.65739   0.20367   0.20780   0.00000  Uiso   1.00
Zn187  Zn    0.50000   0.25001   0.30307   0.00000  Uiso   1.00
Zn188  Zn    0.50000   0.25000   0.19693   0.00000  Uiso   1.00
C189   C     0.83468   0.16378   0.25019   0.00000  Uiso   1.00
C190   C     0.82368   0.20975   0.44630   0.00000  Uiso   1.00
C191   C     0.83294   0.24968   0.02695   0.00000  Uiso   1.00
C192   C     0.83263   0.24970   0.47348   0.00000  Uiso   1.00
C193   C     0.73372   0.24876   0.23780   0.00000  Uiso   1.00
C194   C     0.93292   0.25139   0.26227   0.00000  Uiso   1.00
C195   C     0.67887   0.24100   0.23327   0.00000  Uiso   1.00
C196   C     0.98781   0.25890   0.26716   0.00000  Uiso   1.00
C197   C     0.82449   0.04194   0.28030   0.00000  Uiso   1.00
C198   C     0.81186   0.45635   0.21824   0.00000  Uiso   1.00
C199   C     0.81451   0.08797   0.27785   0.00000  Uiso   1.00
C200   C     0.83361   0.33601   0.24975   0.00000  Uiso   1.00
C201   C     0.80203   0.41068   0.22226   0.00000  Uiso   1.00
C202   C     0.84314   0.11580   0.25092   0.00000  Uiso   1.00
C203   C     0.84015   0.38393   0.24915   0.00000  Uiso   1.00
C204   C     0.88081   0.09857   0.22505   0.00000  Uiso   1.00
C205   C     0.88846   0.40201   0.27049   0.00000  Uiso   1.00
C206   C     0.88799   0.05205   0.22399   0.00000  Uiso   1.00
C207   C     0.89688   0.44861   0.26993   0.00000  Uiso   1.00
C208   C     0.85918   0.02398   0.25140   0.00000  Uiso   1.00
C209   C     0.85771   0.47565   0.24439   0.00000  Uiso   1.00
C210   C     0.98452   0.21206   0.15850   0.00000  Uiso   1.00
C211   C     0.79141   0.22928   0.04782   0.00000  Uiso   1.00
C212   C     0.68263   0.28314   0.34294   0.00000  Uiso   1.00
C213   C     0.77079   0.15464   0.11373   0.00000  Uiso   1.00
C214   C     0.91472   0.34150   0.40323   0.00000  Uiso   1.00
C215   C     0.89944   0.34420   0.13004   0.00000  Uiso   1.00
C216   C     0.74608   0.16431   0.37807   0.00000  Uiso   1.00
C217   C     0.84095   0.28995   0.44848   0.00000  Uiso   1.00
C218   C     0.79579   0.22595   0.09777   0.00000  Uiso   1.00
C219   C     0.84840   0.28784   0.40003   0.00000  Uiso   1.00
C220   C     0.87084   0.27392   0.10711   0.00000  Uiso   1.00
C221   C     0.81715   0.21244   0.39603   0.00000  Uiso   1.00
C222   C     0.87467   0.27039   0.05823   0.00000  Uiso   1.00
H223   H     0.67088   0.18524   0.14143   0.00000  Uiso   1.00
H224   H     0.74821   0.36298   0.21083   0.00000  Uiso   1.00
H225   H     0.93623   0.11206   0.18629   0.00000  Uiso   1.00
H226   H     0.96020   0.38955   0.30046   0.00000  Uiso   1.00
H227   H     0.92515   0.00258   0.19852   0.00000  Uiso   1.00
H228   H     0.94502   0.49900   0.29077   0.00000  Uiso   1.00
H229   H     0.74158   0.22650   0.48956   0.00000  Uiso   1.00
H230   H     0.82378   0.32984   0.49775   0.00000  Uiso   1.00
H231   H     0.81318   0.14727   0.12430   0.00000  Uiso   1.00
H232   H     0.75752   0.14292   0.07694   0.00000  Uiso   1.00
H233   H     0.74870   0.13483   0.13759   0.00000  Uiso   1.00
H234   H     0.99941   0.24549   0.14787   0.00000  Uiso   1.00
H235   H     0.93844   0.31504   0.42390   0.00000  Uiso   1.00
H236   H     0.90714   0.36934   0.42689   0.00000  Uiso   1.00
H237   H     0.93922   0.35590   0.37795   0.00000  Uiso   1.00
H238   H     0.85779   0.35291   0.13131   0.00000  Uiso   1.00
H239   H     0.91129   0.35592   0.09602   0.00000  Uiso   1.00
H240   H     0.92395   0.36284   0.15906   0.00000  Uiso   1.00
H241   H     0.74689   0.13072   0.39530   0.00000  Uiso   1.00
H242   H     0.71953   0.16209   0.34378   0.00000  Uiso   1.00
H243   H     0.72826   0.18851   0.40058   0.00000  Uiso   1.00
H244   H     0.92389   0.27303   0.01258   0.00000  Uiso   1.00
H245   H     0.94226   0.20914   0.14414   0.00000  Uiso   1.00
H246   H     0.83720   0.16873  -0.00000   0.00000  Uiso   1.00
H247   H     0.70053   0.24961   0.34987   0.00000  Uiso   1.00
H248   H     0.97803   0.28415   0.35670   0.00000  Uiso   1.00
H249   H     0.70937   0.30815   0.36315   0.00000  Uiso   1.00
H250   H     0.81616   0.48645   0.31593   0.00000  Uiso   1.00
H251   H     0.78909   0.01109   0.18343   0.00000  Uiso   1.00
H252   H     0.75665   0.08309   0.31533   0.00000  Uiso   1.00
N253   N     0.83333   0.24999   0.12624   0.00000  Uiso   1.00
N254   N     0.83333   0.25001   0.37376   0.00000  Uiso   1.00
O255   O     0.83334   0.18453   0.28974   0.00000  Uiso   1.00
O256   O     0.67666   0.29493   0.29447   0.00000  Uiso   1.00
O257   O     0.79777   0.01521   0.30908   0.00000  Uiso   1.00
O258   O     0.77402   0.48151   0.19084   0.00000  Uiso   1.00
O259   O     0.77585   0.10674   0.29995   0.00000  Uiso   1.00
O260   O     0.75472   0.39371   0.19929   0.00000  Uiso   1.00
O261   O     0.90949   0.12827   0.20089   0.00000  Uiso   1.00
O262   O     0.92676   0.37291   0.29087   0.00000  Uiso   1.00
O263   O     0.92178   0.03550   0.19490   0.00000  Uiso   1.00
O264   O     0.94235   0.46620   0.29577   0.00000  Uiso   1.00
O265   O     0.74627   0.21220   0.02130   0.00000  Uiso   1.00
O266   O     0.83333   0.31547   0.21026   0.00000  Uiso   1.00
O267   O     0.84209   0.33171   0.46961   0.00000  Uiso   1.00
O268   O     0.75991   0.20063   0.11844   0.00000  Uiso   1.00
O269   O     0.86693   0.32505   0.37767   0.00000  Uiso   1.00
O270   O     0.90838   0.29780   0.13698   0.00000  Uiso   1.00
O271   O     0.79728   0.17599   0.36899   0.00000  Uiso   1.00
O272   O     0.91962   0.28732   0.04298   0.00000  Uiso   1.00
O273   O     0.81961   0.16783   0.46674   0.00000  Uiso   1.00
O274   O     0.83334   0.18453   0.21026   0.00000  Uiso   1.00
O275   O     0.83333   0.31547   0.28974   0.00000  Uiso   1.00
O276   O     0.75725   0.25000   0.28044   0.00000  Uiso   1.00
O277   O     0.90942   0.25000   0.21956   0.00000  Uiso   1.00
O278   O     0.75725   0.25000   0.20096   0.00000  Uiso   1.00
O279   O     0.90942   0.25000   0.29903   0.00000  Uiso   1.00
O280   O     0.99073   0.20367   0.20780   0.00000  Uiso   1.00
Zn281  Zn    0.83333   0.25001   0.30307   0.00000  Uiso   1.00
Zn282  Zn    0.83333   0.25000   0.19693   0.00000  Uiso   1.00
C283   C     0.16802   0.66378   0.25019   0.00000  Uiso   1.00
C284   C     0.15701   0.70975   0.44630   0.00000  Uiso   1.00
C285   C     0.16627   0.74968   0.02695   0.00000  Uiso   1.00
C286   C     0.16597   0.74970   0.47348   0.00000  Uiso   1.00
C287   C     0.06705   0.74876   0.23780   0.00000  Uiso   1.00
C288   C     0.26626   0.75139   0.26227   0.00000  Uiso   1.00
C289   C     0.01220   0.74100   0.23327   0.00000  Uiso   1.00
C290   C     0.32115   0.75890   0.26716   0.00000  Uiso   1.00
C291   C     0.15783   0.54194   0.28030   0.00000  Uiso   1.00
C292   C     0.14520   0.95635   0.21824   0.00000  Uiso   1.00
C293   C     0.14784   0.58797   0.27785   0.00000  Uiso   1.00
C294   C     0.16694   0.83601   0.24975   0.00000  Uiso   1.00
C295   C     0.13536   0.91068   0.22226   0.00000  Uiso   1.00
C296   C     0.17648   0.61580   0.25092   0.00000  Uiso   1.00
C297   C     0.17349   0.88393   0.24915   0.00000  Uiso   1.00
C298   C     0.21414   0.59857   0.22505   0.00000  Uiso   1.00
C299   C     0.22179   0.90201   0.27049   0.00000  Uiso   1.00
C300   C     0.22133   0.55205   0.22399   0.00000  Uiso   1.00
C301   C     0.23021   0.94861   0.26993   0.00000  Uiso   1.00
C302   C     0.19251   0.52398   0.25140   0.00000  Uiso   1.00
C303   C     0.19105   0.97565   0.24439   0.00000  Uiso   1.00
C304   C     0.31786   0.71206   0.15850   0.00000  Uiso   1.00
C305   C     0.12474   0.72928   0.04782   0.00000  Uiso   1.00
C306   C     0.01597   0.78314   0.34294   0.00000  Uiso   1.00
C307   C     0.10412   0.65464   0.11373   0.00000  Uiso   1.00
C308   C     0.24805   0.84150   0.40323   0.00000  Uiso   1.00
C309   C     0.23278   0.84420   0.13004   0.00000  Uiso   1.00
C310   C     0.07942   0.66431   0.37807   0.00000  Uiso   1.00
C311   C     0.17428   0.78995   0.44848   0.00000  Uiso   1.00
C312   C     0.12912   0.72595   0.09777   0.00000  Uiso   1.00
C313   C     0.18174   0.78784   0.40003   0.00000  Uiso   1.00
C314   C     0.20417   0.77392   0.10711   0.00000  Uiso   1.00
C315   C     0.15048   0.71244   0.39603   0.00000  Uiso   1.00
C316   C     0.20800   0.77039   0.05823   0.00000  Uiso   1.00
H317   H     0.00422   0.68524   0.14143   0.00000  Uiso   1.00
H318   H     0.08155   0.86298   0.21083   0.00000  Uiso   1.00
H319   H     0.26956   0.61206   0.18629   0.00000  Uiso   1.00
H320   H     0.29354   0.88955   0.30046   0.00000  Uiso   1.00
H321   H     0.25849   0.50258   0.19852   0.00000  Uiso   1.00
H322   H     0.27835   0.99900   0.29077   0.00000  Uiso   1.00
H323   H     0.07491   0.72650   0.48956   0.00000  Uiso   1.00
H324   H     0.15711   0.82984   0.49775   0.00000  Uiso   1.00
H325   H     0.14652   0.64727   0.12430   0.00000  Uiso   1.00
H326   H     0.09086   0.64292   0.07694   0.00000  Uiso   1.00
H327   H     0.08203   0.63483   0.13759   0.00000  Uiso   1.00
H328   H     0.33275   0.74549   0.14787   0.00000  Uiso   1.00
H329   H     0.27177   0.81504   0.42390   0.00000  Uiso   1.00
H330   H     0.24047   0.86934   0.42689   0.00000  Uiso   1.00
H331   H     0.27255   0.85590   0.37795   0.00000  Uiso   1.00
H332   H     0.19112   0.85291   0.13131   0.00000  Uiso   1.00
H333   H     0.24463   0.85592   0.09602   0.00000  Uiso   1.00
H334   H     0.25729   0.86284   0.15906   0.00000  Uiso   1.00
H335   H     0.08022   0.63072   0.39530   0.00000  Uiso   1.00
H336   H     0.05286   0.66209   0.34378   0.00000  Uiso   1.00
H337   H     0.06159   0.68851   0.40058   0.00000  Uiso   1.00
H338   H     0.25722   0.77303   0.01258   0.00000  Uiso   1.00
H339   H     0.27560   0.70914   0.14414   0.00000  Uiso   1.00
H340   H     0.17054   0.66873  -0.00000   0.00000  Uiso   1.00
H341   H     0.03387   0.74961   0.34987   0.00000  Uiso   1.00
H342   H     0.31137   0.78415   0.35670   0.00000  Uiso   1.00
H343   H     0.04270   0.80815   0.36315   0.00000  Uiso   1.00
H344   H     0.14949   0.98645   0.31593   0.00000  Uiso   1.00
H345   H     0.12242   0.51109   0.18343   0.00000  Uiso   1.00
H346   H     0.08999   0.58309   0.31533   0.00000  Uiso   1.00
N347   N     0.16667   0.74999   0.12624   0.00000  Uiso   1.00
N348   N     0.16667   0.75001   0.37376   0.00000  Uiso   1.00
O349   O     0.16667   0.68453   0.28974   0.00000  Uiso   1.00
O350   O     0.00999   0.79493   0.29447   0.00000  Uiso   1.00
O351   O     0.13110   0.51521   0.30908   0.00000  Uiso   1.00
O352   O     0.10735   0.98151   0.19084   0.00000  Uiso   1.00
O353   O     0.10919   0.60674   0.29995   0.00000  Uiso   1.00
O354   O     0.08806   0.89371   0.19929   0.00000  Uiso   1.00
O355   O     0.24283   0.62827   0.20089   0.00000  Uiso   1.00
O356   O     0.26010   0.87291   0.29087   0.00000  Uiso   1.00
O357   O     0.25512   0.53550   0.19490   0.00000  Uiso   1.00
O358   O     0.27569   0.96620   0.29577   0.00000  Uiso   1.00
O359   O     0.07960   0.71220   0.02130   0.00000  Uiso   1.00
O360   O     0.16666   0.81547   0.21026   0.00000  Uiso   1.00
O361   O     0.17542   0.83171   0.46961   0.00000  Uiso   1.00
O362   O     0.09324   0.70063   0.11844   0.00000  Uiso   1.00
O363   O     0.20026   0.82505   0.37767   0.00000  Uiso   1.00
O364   O     0.24171   0.79780   0.13698   0.00000  Uiso   1.00
O365   O     0.13061   0.67599   0.36899   0.00000  Uiso   1.00
O366   O     0.25295   0.78732   0.04298   0.00000  Uiso   1.00
O367   O     0.15294   0.66783   0.46674   0.00000  Uiso   1.00
O368   O     0.16667   0.68453   0.21026   0.00000  Uiso   1.00
O369   O     0.16666   0.81547   0.28974   0.00000  Uiso   1.00
O370   O     0.09058   0.75000   0.28044   0.00000  Uiso   1.00
O371   O     0.24275   0.75000   0.21956   0.00000  Uiso   1.00
O372   O     0.09058   0.75000   0.20096   0.00000  Uiso   1.00
O373   O     0.24275   0.75000   0.29903   0.00000  Uiso   1.00
O374   O     0.32406   0.70367   0.20780   0.00000  Uiso   1.00
Zn375  Zn    0.16667   0.75001   0.30307   0.00000  Uiso   1.00
Zn376  Zn    0.16667   0.75000   0.19693   0.00000  Uiso   1.00
C377   C     0.50135   0.66378   0.25019   0.00000  Uiso   1.00
C378   C     0.49034   0.70975   0.44630   0.00000  Uiso   1.00
C379   C     0.49960   0.74968   0.02695   0.00000  Uiso   1.00
C380   C     0.49930   0.74970   0.47348   0.00000  Uiso   1.00
C381   C     0.40038   0.74876   0.23780   0.00000  Uiso   1.00
C382   C     0.59959   0.75139   0.26227   0.00000  Uiso   1.00
C383   C     0.34553   0.74100   0.23327   0.00000  Uiso   1.00
C384   C     0.65448   0.75890   0.26716   0.00000  Uiso   1.00
C385   C     0.49116   0.54194   0.28030   0.00000  Uiso   1.00
C386   C     0.47853   0.95635   0.21824   0.00000  Uiso   1.00
C387   C     0.48117   0.58797   0.27785   0.00000  Uiso   1.00
C388   C     0.50028   0.83601   0.24975   0.00000  Uiso   1.00
C389   C     0.46869   0.91068   0.22226   0.00000  Uiso   1.00
C390   C     0.50981   0.61580   0.25092   0.00000  Uiso   1.00
C391   C     0.50682   0.88393   0.24915   0.00000  Uiso   1.00
C392   C     0.54747   0.59857   0.22505   0.00000  Uiso   1.00
C393   C     0.55513   0.90201   0.27049   0.00000  Uiso   1.00
C394   C     0.55466   0.55205   0.22399   0.00000  Uiso   1.00
C395   C     0.56354   0.94861   0.26993   0.00000  Uiso   1.00
C396   C     0.52584   0.52398   0.25140   0.00000  Uiso   1.00
C397   C     0.52438   0.97565   0.24439   0.00000  Uiso   1.00
C398   C     0.65119   0.71206   0.15850   0.00000  Uiso   1.00
C399   C     0.45807   0.72928   0.04782   0.00000  Uiso   1.00
C400   C     0.34930   0.78314   0.34294   0.00000  Uiso   1.00
C401   C     0.43746   0.65464   0.11373   0.00000  Uiso   1.00
C402   C     0.58139   0.84150   0.40323   0.00000  Uiso   1.00
C403   C     0.56611   0.84420   0.13004   0.00000  Uiso   1.00
C404   C     0.41275   0.66431   0.37807   0.00000  Uiso   1.00
C405   C     0.50762   0.78995   0.44848   0.00000  Uiso   1.00
C406   C     0.46245   0.72595   0.09777   0.00000  Uiso   1.00
C407   C     0.51507   0.78784   0.40003   0.00000  Uiso   1.00
C408   C     0.53750   0.77392   0.10711   0.00000  Uiso   1.00
C409   C     0.48381   0.71244   0.39603   0.00000  Uiso   1.00
C410   C     0.54133   0.77039   0.05823   0.00000  Uiso   1.00
H411   H     0.33755   0.68524   0.14143   0.00000  Uiso   1.00
H412   H     0.41488   0.86298   0.21083   0.00000  Uiso   1.00
H413   H     0.60290   0.61206   0.18629   0.00000  Uiso   1.00
H414   H     0.62687   0.88955   0.30046   0.00000  Uiso   1.00
H415   H     0.59182   0.50258   0.19852   0.00000  Uiso   1.00
H416   H     0.61168   0.99900   0.29077   0.00000  Uiso   1.00
H417   H     0.40825   0.72650   0.48956   0.00000  Uiso   1.00
H418   H     0.49044   0.82984   0.49775   0.00000  Uiso   1.00
H419   H     0.47985   0.64727   0.12430   0.00000  Uiso   1.00
H420   H     0.42419   0.64292   0.07694   0.00000  Uiso   1.00
H421   H     0.41537   0.63483   0.13759   0.00000  Uiso   1.00
H422   H     0.66608   0.74549   0.14787   0.00000  Uiso   1.00
H423   H     0.60511   0.81504   0.42390   0.00000  Uiso   1.00
H424   H     0.57380   0.86934   0.42689   0.00000  Uiso   1.00
H425   H     0.60589   0.85590   0.37795   0.00000  Uiso   1.00
H426   H     0.52445   0.85291   0.13131   0.00000  Uiso   1.00
H427   H     0.57796   0.85592   0.09602   0.00000  Uiso   1.00
H428   H     0.59062   0.86284   0.15906   0.00000  Uiso   1.00
H429   H     0.41356   0.63072   0.39530   0.00000  Uiso   1.00
H430   H     0.38620   0.66209   0.34378   0.00000  Uiso   1.00
H431   H     0.39493   0.68851   0.40058   0.00000  Uiso   1.00
H432   H     0.59055   0.77303   0.01258   0.00000  Uiso   1.00
H433   H     0.60893   0.70914   0.14414   0.00000  Uiso   1.00
H434   H     0.50387   0.66873  -0.00000   0.00000  Uiso   1.00
H435   H     0.36720   0.74961   0.34987   0.00000  Uiso   1.00
H436   H     0.64470   0.78415   0.35670   0.00000  Uiso   1.00
H437   H     0.37604   0.80815   0.36315   0.00000  Uiso   1.00
H438   H     0.48282   0.98645   0.31593   0.00000  Uiso   1.00
H439   H     0.45575   0.51109   0.18343   0.00000  Uiso   1.00
H440   H     0.42332   0.58309   0.31533   0.00000  Uiso   1.00
N441   N     0.50000   0.74999   0.12624   0.00000  Uiso   1.00
N442   N     0.50000   0.75001   0.37376   0.00000  Uiso   1.00
O443   O     0.50000   0.68453   0.28974   0.00000  Uiso   1.00
O444   O     0.34332   0.79493   0.29447   0.00000  Uiso   1.00
O445   O     0.46444   0.51521   0.30908   0.00000  Uiso   1.00
O446   O     0.44068   0.98151   0.19084   0.00000  Uiso   1.00
O447   O     0.44252   0.60674   0.29995   0.00000  Uiso   1.00
O448   O     0.42139   0.89371   0.19929   0.00000  Uiso   1.00
O449   O     0.57616   0.62827   0.20089   0.00000  Uiso   1.00
O450   O     0.59343   0.87291   0.29087   0.00000  Uiso   1.00
O451   O     0.58845   0.53550   0.19490   0.00000  Uiso   1.00
O452   O     0.60902   0.96620   0.29577   0.00000  Uiso   1.00
O453   O     0.41293   0.71220   0.02130   0.00000  Uiso   1.00
O454   O     0.50000   0.81547   0.21026   0.00000  Uiso   1.00
O455   O     0.50876   0.83171   0.46961   0.00000  Uiso   1.00
O456   O     0.42657   0.70063   0.11844   0.00000  Uiso   1.00
O457   O     0.53360   0.82505   0.37767   0.00000  Uiso   1.00
O458   O     0.57504   0.79780   0.13698   0.00000  Uiso   1.00
O459   O     0.46394   0.67599   0.36899   0.00000  Uiso   1.00
O460   O     0.58628   0.78732   0.04298   0.00000  Uiso   1.00
O461   O     0.48628   0.66783   0.46674   0.00000  Uiso   1.00
O462   O     0.50000   0.68453   0.21026   0.00000  Uiso   1.00
O463   O     0.50000   0.81547   0.28974   0.00000  Uiso   1.00
O464   O     0.42392   0.75000   0.28044   0.00000  Uiso   1.00
O465   O     0.57608   0.75000   0.21956   0.00000  Uiso   1.00
O466   O     0.42392   0.75000   0.20096   0.00000  Uiso   1.00
O467   O     0.57608   0.75000   0.29903   0.00000  Uiso   1.00
O468   O     0.65739   0.70367   0.20780   0.00000  Uiso   1.00
Zn469  Zn    0.50000   0.75001   0.30307   0.00000  Uiso   1.00
Zn470  Zn    0.50000   0.75000   0.19693   0.00000  Uiso   1.00
C471   C     0.83468   0.66378   0.25019   0.00000  Uiso   1.00
C472   C     0.82368   0.70975   0.44630   0.00000  Uiso   1.00
C473   C     0.83294   0.74968   0.02695   0.00000  Uiso   1.00
C474   C     0.83263   0.74970   0.47348   0.00000  Uiso   1.00
C475   C     0.73372   0.74876   0.23780   0.00000  Uiso   1.00
C476   C     0.93292   0.75139   0.26227   0.00000  Uiso   1.00
C477   C     0.67887   0.74100   0.23327   0.00000  Uiso   1.00
C478   C     0.98781   0.75890   0.26716   0.00000  Uiso   1.00
C479   C     0.82449   0.54194   0.28030   0.00000  Uiso   1.00
C480   C     0.81186   0.95635   0.21824   0.00000  Uiso   1.00
C481   C     0.81451   0.58797   0.27785   0.00000  Uiso   1.00
C482   C     0.83361   0.83601   0.24975   0.00000  Uiso   1.00
C483   C     0.80203   0.91068   0.22226   0.00000  Uiso   1.00
C484   C     0.84314   0.61580   0.25092   0.00000  Uiso   1.00
C485   C     0.84015   0.88393   0.24915   0.00000  Uiso   1.00
C486   C     0.88081   0.59857   0.22505   0.00000  Uiso   1.00
C487   C     0.88846   0.90201   0.27049   0.00000  Uiso   1.00
C488   C     0.88799   0.55205   0.22399   0.00000  Uiso   1.00
C489   C     0.89688   0.94861   0.26993   0.00000  Uiso   1.00
C490   C     0.85918   0.52398   0.25140   0.00000  Uiso   1.00
C491   C     0.85771   0.97565   0.24439   0.00000  Uiso   1.00
C492   C     0.98452   0.71206   0.15850   0.00000  Uiso   1.00
C493   C     0.79141   0.72928   0.04782   0.00000  Uiso   1.00
C494   C     0.68263   0.78314   0.34294   0.00000  Uiso   1.00
C495   C     0.77079   0.65464   0.11373   0.00000  Uiso   1.00
C496   C     0.91472   0.84150   0.40323   0.00000  Uiso   1.00
C497   C     0.89944   0.84420   0.13004   0.00000  Uiso   1.00
C498   C     0.74608   0.66431   0.37807   0.00000  Uiso   1.00
C499   C     0.84095   0.78995   0.44848   0.00000  Uiso   1.00
C500   C     0.79579   0.72595   0.09777   0.00000  Uiso   1.00
C501   C     0.84840   0.78784   0.40003   0.00000  Uiso   1.00
C502   C     0.87084   0.77392   0.10711   0.00000  Uiso   1.00
C503   C     0.81715   0.71244   0.39603   0.00000  Uiso   1.00
C504   C     0.87467   0.77039   0.05823   0.00000  Uiso   1.00
H505   H     0.67088   0.68524   0.14143   0.00000  Uiso   1.00
H506   H     0.74821   0.86298   0.21083   0.00000  Uiso   1.00
H507   H     0.93623   0.61206   0.18629   0.00000  Uiso   1.00
H508   H     0.96020   0.88955   0.30046   0.00000  Uiso   1.00
H509   H     0.92515   0.50258   0.19852   0.00000  Uiso   1.00
H510   H     0.94502   0.99900   0.29077   0.00000  Uiso   1.00
H511   H     0.74158   0.72650   0.48956   0.00000  Uiso   1.00
H512   H     0.82378   0.82984   0.49775   0.00000  Uiso   1.00
H513   H     0.81318   0.64727   0.12430   0.00000  Uiso   1.00
H514   H     0.75752   0.64292   0.07694   0.00000  Uiso   1.00
H515   H     0.74870   0.63483   0.13759   0.00000  Uiso   1.00
H516   H     0.99941   0.74549   0.14787   0.00000  Uiso   1.00
H517   H     0.93844   0.81504   0.42390   0.00000  Uiso   1.00
H518   H     0.90714   0.86934   0.42689   0.00000  Uiso   1.00
H519   H     0.93922   0.85590   0.37795   0.00000  Uiso   1.00
H520   H     0.85779   0.85291   0.13131   0.00000  Uiso   1.00
H521   H     0.91129   0.85592   0.09602   0.00000  Uiso   1.00
H522   H     0.92395   0.86284   0.15906   0.00000  Uiso   1.00
H523   H     0.74689   0.63072   0.39530   0.00000  Uiso   1.00
H524   H     0.71953   0.66209   0.34378   0.00000  Uiso   1.00
H525   H     0.72826   0.68851   0.40058   0.00000  Uiso   1.00
H526   H     0.92389   0.77303   0.01258   0.00000  Uiso   1.00
H527   H     0.94226   0.70914   0.14414   0.00000  Uiso   1.00
H528   H     0.83720   0.66873  -0.00000   0.00000  Uiso   1.00
H529   H     0.70053   0.74961   0.34987   0.00000  Uiso   1.00
H530   H     0.97803   0.78415   0.35670   0.00000  Uiso   1.00
H531   H     0.70937   0.80815   0.36315   0.00000  Uiso   1.00
H532   H     0.81616   0.98645   0.31593   0.00000  Uiso   1.00
H533   H     0.78909   0.51109   0.18343   0.00000  Uiso   1.00
H534   H     0.75665   0.58309   0.31533   0.00000  Uiso   1.00
N535   N     0.83333   0.74999   0.12624   0.00000  Uiso   1.00
N536   N     0.83333   0.75001   0.37376   0.00000  Uiso   1.00
O537   O     0.83334   0.68453   0.28974   0.00000  Uiso   1.00
O538   O     0.67666   0.79493   0.29447   0.00000  Uiso   1.00
O539   O     0.79777   0.51521   0.30908   0.00000  Uiso   1.00
O540   O     0.77402   0.98151   0.19084   0.00000  Uiso   1.00
O541   O     0.77585   0.60674   0.29995   0.00000  Uiso   1.00
O542   O     0.75472   0.89371   0.19929   0.00000  Uiso   1.00
O543   O     0.90949   0.62827   0.20089   0.00000  Uiso   1.00
O544   O     0.92676   0.87291   0.29087   0.00000  Uiso   1.00
O545   O     0.92178   0.53550   0.19490   0.00000  Uiso   1.00
O546   O     0.94235   0.96620   0.29577   0.00000  Uiso   1.00
O547   O     0.74627   0.71220   0.02130   0.00000  Uiso   1.00
O548   O     0.83333   0.81547   0.21026   0.00000  Uiso   1.00
O549   O     0.84209   0.83171   0.46961   0.00000  Uiso   1.00
O550   O     0.75991   0.70063   0.11844   0.00000  Uiso   1.00
O551   O     0.86693   0.82505   0.37767   0.00000  Uiso   1.00
O552   O     0.90838   0.79780   0.13698   0.00000  Uiso   1.00
O553   O     0.79728   0.67599   0.36899   0.00000  Uiso   1.00
O554   O     0.91962   0.78732   0.04298   0.00000  Uiso   1.00
O555   O     0.81961   0.66783   0.46674   0.00000  Uiso   1.00
O556   O     0.83334   0.68453   0.21026   0.00000  Uiso   1.00
O557   O     0.83333   0.81547   0.28974   0.00000  Uiso   1.00
O558   O     0.75725   0.75000   0.28044   0.00000  Uiso   1.00
O559   O     0.90942   0.75000   0.21956   0.00000  Uiso   1.00
O560   O     0.75725   0.75000   0.20096   0.00000  Uiso   1.00
O561   O     0.90942   0.75000   0.29903   0.00000  Uiso   1.00
O562   O     0.99073   0.70367   0.20780   0.00000  Uiso   1.00
Zn563  Zn    0.83333   0.75001   0.30307   0.00000  Uiso   1.00
Zn564  Zn    0.83333   0.75000   0.19693   0.00000  Uiso   1.00
C565   C     0.16802   0.16378   0.75019   0.00000  Uiso   1.00
C566   C     0.15701   0.20975   0.94630   0.00000  Uiso   1.00
C567   C     0.16627   0.24968   0.52695   0.00000  Uiso   1.00
C568   C     0.16597   0.24970   0.97348   0.00000  Uiso   1.00
C569   C     0.06705   0.24876   0.73780   0.00000  Uiso   1.00
C570   C     0.26626   0.25139   0.76227   0.00000  Uiso   1.00
C571   C     0.01220   0.24100   0.73327   0.00000  Uiso   1.00
C572   C     0.32115   0.25890   0.76716   0.00000  Uiso   1.00
C573   C     0.15783   0.04194   0.78030   0.00000  Uiso   1.00
C574   C     0.14520   0.45635   0.71824   0.00000  Uiso   1.00
C575   C     0.14784   0.08797   0.77785   0.00000  Uiso   1.00
C576   C     0.16694   0.33601   0.74975   0.00000  Uiso   1.00
C577   C     0.13536   0.41068   0.72226   0.00000  Uiso   1.00
C578   C     0.17648   0.11580   0.75092   0.00000  Uiso   1.00
C579   C     0.17349   0.38393   0.74915   0.00000  Uiso   1.00
C580   C     0.21414   0.09857   0.72505   0.00000  Uiso   1.00
C581   C     0.22179   0.40201   0.77049   0.00000  Uiso   1.00
C582   C     0.22133   0.05205   0.72399   0.00000  Uiso   1.00
C583   C     0.23021   0.44861   0.76993   0.00000  Uiso   1.00
C584   C     0.19251   0.02398   0.75140   0.00000  Uiso   1.00
C585   C     0.19105   0.47565   0.74439   0.00000  Uiso   1.00
C586   C     0.31786   0.21206   0.65850   0.00000  Uiso   1.00
C587   C     0.12474   0.22928   0.54782   0.00000  Uiso   1.00
C588   C     0.01597   0.28314   0.84294   0.00000  Uiso   1.00
C589   C     0.10412   0.15464   0.61373   0.00000  Uiso   1.00
C590   C     0.24805   0.34150   0.90323   0.00000  Uiso   1.00
C591   C     0.23278   0.34420   0.63004   0.00000  Uiso   1.00
C592   C     0.07942   0.16431   0.87807   0.00000  Uiso   1.00
C593   C     0.17428   0.28995   0.94848   0.00000  Uiso   1.00
C594   C     0.12912   0.22595   0.59777   0.00000  Uiso   1.00
C595   C     0.18174   0.28784   0.90003   0.00000  Uiso   1.00
C596   C     0.20417   0.27392   0.60711   0.00000  Uiso   1.00
C597   C     0.15048   0.21244   0.89603   0.00000  Uiso   1.00
C598   C     0.20800   0.27039   0.55823   0.00000  Uiso   1.00
H599   H     0.00422   0.18524   0.64143   0.00000  Uiso   1.00
H600   H     0.08155   0.36298   0.71083   0.00000  Uiso   1.00
H601   H     0.26956   0.11206   0.68629   0.00000  Uiso   1.00
H602   H     0.29354   0.38955   0.80046   0.00000  Uiso   1.00
H603   H     0.25849   0.00258   0.69852   0.00000  Uiso   1.00
H604   H     0.27835   0.49900   0.79077   0.00000  Uiso   1.00
H605   H     0.07491   0.22650   0.98956   0.00000  Uiso   1.00
H606   H     0.15711   0.32984   0.99775   0.00000  Uiso   1.00
H607   H     0.14652   0.14727   0.62430   0.00000  Uiso   1.00
H608   H     0.09086   0.14292   0.57694   0.00000  Uiso   1.00
H609   H     0.08203   0.13483   0.63759   0.00000  Uiso   1.00
H610   H     0.33275   0.24549   0.64787   0.00000  Uiso   1.00
H611   H     0.27177   0.31504   0.92390   0.00000  Uiso   1.00
H612   H     0.24047   0.36934   0.92689   0.00000  Uiso   1.00
H613   H     0.27255   0.35590   0.87795   0.00000  Uiso   1.00
H614   H     0.19112   0.35291   0.63131   0.00000  Uiso   1.00
H615   H     0.24463   0.35592   0.59602   0.00000  Uiso   1.00
H616   H     0.25729   0.36284   0.65906   0.00000  Uiso   1.00
H617   H     0.08022   0.13072   0.89530   0.00000  Uiso   1.00
H618   H     0.05286   0.16209   0.84378   0.00000  Uiso   1.00
H619   H     0.06159   0.18851   0.90058   0.00000  Uiso   1.00
H620   H     0.25722   0.27303   0.51258   0.00000  Uiso   1.00
H621   H     0.27560   0.20914   0.64414   0.00000  Uiso   1.00
H622   H     0.17054   0.16873   0.50000   0.00000  Uiso   1.00
H623   H     0.03387   0.24961   0.84987   0.00000  Uiso   1.00
H624   H     0.31137   0.28415   0.85670   0.00000  Uiso   1.00
H625   H     0.04270   0.30815   0.86315   0.00000  Uiso   1.00
H626   H     0.14949   0.48645   0.81593   0.00000  Uiso   1.00
H627   H     0.12242   0.01109   0.68343   0.00000  Uiso   1.00
H628   H     0.08999   0.08309   0.81533   0.00000  Uiso   1.00
N629   N     0.16667   0.24999   0.62624   0.00000  Uiso   1.00
N630   N     0.16667   0.25001   0.87376   0.00000  Uiso   1.00
O631   O     0.16667   0.18453   0.78974   0.00000  Uiso   1.00
O632   O     0.00999   0.29493   0.79447   0.00000  Uiso   1.00
O633   O     0.13110   0.01521   0.80908   0.00000  Uiso   1.00
O634   O     0.10735   0.48151   0.69084   0.00000  Uiso   1.00
O635   O     0.10919   0.10674   0.79995   0.00000  Uiso   1.00
O636   O     0.08806   0.39371   0.69929   0.00000  Uiso   1.00
O637   O     0.24283   0.12827   0.70089   0.00000  Uiso   1.00
O638   O     0.26010   0.37291   0.79087   0.00000  Uiso   1.00
O639   O     0.25512   0.03550   0.69490   0.00000  Uiso   1.00
O640   O     0.27569   0.46620   0.79577   0.00000  Uiso   1.00
O641   O     0.07960   0.21220   0.52130   0.00000  Uiso   1.00
O642   O     0.16666   0.31547   0.71026   0.00000  Uiso   1.00
O643   O     0.17542   0.33171   0.96961   0.00000  Uiso   1.00
O644   O     0.09324   0.20063   0.61844   0.00000  Uiso   1.00
O645   O     0.20026   0.32505   0.87767   0.00000  Uiso   1.00
O646   O     0.24171   0.29780   0.63698   0.00000  Uiso   1.00
O647   O     0.13061   0.17599   0.86899   0.00000  Uiso   1.00
O648   O     0.25295   0.28732   0.54298   0.00000  Uiso   1.00
O649   O     0.15294   0.16783   0.96674   0.00000  Uiso   1.00
O650   O     0.16667   0.18453   0.71026   0.00000  Uiso   1.00
O651   O     0.16666   0.31547   0.78974   0.00000  Uiso   1.00
O652   O     0.09058   0.25000   0.78044   0.00000  Uiso   1.00
O653   O     0.24275   0.25000   0.71956   0.00000  Uiso   1.00
O654   O     0.09058   0.25000   0.70096   0.00000  Uiso   1.00
O655   O     0.24275   0.25000   0.79903   0.00000  Uiso   1.00
O656   O     0.32406   0.20367   0.70780   0.00000  Uiso   1.00
Zn657  Zn    0.16667   0.25001   0.80307   0.00000  Uiso   1.00
Zn658  Zn    0.16667   0.25000   0.69693   0.00000  Uiso   1.00
C659   C     0.50135   0.16378   0.75019   0.00000  Uiso   1.00
C660   C     0.49034   0.20975   0.94630   0.00000  Uiso   1.00
C661   C     0.49960   0.24968   0.52695   0.00000  Uiso   1.00
C662   C     0.49930   0.24970   0.97348   0.00000  Uiso   1.00
C663   C     0.40038   0.24876   0.73780   0.00000  Uiso   1.00
C664   C     0.59959   0.25139   0.76227   0.00000  Uiso   1.00
C665   C     0.34553   0.24100   0.73327   0.00000  Uiso   1.00
C666   C     0.65448   0.25890   0.76716   0.00000  Uiso   1.00
C667   C     0.49116   0.04194   0.78030   0.00000  Uiso   1.00
C668   C     0.47853   0.45635   0.71824   0.00000  Uiso   1.00
C669   C     0.48117   0.08797   0.77785   0.00000  Uiso   1.00
C670   C     0.50028   0.33601   0.74975   0.00000  Uiso   1.00
C671   C     0.46869   0.41068   0.72226   0.00000  Uiso   1.00
C672   C     0.50981   0.11580   0.75092   0.00000  Uiso   1.00
C673   C     0.50682   0.38393   0.74915   0.00000  Uiso   1.00
C674   C     0.54747   0.09857   0.72505   0.00000  Uiso   1.00
C675   C     0.55513   0.40201   0.77049   0.00000  Uiso   1.00
C676   C     0.55466   0.05205   0.72399   0.00000  Uiso   1.00
C677   C     0.56354   0.44861   0.76993   0.00000  Uiso   1.00
C678   C     0.52584   0.02398   0.75140   0.00000  Uiso   1.00
C679   C     0.52438   0.47565   0.74439   0.00000  Uiso   1.00
C680   C     0.65119   0.21206   0.65850   0.00000  Uiso   1.00
C681   C     0.45807   0.22928   0.54782   0.00000  Uiso   1.00
C682   C     0.34930   0.28314   0.84294   0.00000  Uiso   1.00
C683   C     0.43746   0.15464   0.61373   0.00000  Uiso   1.00
C684   C     0.58139   0.34150   0.90323   0.00000  Uiso   1.00
C685   C     0.56611   0.34420   0.63004   0.00000  Uiso   1.00
C686   C     0.41275   0.16431   0.87807   0.00000  Uiso   1.00
C687   C     0.50762   0.28995   0.94848   0.00000  Uiso   1.00
C688   C     0.46245   0.22595   0.59777   0.00000  Uiso   1.00
C689   C     0.51507   0.28784   0.90003   0.00000  Uiso   1.00
C690   C     0.53750   0.27392   0.60711   0.00000  Uiso   1.00
C691   C     0.48381   0.21244   0.89603   0.00000  Uiso   1.00
C692   C     0.54133   0.27039   0.55823   0.00000  Uiso   1.00
H693   H     0.33755   0.18524   0.64143   0.00000  Uiso   1.00
H694   H     0.41488   0.36298   0.71083   0.00000  Uiso   1.00
H695   H     0.60290   0.11206   0.68629   0.00000  Uiso   1.00
H696   H     0.62687   0.38955   0.80046   0.00000  Uiso   1.00
H697   H     0.59182   0.00258   0.69852   0.00000  Uiso   1.00
H698   H     0.61168   0.49900   0.79077   0.00000  Uiso   1.00
H699   H     0.40825   0.22650   0.98956   0.00000  Uiso   1.00
H700   H     0.49044   0.32984   0.99775   0.00000  Uiso   1.00
H701   H     0.47985   0.14727   0.62430   0.00000  Uiso   1.00
H702   H     0.42419   0.14292   0.57694   0.00000  Uiso   1.00
H703   H     0.41537   0.13483   0.63759   0.00000  Uiso   1.00
H704   H     0.66608   0.24549   0.64787   0.00000  Uiso   1.00
H705   H     0.60511   0.31504   0.92390   0.00000  Uiso   1.00
H706   H     0.57380   0.36934   0.92689   0.00000  Uiso   1.00
H707   H     0.60589   0.35590   0.87795   0.00000  Uiso   1.00
H708   H     0.52445   0.35291   0.63131   0.00000  Uiso   1.00
H709   H     0.57796   0.35592   0.59602   0.00000  Uiso   1.00
H710   H     0.59062   0.36284   0.65906   0.00000  Uiso   1.00
H711   H     0.41356   0.13072   0.89530   0.00000  Uiso   1.00
H712   H     0.38620   0.16209   0.84378   0.00000  Uiso   1.00
H713   H     0.39493   0.18851   0.90058   0.00000  Uiso   1.00
H714   H     0.59055   0.27303   0.51258   0.00000  Uiso   1.00
H715   H     0.60893   0.20914   0.64414   0.00000  Uiso   1.00
H716   H     0.50387   0.16873   0.50000   0.00000  Uiso   1.00
H717   H     0.36720   0.24961   0.84987   0.00000  Uiso   1.00
H718   H     0.64470   0.28415   0.85670   0.00000  Uiso   1.00
H719   H     0.37604   0.30815   0.86315   0.00000  Uiso   1.00
H720   H     0.48282   0.48645   0.81593   0.00000  Uiso   1.00
H721   H     0.45575   0.01109   0.68343   0.00000  Uiso   1.00
H722   H     0.42332   0.08309   0.81533   0.00000  Uiso   1.00
N723   N     0.50000   0.24999   0.62624   0.00000  Uiso   1.00
N724   N     0.50000   0.25001   0.87376   0.00000  Uiso   1.00
O725   O     0.50000   0.18453   0.78974   0.00000  Uiso   1.00
O726   O     0.34332   0.29493   0.79447   0.00000  Uiso   1.00
O727   O     0.46444   0.01521   0.80908   0.00000  Uiso   1.00
O728   O     0.44068   0.48151   0.69084   0.00000  Uiso   1.00
O729   O     0.44252   0.10674   0.79995   0.00000  Uiso   1.00
O730   O     0.42139   0.39371   0.69929   0.00000  Uiso   1.00
O731   O     0.57616   0.12827   0.70089   0.00000  Uiso   1.00
O732   O     0.59343   0.37291   0.79087   0.00000  Uiso   1.00
O733   O     0.58845   0.03550   0.69490   0.00000  Uiso   1.00
O734   O     0.60902   0.46620   0.79577   0.00000  Uiso   1.00
O735   O     0.41293   0.21220   0.52130   0.00000  Uiso   1.00
O736   O     0.50000   0.31547   0.71026   0.00000  Uiso   1.00
O737   O     0.50876   0.33171   0.96961   0.00000  Uiso   1.00
O738   O     0.42657   0.20063   0.61844   0.00000  Uiso   1.00
O739   O     0.53360   0.32505   0.87767   0.00000  Uiso   1.00
O740   O     0.57504   0.29780   0.63698   0.00000  Uiso   1.00
O741   O     0.46394   0.17599   0.86899   0.00000  Uiso   1.00
O742   O     0.58628   0.28732   0.54298   0.00000  Uiso   1.00
O743   O     0.48628   0.16783   0.96674   0.00000  Uiso   1.00
O744   O     0.50000   0.18453   0.71026   0.00000  Uiso   1.00
O745   O     0.50000   0.31547   0.78974   0.00000  Uiso   1.00
O746   O     0.42392   0.25000   0.78044   0.00000  Uiso   1.00
O747   O     0.57608   0.25000   0.71956   0.00000  Uiso   1.00
O748   O     0.42392   0.25000   0.70096   0.00000  Uiso   1.00
O749   O     0.57608   0.25000   0.79903   0.00000  Uiso   1.00
O750   O     0.65739   0.20367   0.70780   0.00000  Uiso   1.00
Zn751  Zn    0.50000   0.25001   0.80307   0.00000  Uiso   1.00
Zn752  Zn    0.50000   0.25000   0.69693   0.00000  Uiso   1.00
C753   C     0.83468   0.16378   0.75019   0.00000  Uiso   1.00
C754   C     0.82368   0.20975   0.94630   0.00000  Uiso   1.00
C755   C     0.83294   0.24968   0.52695   0.00000  Uiso   1.00
C756   C     0.83263   0.24970   0.97348   0.00000  Uiso   1.00
C757   C     0.73372   0.24876   0.73780   0.00000  Uiso   1.00
C758   C     0.93292   0.25139   0.76227   0.00000  Uiso   1.00
C759   C     0.67887   0.24100   0.73327   0.00000  Uiso   1.00
C760   C     0.98781   0.25890   0.76716   0.00000  Uiso   1.00
C761   C     0.82449   0.04194   0.78030   0.00000  Uiso   1.00
C762   C     0.81186   0.45635   0.71824   0.00000  Uiso   1.00
C763   C     0.81451   0.08797   0.77785   0.00000  Uiso   1.00
C764   C     0.83361   0.33601   0.74975   0.00000  Uiso   1.00
C765   C     0.80203   0.41068   0.72226   0.00000  Uiso   1.00
C766   C     0.84314   0.11580   0.75092   0.00000  Uiso   1.00
C767   C     0.84015   0.38393   0.74915   0.00000  Uiso   1.00
C768   C     0.88081   0.09857   0.72505   0.00000  Uiso   1.00
C769   C     0.88846   0.40201   0.77049   0.00000  Uiso   1.00
C770   C     0.88799   0.05205   0.72399   0.00000  Uiso   1.00
C771   C     0.89688   0.44861   0.76993   0.00000  Uiso   1.00
C772   C     0.85918   0.02398   0.75140   0.00000  Uiso   1.00
C773   C     0.85771   0.47565   0.74439   0.00000  Uiso   1.00
C774   C     0.98452   0.21206   0.65850   0.00000  Uiso   1.00
C775   C     0.79141   0.22928   0.54782   0.00000  Uiso   1.00
C776   C     0.68263   0.28314   0.84294   0.00000  Uiso   1.00
C777   C     0.77079   0.15464   0.61373   0.00000  Uiso   1.00
C778   C     0.91472   0.34150   0.90323   0.00000  Uiso   1.00
C779   C     0.89944   0.34420   0.63004   0.00000  Uiso   1.00
C780   C     0.74608   0.16431   0.87807   0.00000  Uiso   1.00
C781   C     0.84095   0.28995   0.94848   0.00000  Uiso   1.00
C782   C     0.79579   0.22595   0.59777   0.00000  Uiso   1.00
C783   C     0.84840   0.28784   0.90003   0.00000  Uiso   1.00
C784   C     0.87084   0.27392   0.60711   0.00000  Uiso   1.00
C785   C     0.81715   0.21244   0.89603   0.00000  Uiso   1.00
C786   C     0.87467   0.27039   0.55823   0.00000  Uiso   1.00
H787   H     0.67088   0.18524   0.64143   0.00000  Uiso   1.00
H788   H     0.74821   0.36298   0.71083   0.00000  Uiso   1.00
H789   H     0.93623   0.11206   0.68629   0.00000  Uiso   1.00
H790   H     0.96020   0.38955   0.80046   0.00000  Uiso   1.00
H791   H     0.92515   0.00258   0.69852   0.00000  Uiso   1.00
H792   H     0.94502   0.49900   0.79077   0.00000  Uiso   1.00
H793   H     0.74158   0.22650   0.98956   0.00000  Uiso   1.00
H794   H     0.82378   0.32984   0.99775   0.00000  Uiso   1.00
H795   H     0.81318   0.14727   0.62430   0.00000  Uiso   1.00
H796   H     0.75752   0.14292   0.57694   0.00000  Uiso   1.00
H797   H     0.74870   0.13483   0.63759   0.00000  Uiso   1.00
H798   H     0.99941   0.24549   0.64787   0.00000  Uiso   1.00
H799   H     0.93844   0.31504   0.92390   0.00000  Uiso   1.00
H800   H     0.90714   0.36934   0.92689   0.00000  Uiso   1.00
H801   H     0.93922   0.35590   0.87795   0.00000  Uiso   1.00
H802   H     0.85779   0.35291   0.63131   0.00000  Uiso   1.00
H803   H     0.91129   0.35592   0.59602   0.00000  Uiso   1.00
H804   H     0.92395   0.36284   0.65906   0.00000  Uiso   1.00
H805   H     0.74689   0.13072   0.89530   0.00000  Uiso   1.00
H806   H     0.71953   0.16209   0.84378   0.00000  Uiso   1.00
H807   H     0.72826   0.18851   0.90058   0.00000  Uiso   1.00
H808   H     0.92389   0.27303   0.51258   0.00000  Uiso   1.00
H809   H     0.94226   0.20914   0.64414   0.00000  Uiso   1.00
H810   H     0.83720   0.16873   0.50000   0.00000  Uiso   1.00
H811   H     0.70053   0.24961   0.84987   0.00000  Uiso   1.00
H812   H     0.97803   0.28415   0.85670   0.00000  Uiso   1.00
H813   H     0.70937   0.30815   0.86315   0.00000  Uiso   1.00
H814   H     0.81616   0.48645   0.81593   0.00000  Uiso   1.00
H815   H     0.78909   0.01109   0.68343   0.00000  Uiso   1.00
H816   H     0.75665   0.08309   0.81533   0.00000  Uiso   1.00
N817   N     0.83333   0.24999   0.62624   0.00000  Uiso   1.00
N818   N     0.83333   0.25001   0.87376   0.00000  Uiso   1.00
O819   O     0.83334   0.18453   0.78974   0.00000  Uiso   1.00
O820   O     0.67666   0.29493   0.79447   0.00000  Uiso   1.00
O821   O     0.79777   0.01521   0.80908   0.00000  Uiso   1.00
O822   O     0.77402   0.48151   0.69084   0.00000  Uiso   1.00
O823   O     0.77585   0.10674   0.79995   0.00000  Uiso   1.00
O824   O     0.75472   0.39371   0.69929   0.00000  Uiso   1.00
O825   O     0.90949   0.12827   0.70089   0.00000  Uiso   1.00
O826   O     0.92676   0.37291   0.79087   0.00000  Uiso   1.00
O827   O     0.92178   0.03550   0.69490   0.00000  Uiso   1.00
O828   O     0.94235   0.46620   0.79577   0.00000  Uiso   1.00
O829   O     0.74627   0.21220   0.52130   0.00000  Uiso   1.00
O830   O     0.83333   0.31547   0.71026   0.00000  Uiso   1.00
O831   O     0.84209   0.33171   0.96961   0.00000  Uiso   1.00
O832   O     0.75991   0.20063   0.61844   0.00000  Uiso   1.00
O833   O     0.86693   0.32505   0.87767   0.00000  Uiso   1.00
O834   O     0.90838   0.29780   0.63698   0.00000  Uiso   1.00
O835   O     0.79728   0.17599   0.86899   0.00000  Uiso   1.00
O836   O     0.91962   0.28732   0.54298   0.00000  Uiso   1.00
O837   O     0.81961   0.16783   0.96674   0.00000  Uiso   1.00
O838   O     0.83334   0.18453   0.71026   0.00000  Uiso   1.00
O839   O     0.83333   0.31547   0.78974   0.00000  Uiso   1.00
O840   O     0.75725   0.25000   0.78044   0.00000  Uiso   1.00
O841   O     0.90942   0.25000   0.71956   0.00000  Uiso   1.00
O842   O     0.75725   0.25000   0.70096   0.00000  Uiso   1.00
O843   O     0.90942   0.25000   0.79903   0.00000  Uiso   1.00
O844   O     0.99073   0.20367   0.70780   0.00000  Uiso   1.00
Zn845  Zn    0.83333   0.25001   0.80307   0.00000  Uiso   1.00
Zn846  Zn    0.83333   0.25000   0.69693   0.00000  Uiso   1.00
C847   C     0.16802   0.66378   0.75019   0.00000  Uiso   1.00
C848   C     0.15701   0.70975   0.94630   0.00000  Uiso   1.00
C849   C     0.16627   0.74968   0.52695   0.00000  Uiso   1.00
C850   C     0.16597   0.74970   0.97348   0.00000  Uiso   1.00
C851   C     0.06705   0.74876   0.73780   0.00000  Uiso   1.00
C852   C     0.26626   0.75139   0.76227   0.00000  Uiso   1.00
C853   C     0.01220   0.74100   0.73327   0.00000  Uiso   1.00
C854   C     0.32115   0.75890   0.76716   0.00000  Uiso   1.00
C855   C     0.15783   0.54194   0.78030   0.00000  Uiso   1.00
C856   C     0.14520   0.95635   0.71824   0.00000  Uiso   1.00
C857   C     0.14784   0.58797   0.77785   0.00000  Uiso   1.00
C858   C     0.16694   0.83601   0.74975   0.00000  Uiso   1.00
C859   C     0.13536   0.91068   0.72226   0.00000  Uiso   1.00
C860   C     0.17648   0.61580   0.75092   0.00000  Uiso   1.00
C861   C     0.17349   0.88393   0.74915   0.00000  Uiso   1.00
C862   C     0.21414   0.59857   0.72505   0.00000  Uiso   1.00
C863   C     0.22179   0.90201   0.77049   0.00000  Uiso   1.00
C864   C     0.22133   0.55205   0.72399   0.00000  Uiso   1.00
C865   C     0.23021   0.94861   0.76993   0.00000  Uiso   1.00
C866   C     0.19251   0.52398   0.75140   0.00000  Uiso   1.00
C867   C     0.19105   0.97565   0.74439   0.00000  Uiso   1.00
C868   C     0.31786   0.71206   0.65850   0.00000  Uiso   1.00
C869   C     0.12474   0.72928   0.54782   0.00000  Uiso   1.00
C870   C     0.01597   0.78314   0.84294   0.00000  Uiso   1.00
C871   C     0.10412   0.65464   0.61373   0.00000  Uiso   1.00
C872   C     0.24805   0.84150   0.90323   0.00000  Uiso   1.00
C873   C     0.23278   0.84420   0.63004   0.00000  Uiso   1.00
C874   C     0.07942   0.66431   0.87807   0.00000  Uiso   1.00
C875   C     0.17428   0.78995   0.94848   0.00000  Uiso   1.00
C876   C     0.12912   0.72595   0.59777   0.00000  Uiso   1.00
C877   C     0.18174   0.78784   0.90003   0.00000  Uiso   1.00
C878   C     0.20417   0.77392   0.60711   0.00000  Uiso   1.00
C879   C     0.15048   0.71244   0.89603   0.00000  Uiso   1.00
C880   C     0.20800   0.77039   0.55823   0.00000  Uiso   1.00
H881   H     0.00422   0.68524   0.64143   0.00000  Uiso   1.00
H882   H     0.08155   0.86298   0.71083   0.00000  Uiso   1.00
H883   H     0.26956   0.61206   0.68629   0.00000  Uiso   1.00
H884   H     0.29354   0.88955   0.80046   0.00000  Uiso   1.00
H885   H     0.25849   0.50258   0.69852   0.00000  Uiso   1.00
H886   H     0.27835   0.99900   0.79077   0.00000  Uiso   1.00
H887   H     0.07491   0.72650   0.98956   0.00000  Uiso   1.00
H888   H     0.15711   0.82984   0.99775   0.00000  Uiso   1.00
H889   H     0.14652   0.64727   0.62430   0.00000  Uiso   1.00
H890   H     0.09086   0.64292   0.57694   0.00000  Uiso   1.00
H891   H     0.08203   0.63483   0.63759   0.00000  Uiso   1.00
H892   H     0.33275   0.74549   0.64787   0.00000  Uiso   1.00
H893   H     0.27177   0.81504   0.92390   0.00000  Uiso   1.00
H894   H     0.24047   0.86934   0.92689   0.00000  Uiso   1.00
H895   H     0.27255   0.85590   0.87795   0.00000  Uiso   1.00
H896   H     0.19112   0.85291   0.63131   0.00000  Uiso   1.00
H897   H     0.24463   0.85592   0.59602   0.00000  Uiso   1.00
H898   H     0.25729   0.86284   0.65906   0.00000  Uiso   1.00
H899   H     0.08022   0.63072   0.89530   0.00000  Uiso   1.00
H900   H     0.05286   0.66209   0.84378   0.00000  Uiso   1.00
H901   H     0.06159   0.68851   0.90058   0.00000  Uiso   1.00
H902   H     0.25722   0.77303   0.51258   0.00000  Uiso   1.00
H903   H     0.27560   0.70914   0.64414   0.00000  Uiso   1.00
H904   H     0.17054   0.66873   0.50000   0.00000  Uiso   1.00
H905   H     0.03387   0.74961   0.84987   0.00000  Uiso   1.00
H906   H     0.31137   0.78415   0.85670   0.00000  Uiso   1.00
H907   H     0.04270   0.80815   0.86315   0.00000  Uiso   1.00
H908   H     0.14949   0.98645   0.81593   0.00000  Uiso   1.00
H909   H     0.12242   0.51109   0.68343   0.00000  Uiso   1.00
H910   H     0.08999   0.58309   0.81533   0.00000  Uiso   1.00
N911   N     0.16667   0.74999   0.62624   0.00000  Uiso   1.00
N912   N     0.16667   0.75001   0.87376   0.00000  Uiso   1.00
O913   O     0.16667   0.68453   0.78974   0.00000  Uiso   1.00
O914   O     0.00999   0.79493   0.79447   0.00000  Uiso   1.00
O915   O     0.13110   0.51521   0.80908   0.00000  Uiso   1.00
O916   O     0.10735   0.98151   0.69084   0.00000  Uiso   1.00
O917   O     0.10919   0.60674   0.79995   0.00000  Uiso   1.00
O918   O     0.08806   0.89371   0.69929   0.00000  Uiso   1.00
O919   O     0.24283   0.62827   0.70089   0.00000  Uiso   1.00
O920   O     0.26010   0.87291   0.79087   0.00000  Uiso   1.00
O921   O     0.25512   0.53550   0.69490   0.00000  Uiso   1.00
O922   O     0.27569   0.96620   0.79577   0.00000  Uiso   1.00
O923   O     0.07960   0.71220   0.52130   0.00000  Uiso   1.00
O924   O     0.16666   0.81547   0.71026   0.00000  Uiso   1.00
O925   O     0.17542   0.83171   0.96961   0.00000  Uiso   1.00
O926   O     0.09324   0.70063   0.61844   0.00000  Uiso   1.00
O927   O     0.20026   0.82505   0.87767   0.00000  Uiso   1.00
O928   O     0.24171   0.79780   0.63698   0.00000  Uiso   1.00
O929   O     0.13061   0.67599   0.86899   0.00000  Uiso   1.00
O930   O     0.25295   0.78732   0.54298   0.00000  Uiso   1.00
O931   O     0.15294   0.66783   0.96674   0.00000  Uiso   1.00
O932   O     0.16667   0.68453   0.71026   0.00000  Uiso   1.00
O933   O     0.16666   0.81547   0.78974   0.00000  Uiso   1.00
O934   O     0.09058   0.75000   0.78044   0.00000  Uiso   1.00
O935   O     0.24275   0.75000   0.71956   0.00000  Uiso   1.00
O936   O     0.09058   0.75000   0.70096   0.00000  Uiso   1.00
O937   O     0.24275   0.75000   0.79903   0.00000  Uiso   1.00
O938   O     0.32406   0.70367   0.70780   0.00000  Uiso   1.00
Zn939  Zn    0.16667   0.75001   0.80307   0.00000  Uiso   1.00
Zn940  Zn    0.16667   0.75000   0.69693   0.00000  Uiso   1.00
C941   C     0.50135   0.66378   0.75019   0.00000  Uiso   1.00
C942   C     0.49034   0.70975   0.94630   0.00000  Uiso   1.00
C943   C     0.49960   0.74968   0.52695   0.00000  Uiso   1.00
C944   C     0.49930   0.74970   0.97348   0.00000  Uiso   1.00
C945   C     0.40038   0.74876   0.73780   0.00000  Uiso   1.00
C946   C     0.59959   0.75139   0.76227   0.00000  Uiso   1.00
C947   C     0.34553   0.74100   0.73327   0.00000  Uiso   1.00
C948   C     0.65448   0.75890   0.76716   0.00000  Uiso   1.00
C949   C     0.49116   0.54194   0.78030   0.00000  Uiso   1.00
C950   C     0.47853   0.95635   0.71824   0.00000  Uiso   1.00
C951   C     0.48117   0.58797   0.77785   0.00000  Uiso   1.00
C952   C     0.50028   0.83601   0.74975   0.00000  Uiso   1.00
C953   C     0.46869   0.91068   0.72226   0.00000  Uiso   1.00
C954   C     0.50981   0.61580   0.75092   0.00000  Uiso   1.00
C955   C     0.50682   0.88393   0.74915   0.00000  Uiso   1.00
C956   C     0.54747   0.59857   0.72505   0.00000  Uiso   1.00
C957   C     0.55513   0.90201   0.77049   0.00000  Uiso   1.00
C958   C     0.55466   0.55205   0.72399   0.00000  Uiso   1.00
C959   C     0.56354   0.94861   0.76993   0.00000  Uiso   1.00
C960   C     0.52584   0.52398   0.75140   0.00000  Uiso   1.00
C961   C     0.52438   0.97565   0.74439   0.00000  Uiso   1.00
C962   C     0.65119   0.71206   0.65850   0.00000  Uiso   1.00
C963   C     0.45807   0.72928   0.54782   0.00000  Uiso   1.00
C964   C     0.34930   0.78314   0.84294   0.00000  Uiso   1.00
C965   C     0.43746   0.65464   0.61373   0.00000  Uiso   1.00
C966   C     0.58139   0.84150   0.90323   0.00000  Uiso   1.00
C967   C     0.56611   0.84420   0.63004   0.00000  Uiso   1.00
C968   C     0.41275   0.66431   0.87807   0.00000  Uiso   1.00
C969   C     0.50762   0.78995   0.94848   0.00000  Uiso   1.00
C970   C     0.46245   0.72595   0.59777   0.00000  Uiso   1.00
C971   C     0.51507   0.78784   0.90003   0.00000  Uiso   1.00
C972   C     0.53750   0.77392   0.60711   0.00000  Uiso   1.00
C973   C     0.48381   0.71244   0.89603   0.00000  Uiso   1.00
C974   C     0.54133   0.77039   0.55823   0.00000  Uiso   1.00
H975   H     0.33755   0.68524   0.64143   0.00000  Uiso   1.00
H976   H     0.41488   0.86298   0.71083   0.00000  Uiso   1.00
H977   H     0.60290   0.61206   0.68629   0.00000  Uiso   1.00
H978   H     0.62687   0.88955   0.80046   0.00000  Uiso   1.00
H979   H     0.59182   0.50258   0.69852   0.00000  Uiso   1.00
H980   H     0.61168   0.99900   0.79077   0.00000  Uiso   1.00
H981   H     0.40825   0.72650   0.98956   0.00000  Uiso   1.00
H982   H     0.49044   0.82984   0.99775   0.00000  Uiso   1.00
H983   H     0.47985   0.64727   0.62430   0.00000  Uiso   1.00
H984   H     0.42419   0.64292   0.57694   0.00000  Uiso   1.00
H985   H     0.41537   0.63483   0.63759   0.00000  Uiso   1.00
H986   H     0.66608   0.74549   0.64787   0.00000  Uiso   1.00
H987   H     0.60511   0.81504   0.92390   0.00000  Uiso   1.00
H988   H     0.57380   0.86934   0.92689   0.00000  Uiso   1.00
H989   H     0.60589   0.85590   0.87795   0.00000  Uiso   1.00
H990   H     0.52445   0.85291   0.63131   0.00000  Uiso   1.00
H991   H     0.57796   0.85592   0.59602   0.00000  Uiso   1.00
H992   H     0.59062   0.86284   0.65906   0.00000  Uiso   1.00
H993   H     0.41356   0.63072   0.89530   0.00000  Uiso   1.00
H994   H     0.38620   0.66209   0.84378   0.00000  Uiso   1.00
H995   H     0.39493   0.68851   0.90058   0.00000  Uiso   1.00
H996   H     0.59055   0.77303   0.51258   0.00000  Uiso   1.00
H997   H     0.60893   0.70914   0.64414   0.00000  Uiso   1.00
H998   H     0.50387   0.66873   0.50000   0.00000  Uiso   1.00
H999   H     0.36720   0.74961   0.84987   0.00000  Uiso   1.00
H1000  H     0.64470   0.78415   0.85670   0.00000  Uiso   1.00
H1001  H     0.37604   0.80815   0.86315   0.00000  Uiso   1.00
H1002  H     0.48282   0.98645   0.81593   0.00000  Uiso   1.00
H1003  H     0.45575   0.51109   0.68343   0.00000  Uiso   1.00
H1004  H     0.42332   0.58309   0.81533   0.00000  Uiso   1.00
N1005  N     0.50000   0.74999   0.62624   0.00000  Uiso   1.00
N1006  N     0.50000   0.75001   0.87376   0.00000  Uiso   1.00
O1007  O     0.50000   0.68453   0.78974   0.00000  Uiso   1.00
O1008  O     0.34332   0.79493   0.79447   0.00000  Uiso   1.00
O1009  O     0.46444   0.51521   0.80908   0.00000  Uiso   1.00
O1010  O     0.44068   0.98151   0.69084   0.00000  Uiso   1.00
O1011  O     0.44252   0.60674   0.79995   0.00000  Uiso   1.00
O1012  O     0.42139   0.89371   0.69929   0.00000  Uiso   1.00
O1013  O     0.57616   0.62827   0.70089   0.00000  Uiso   1.00
O1014  O     0.59343   0.87291   0.79087   0.00000  Uiso   1.00
O1015  O     0.58845   0.53550   0.69490   0.00000  Uiso   1.00
O1016  O     0.60902   0.96620   0.79577   0.00000  Uiso   1.00
O1017  O     0.41293   0.71220   0.52130   0.00000  Uiso   1.00
O1018  O     0.50000   0.81547   0.71026   0.00000  Uiso   1.00
O1019  O     0.50876   0.83171   0.96961   0.00000  Uiso   1.00
O1020  O     0.42657   0.70063   0.61844   0.00000  Uiso   1.00
O1021  O     0.53360   0.82505   0.87767   0.00000  Uiso   1.00
O1022  O     0.57504   0.79780   0.63698   0.00000  Uiso   1.00
O1023  O     0.46394   0.67599   0.86899   0.00000  Uiso   1.00
O1024  O     0.58628   0.78732   0.54298   0.00000  Uiso   1.00
O1025  O     0.48628   0.66783   0.96674   0.00000  Uiso   1.00
O1026  O     0.50000   0.68453   0.71026   0.00000  Uiso   1.00
O1027  O     0.50000   0.81547   0.78974   0.00000  Uiso   1.00
O1028  O     0.42392   0.75000   0.78044   0.00000  Uiso   1.00
O1029  O     0.57608   0.75000   0.71956   0.00000  Uiso   1.00
O1030  O     0.42392   0.75000   0.70096   0.00000  Uiso   1.00
O1031  O     0.57608   0.75000   0.79903   0.00000  Uiso   1.00
O1032  O     0.65739   0.70367   0.70780   0.00000  Uiso   1.00
Zn1033 Zn    0.50000   0.75001   0.80307   0.00000  Uiso   1.00
Zn1034 Zn    0.50000   0.75000   0.69693   0.00000  Uiso   1.00
C1035  C     0.83468   0.66378   0.75019   0.00000  Uiso   1.00
C1036  C     0.82368   0.70975   0.94630   0.00000  Uiso   1.00
C1037  C     0.83294   0.74968   0.52695   0.00000  Uiso   1.00
C1038  C     0.83263   0.74970   0.97348   0.00000  Uiso   1.00
C1039  C     0.73372   0.74876   0.73780   0.00000  Uiso   1.00
C1040  C     0.93292   0.75139   0.76227   0.00000  Uiso   1.00
C1041  C     0.67887   0.74100   0.73327   0.00000  Uiso   1.00
C1042  C     0.98781   0.75890   0.76716   0.00000  Uiso   1.00
C1043  C     0.82449   0.54194   0.78030   0.00000  Uiso   1.00
C1044  C     0.81186   0.95635   0.71824   0.00000  Uiso   1.00
C1045  C     0.81451   0.58797   0.77785   0.00000  Uiso   1.00
C1046  C     0.83361   0.83601   0.74975   0.00000  Uiso   1.00
C1047  C     0.80203   0.91068   0.72226   0.00000  Uiso   1.00
C1048  C     0.84314   0.61580   0.75092   0.00000  Uiso   1.00
C1049  C     0.84015   0.88393   0.74915   0.00000  Uiso   1.00
C1050  C     0.88081   0.59857   0.72505   0.00000  Uiso   1.00
C1051  C     0.88846   0.90201   0.77049   0.00000  Uiso   1.00
C1052  C     0.88799   0.55205   0.72399   0.00000  Uiso   1.00
C1053  C     0.89688   0.94861   0.76993   0.00000  Uiso   1.00
C1054  C     0.85918   0.52398   0.75140   0.00000  Uiso   1.00
C1055  C     0.85771   0.97565   0.74439   0.00000  Uiso   1.00
C1056  C     0.98452   0.71206   0.65850   0.00000  Uiso   1.00
C1057  C     0.79141   0.72928   0.54782   0.00000  Uiso   1.00
C1058  C     0.68263   0.78314   0.84294   0.00000  Uiso   1.00
C1059  C     0.77079   0.65464   0.61373   0.00000  Uiso   1.00
C1060  C     0.91472   0.84150   0.90323   0.00000  Uiso   1.00
C1061  C     0.89944   0.84420   0.63004   0.00000  Uiso   1.00
C1062  C     0.74608   0.66431   0.87807   0.00000  Uiso   1.00
C1063  C     0.84095   0.78995   0.94848   0.00000  Uiso   1.00
C1064  C     0.79579   0.72595   0.59777   0.00000  Uiso   1.00
C1065  C     0.84840   0.78784   0.90003   0.00000  Uiso   1.00
C1066  C     0.87084   0.77392   0.60711   0.00000  Uiso   1.00
C1067  C     0.81715   0.71244   0.89603   0.00000  Uiso   1.00
C1068  C     0.87467   0.77039   0.55823   0.00000  Uiso   1.00
H1069  H     0.67088   0.68524   0.64143   0.00000  Uiso   1.00
H1070  H     0.74821   0.86298   0.71083   0.00000  Uiso   1.00
H1071  H     0.93623   0.61206   0.68629   0.00000  Uiso   1.00
H1072  H     0.96020   0.88955   0.80046   0.00000  Uiso   1.00
H1073  H     0.92515   0.50258   0.69852   0.00000  Uiso   1.00
H1074  H     0.94502   0.99900   0.79077   0.00000  Uiso   1.00
H1075  H     0.74158   0.72650   0.98956   0.00000  Uiso   1.00
H1076  H     0.82378   0.82984   0.99775   0.00000  Uiso   1.00
H1077  H     0.81318   0.64727   0.62430   0.00000  Uiso   1.00
H1078  H     0.75752   0.64292   0.57694   0.00000  Uiso   1.00
H1079  H     0.74870   0.63483   0.63759   0.00000  Uiso   1.00
H1080  H     0.99941   0.74549   0.64787   0.00000  Uiso   1.00
H1081  H     0.93844   0.81504   0.92390   0.00000  Uiso   1.00
H1082  H     0.90714   0.86934   0.92689   0.00000  Uiso   1.00
H1083  H     0.93922   0.85590   0.87795   0.00000  Uiso   1.00
H1084  H     0.85779   0.85291   0.63131   0.00000  Uiso   1.00
H1085  H     0.91129   0.85592   0.59602   0.00000  Uiso   1.00
H1086  H     0.92395   0.86284   0.65906   0.00000  Uiso   1.00
H1087  H     0.74689   0.63072   0.89530   0.00000  Uiso   1.00
H1088  H     0.71953   0.66209   0.84378   0.00000  Uiso   1.00
H1089  H     0.72826   0.68851   0.90058   0.00000  Uiso   1.00
H1090  H     0.92389   0.77303   0.51258   0.00000  Uiso   1.00
H1091  H     0.94226   0.70914   0.64414   0.00000  Uiso   1.00
H1092  H     0.83720   0.66873   0.50000   0.00000  Uiso   1.00
H1093  H     0.70053   0.74961   0.84987   0.00000  Uiso   1.00
H1094  H     0.97803   0.78415   0.85670   0.00000  Uiso   1.00
H1095  H     0.70937   0.80815   0.86315   0.00000  Uiso   1.00
H1096  H     0.81616   0.98645   0.81593   0.00000  Uiso   1.00
H1097  H     0.78909   0.51109   0.68343   0.00000  Uiso   1.00
H1098  H     0.75665   0.58309   0.81533   0.00000  Uiso   1.00
N1099  N     0.83333   0.74999   0.62624   0.00000  Uiso   1.00
N1100  N     0.83333   0.75001   0.87376   0.00000  Uiso   1.00
O1101  O     0.83334   0.68453   0.78974   0.00000  Uiso   1.00
O1102  O     0.67666   0.79493   0.79447   0.00000  Uiso   1.00
O1103  O     0.79777   0.51521   0.80908   0.00000  Uiso   1.00
O1104  O     0.77402   0.98151   0.69084   0.00000  Uiso   1.00
O1105  O     0.77585   0.60674   0.79995   0.00000  Uiso   1.00
O1106  O     0.75472   0.89371   0.69929   0.00000  Uiso   1.00
O1107  O     0.90949   0.62827   0.70089   0.00000  Uiso   1.00
O1108  O     0.92676   0.87291   0.79087   0.00000  Uiso   1.00
O1109  O     0.92178   0.53550   0.69490   0.00000  Uiso   1.00
O1110  O     0.94235   0.96620   0.79577   0.00000  Uiso   1.00
O1111  O     0.74627   0.71220   0.52130   0.00000  Uiso   1.00
O1112  O     0.83333   0.81547   0.71026   0.00000  Uiso   1.00
O1113  O     0.84209   0.83171   0.96961   0.00000  Uiso   1.00
O1114  O     0.75991   0.70063   0.61844   0.00000  Uiso   1.00
O1115  O     0.86693   0.82505   0.87767   0.00000  Uiso   1.00
O1116  O     0.90838   0.79780   0.63698   0.00000  Uiso   1.00
O1117  O     0.79728   0.67599   0.86899   0.00000  Uiso   1.00
O1118  O     0.91962   0.78732   0.54298   0.00000  Uiso   1.00
O1119  O     0.81961   0.66783   0.96674   0.00000  Uiso   1.00
O1120  O     0.83334   0.68453   0.71026   0.00000  Uiso   1.00
O1121  O     0.83333   0.81547   0.78974   0.00000  Uiso   1.00
O1122  O     0.75725   0.75000   0.78044   0.00000  Uiso   1.00
O1123  O     0.90942   0.75000   0.71956   0.00000  Uiso   1.00
O1124  O     0.75725   0.75000   0.70096   0.00000  Uiso   1.00
O1125  O     0.90942   0.75000   0.79903   0.00000  Uiso   1.00
O1126  O     0.99073   0.70367   0.70780   0.00000  Uiso   1.00
Zn1127 Zn    0.83333   0.75001   0.80307   0.00000  Uiso   1.00
Zn1128 Zn    0.83333   0.75000   0.69693   0.00000  Uiso   1.00
loop_
_geom_bond_atom_site_label_1
_geom_bond_atom_site_label_2
_geom_bond_distance
_geom_bond_site_symmetry_2
_ccdc_geom_bond_type
C1     O67     1.294   .     A
C1     O86     1.288   .     A
C1     C14     1.447   .     S
C2     O85     1.382   .     S
C2     C4      1.420   .     A
C2     C33     1.420   .     A
C3     C23     1.424   .     A
C3     C34     1.426   .     A
C3     C568    1.523   1_554 S
C4     C29     1.419   .     A
C4     C567    1.523   .     S
C5     O88     1.277   .     A
C5     O90     1.288   .     A
C5     C7      1.415   .     S
C6     O91     1.285   .     A
C6     C8      1.415   .     S
C6     O89     1.279   .     A
C7     C196    1.345   1_455 S
C7     O280    1.392   1_455 S
C8     C101    1.345   .     S
C8     O162    1.393   .     S
C9     O69     1.385   .     S
C9     C11     1.397   .     A
C9     C20     1.415   .     A
C10    C21     1.416   .     A
C10    O70     1.384   .     S
C10    C13     1.385   .     A
C11    C14     1.398   .     A
C11    O71     1.382   .     S
C12    O78     1.284   .     A
C12    C15     1.433   .     S
C12    O87     1.291   .     A
C13    C15     1.409   .     A
C13    O72     1.385   .     S
C14    C16     1.408   .     A
C15    C17     1.403   .     A
C16    O73     1.385   .     S
C16    C18     1.400   .     A
C17    O74     1.384   .     S
C17    C19     1.399   .     A
C18    O75     1.386   .     S
C18    C20     1.414   .     A
C19    O76     1.386   .     S
C19    C21     1.414   .     A
C20    C303    1.452   1_545 S
C21    C302    1.452   .     S
C22    H57     1.108   .     S
C22    H46     1.116   .     S
C22    O92     1.412   .     S
C22    H129    1.106   .     S
C23    C30     1.415   .     A
C23    O77     1.381   .     S
C24    H61     1.109   .     S
C24    H59     1.110   .     S
C24    O68     1.411   .     S
C24    H248    1.106   1_455 S
C25    O80     1.412   .     S
C25    H43     1.115   .     S
C25    H44     1.111   .     S
C25    H45     1.109   .     S
C26    H48     1.109   .     S
C26    H49     1.105   .     S
C26    H47     1.116   .     S
C26    O81     1.417   .     S
C27    H50     1.114   .     S
C27    H51     1.111   .     S
C27    H52     1.110   .     S
C27    O82     1.411   .     S
C28    O83     1.418   .     S
C28    H55     1.116   .     S
C28    H54     1.109   .     S
C28    H53     1.110   .     S
C29    O79     1.382   .     S
C29    C31     1.424   .     A
C30    O80     1.378   .     S
C30    N65     1.363   .     A
C31    N66     1.374   .     A
C31    O81     1.386   .     S
C32    C34     1.417   .     A
C32    O82     1.381   .     S
C32    N65     1.365   .     A
C33    N66     1.370   .     A
C33    O83     1.381   .     S
C34    O84     1.381   .     S
H35    C210    1.106   1_455 S
H36    O72     0.989   .     S
H37    O73     0.989   .     S
H38    O74     0.990   .     S
H39    O75     0.988   .     S
H40    O76     0.988   .     S
H41    O641    0.989   .     S
H42    O79     0.990   .     S
H56    O84     0.989   .     S
H58    O649    0.989   1_554 S
H60    C118    1.106   .     S
H62    O351    0.989   .     S
H63    O352    0.990   1_545 S
H64    O71     0.989   .     S
N65    Zn94    2.016   .     S
N66    Zn93    2.016   .     S
O67    Zn93    1.986   .     S
O68    C196    1.393   1_455 S
O69    H344    0.989   1_545 S
O70    H345    0.990   .     S
O77    H605    0.989   1_554 S
O78    Zn94    1.986   .     S
O85    H622    0.989   .     S
O86    Zn94    1.981   .     S
O87    Zn93    1.981   .     S
O88    Zn93    1.972   .     S
O89    Zn94    1.972   .     S
O90    Zn94    1.981   .     S
O91    Zn93    1.981   .     S
O92    C101    1.392   .     S
C95    O161    1.294   .     A
C95    O180    1.288   .     A
C95    C108    1.447   .     S
C96    O179    1.382   .     S
C96    C98     1.420   .     A
C96    C127    1.420   .     A
C97    C117    1.424   .     A
C97    C128    1.426   .     A
C97    C662    1.523   1_554 S
C98    C123    1.419   .     A
C98    C661    1.523   .     S
C99    O182    1.277   .     A
C99    O184    1.288   .     A
C99    C101    1.415   .     S
C100   O185    1.285   .     A
C100   C102    1.415   .     S
C100   O183    1.279   .     A
C102   C195    1.345   .     S
C102   O256    1.393   .     S
C103   O163    1.385   .     S
C103   C105    1.397   .     A
C103   C114    1.415   .     A
C104   C115    1.416   .     A
C104   O164    1.384   .     S
C104   C107    1.385   .     A
C105   C108    1.398   .     A
C105   O165    1.382   .     S
C106   O172    1.284   .     A
C106   C109    1.433   .     S
C106   O181    1.291   .     A
C107   C109    1.409   .     A
C107   O166    1.385   .     S
C108   C110    1.408   .     A
C109   C111    1.403   .     A
C110   O167    1.385   .     S
C110   C112    1.400   .     A
C111   O168    1.384   .     S
C111   C113    1.399   .     A
C112   O169    1.386   .     S
C112   C114    1.414   .     A
C113   O170    1.386   .     S
C113   C115    1.414   .     A
C114   C397    1.452   1_545 S
C115   C396    1.452   .     S
C116   H151    1.108   .     S
C116   H140    1.116   .     S
C116   O186    1.412   .     S
C116   H223    1.106   .     S
C117   C124    1.415   .     A
C117   O171    1.381   .     S
C118   H155    1.109   .     S
C118   H153    1.110   .     S
C118   O162    1.411   .     S
C119   O174    1.412   .     S
C119   H137    1.115   .     S
C119   H138    1.111   .     S
C119   H139    1.109   .     S
C120   H142    1.109   .     S
C120   H143    1.105   .     S
C120   H141    1.116   .     S
C120   O175    1.417   .     S
C121   H144    1.114   .     S
C121   H145    1.111   .     S
C121   H146    1.110   .     S
C121   O176    1.411   .     S
C122   O177    1.418   .     S
C122   H149    1.116   .     S
C122   H148    1.109   .     S
C122   H147    1.110   .     S
C123   O173    1.382   .     S
C123   C125    1.424   .     A
C124   O174    1.378   .     S
C124   N159    1.363   .     A
C125   N160    1.374   .     A
C125   O175    1.386   .     S
C126   C128    1.417   .     A
C126   O176    1.381   .     S
C126   N159    1.365   .     A
C127   N160    1.370   .     A
C127   O177    1.381   .     S
C128   O178    1.381   .     S
H130   O166    0.989   .     S
H131   O167    0.989   .     S
H132   O168    0.990   .     S
H133   O169    0.988   .     S
H134   O170    0.988   .     S
H135   O735    0.989   .     S
H136   O173    0.990   .     S
H150   O178    0.989   .     S
H152   O743    0.989   1_554 S
H154   C212    1.106   .     S
H156   O445    0.989   .     S
H157   O446    0.990   1_545 S
H158   O165    0.989   .     S
N159   Zn188   2.016   .     S
N160   Zn187   2.016   .     S
O161   Zn187   1.986   .     S
O163   H438    0.989   1_545 S
O164   H439    0.990   .     S
O171   H699    0.989   1_554 S
O172   Zn188   1.986   .     S
O179   H716    0.989   .     S
O180   Zn188   1.981   .     S
O181   Zn187   1.981   .     S
O182   Zn187   1.972   .     S
O183   Zn188   1.972   .     S
O184   Zn188   1.981   .     S
O185   Zn187   1.981   .     S
O186   C195    1.392   .     S
C189   O255    1.294   .     A
C189   O274    1.288   .     A
C189   C202    1.447   .     S
C190   O273    1.382   .     S
C190   C192    1.420   .     A
C190   C221    1.420   .     A
C191   C211    1.424   .     A
C191   C222    1.426   .     A
C191   C756    1.523   1_554 S
C192   C217    1.419   .     A
C192   C755    1.523   .     S
C193   O276    1.277   .     A
C193   O278    1.288   .     A
C193   C195    1.415   .     S
C194   O279    1.285   .     A
C194   C196    1.415   .     S
C194   O277    1.279   .     A
C196   C7      1.345   1_655 S
C196   O68     1.393   1_655 S
C197   O257    1.385   .     S
C197   C199    1.397   .     A
C197   C208    1.415   .     A
C198   C209    1.416   .     A
C198   O258    1.384   .     S
C198   C201    1.385   .     A
C199   C202    1.398   .     A
C199   O259    1.382   .     S
C200   O266    1.284   .     A
C200   C203    1.433   .     S
C200   O275    1.291   .     A
C201   C203    1.409   .     A
C201   O260    1.385   .     S
C202   C204    1.408   .     A
C203   C205    1.403   .     A
C204   O261    1.385   .     S
C204   C206    1.400   .     A
C205   O262    1.384   .     S
C205   C207    1.399   .     A
C206   O263    1.386   .     S
C206   C208    1.414   .     A
C207   O264    1.386   .     S
C207   C209    1.414   .     A
C208   C491    1.452   1_545 S
C209   C490    1.452   .     S
C210   H245    1.108   .     S
C210   H234    1.116   .     S
C210   O280    1.412   .     S
C210   H35     1.106   1_655 S
C211   C218    1.415   .     A
C211   O265    1.381   .     S
C212   H249    1.109   .     S
C212   H247    1.110   .     S
C212   O256    1.411   .     S
C213   O268    1.412   .     S
C213   H231    1.115   .     S
C213   H232    1.111   .     S
C213   H233    1.109   .     S
C214   H236    1.109   .     S
C214   H237    1.105   .     S
C214   H235    1.116   .     S
C214   O269    1.417   .     S
C215   H238    1.114   .     S
C215   H239    1.111   .     S
C215   H240    1.110   .     S
C215   O270    1.411   .     S
C216   O271    1.418   .     S
C216   H243    1.116   .     S
C216   H242    1.109   .     S
C216   H241    1.110   .     S
C217   O267    1.382   .     S
C217   C219    1.424   .     A
C218   O268    1.378   .     S
C218   N253    1.363   .     A
C219   N254    1.374   .     A
C219   O269    1.386   .     S
C220   C222    1.417   .     A
C220   O270    1.381   .     S
C220   N253    1.365   .     A
C221   N254    1.370   .     A
C221   O271    1.381   .     S
C222   O272    1.381   .     S
H224   O260    0.989   .     S
H225   O261    0.989   .     S
H226   O262    0.990   .     S
H227   O263    0.988   .     S
H228   O264    0.988   .     S
H229   O829    0.989   .     S
H230   O267    0.990   .     S
H244   O272    0.989   .     S
H246   O837    0.989   1_554 S
H248   C24     1.106   1_655 S
H250   O539    0.989   .     S
H251   O540    0.990   1_545 S
H252   O259    0.989   .     S
N253   Zn282   2.016   .     S
N254   Zn281   2.016   .     S
O255   Zn281   1.986   .     S
O257   H532    0.989   1_545 S
O258   H533    0.990   .     S
O265   H793    0.989   1_554 S
O266   Zn282   1.986   .     S
O273   H810    0.989   .     S
O274   Zn282   1.981   .     S
O275   Zn281   1.981   .     S
O276   Zn281   1.972   .     S
O277   Zn282   1.972   .     S
O278   Zn282   1.981   .     S
O279   Zn281   1.981   .     S
O280   C7      1.392   1_655 S
C283   O349    1.294   .     A
C283   O368    1.288   .     A
C283   C296    1.447   .     S
C284   O367    1.382   .     S
C284   C286    1.420   .     A
C284   C315    1.420   .     A
C285   C305    1.424   .     A
C285   C316    1.426   .     A
C285   C850    1.523   1_554 S
C286   C311    1.419   .     A
C286   C849    1.523   .     S
C287   O370    1.277   .     A
C287   O372    1.288   .     A
C287   C289    1.415   .     S
C288   O373    1.285   .     A
C288   C290    1.415   .     S
C288   O371    1.279   .     A
C289   C478    1.345   1_455 S
C289   O562    1.392   1_455 S
C290   C383    1.345   .     S
C290   O444    1.393   .     S
C291   O351    1.385   .     S
C291   C293    1.397   .     A
C291   C302    1.415   .     A
C292   C303    1.416   .     A
C292   O352    1.384   .     S
C292   C295    1.385   .     A
C293   C296    1.398   .     A
C293   O353    1.382   .     S
C294   O360    1.284   .     A
C294   C297    1.433   .     S
C294   O369    1.291   .     A
C295   C297    1.409   .     A
C295   O354    1.385   .     S
C296   C298    1.408   .     A
C297   C299    1.403   .     A
C298   O355    1.385   .     S
C298   C300    1.400   .     A
C299   O356    1.384   .     S
C299   C301    1.399   .     A
C300   O357    1.386   .     S
C300   C302    1.414   .     A
C301   O358    1.386   .     S
C301   C303    1.414   .     A
C303   C20     1.452   1_565 S
C304   H339    1.108   .     S
C304   H328    1.116   .     S
C304   O374    1.412   .     S
C304   H411    1.106   .     S
C305   C312    1.415   .     A
C305   O359    1.381   .     S
C306   H343    1.109   .     S
C306   H341    1.110   .     S
C306   O350    1.411   .     S
C306   H530    1.106   1_455 S
C307   O362    1.412   .     S
C307   H325    1.115   .     S
C307   H326    1.111   .     S
C307   H327    1.109   .     S
C308   H330    1.109   .     S
C308   H331    1.105   .     S
C308   H329    1.116   .     S
C308   O363    1.417   .     S
C309   H332    1.114   .     S
C309   H333    1.111   .     S
C309   H334    1.110   .     S
C309   O364    1.411   .     S
C310   O365    1.418   .     S
C310   H337    1.116   .     S
C310   H336    1.109   .     S
C310   H335    1.110   .     S
C311   O361    1.382   .     S
C311   C313    1.424   .     A
C312   O362    1.378   .     S
C312   N347    1.363   .     A
C313   N348    1.374   .     A
C313   O363    1.386   .     S
C314   C316    1.417   .     A
C314   O364    1.381   .     S
C314   N347    1.365   .     A
C315   N348    1.370   .     A
C315   O365    1.381   .     S
C316   O366    1.381   .     S
H317   C492    1.106   1_455 S
H318   O354    0.989   .     S
H319   O355    0.989   .     S
H320   O356    0.990   .     S
H321   O357    0.988   .     S
H322   O358    0.988   .     S
H323   O923    0.989   .     S
H324   O361    0.990   .     S
H338   O366    0.989   .     S
H340   O931    0.989   1_554 S
H342   C400    1.106   .     S
H344   O69     0.989   1_565 S
H346   O353    0.989   .     S
N347   Zn376   2.016   .     S
N348   Zn375   2.016   .     S
O349   Zn375   1.986   .     S
O350   C478    1.393   1_455 S
O352   H63     0.990   1_565 S
O359   H887    0.989   1_554 S
O360   Zn376   1.986   .     S
O367   H904    0.989   .     S
O368   Zn376   1.981   .     S
O369   Zn375   1.981   .     S
O370   Zn375   1.972   .     S
O371   Zn376   1.972   .     S
O372   Zn376   1.981   .     S
O373   Zn375   1.981   .     S
O374   C383    1.392   .     S
C377   O443    1.294   .     A
C377   O462    1.288   .     A
C377   C390    1.447   .     S
C378   O461    1.382   .     S
C378   C380    1.420   .     A
C378   C409    1.420   .     A
C379   C399    1.424   .     A
C379   C410    1.426   .     A
C379   C944    1.523   1_554 S
C380   C405    1.419   .     A
C380   C943    1.523   .     S
C381   O464    1.277   .     A
C381   O466    1.288   .     A
C381   C383    1.415   .     S
C382   O467    1.285   .     A
C382   C384    1.415   .     S
C382   O465    1.279   .     A
C384   C477    1.345   .     S
C384   O538    1.393   .     S
C385   O445    1.385   .     S
C385   C387    1.397   .     A
C385   C396    1.415   .     A
C386   C397    1.416   .     A
C386   O446    1.384   .     S
C386   C389    1.385   .     A
C387   C390    1.398   .     A
C387   O447    1.382   .     S
C388   O454    1.284   .     A
C388   C391    1.433   .     S
C388   O463    1.291   .     A
C389   C391    1.409   .     A
C389   O448    1.385   .     S
C390   C392    1.408   .     A
C391   C393    1.403   .     A
C392   O449    1.385   .     S
C392   C394    1.400   .     A
C393   O450    1.384   .     S
C393   C395    1.399   .     A
C394   O451    1.386   .     S
C394   C396    1.414   .     A
C395   O452    1.386   .     S
C395   C397    1.414   .     A
C397   C114    1.452   1_565 S
C398   H433    1.108   .     S
C398   H422    1.116   .     S
C398   O468    1.412   .     S
C398   H505    1.106   .     S
C399   C406    1.415   .     A
C399   O453    1.381   .     S
C400   H437    1.109   .     S
C400   H435    1.110   .     S
C400   O444    1.411   .     S
C401   O456    1.412   .     S
C401   H419    1.115   .     S
C401   H420    1.111   .     S
C401   H421    1.109   .     S
C402   H424    1.109   .     S
C402   H425    1.105   .     S
C402   H423    1.116   .     S
C402   O457    1.417   .     S
C403   H426    1.114   .     S
C403   H427    1.111   .     S
C403   H428    1.110   .     S
C403   O458    1.411   .     S
C404   O459    1.418   .     S
C404   H431    1.116   .     S
C404   H430    1.109   .     S
C404   H429    1.110   .     S
C405   O455    1.382   .     S
C405   C407    1.424   .     A
C406   O456    1.378   .     S
C406   N441    1.363   .     A
C407   N442    1.374   .     A
C407   O457    1.386   .     S
C408   C410    1.417   .     A
C408   O458    1.381   .     S
C408   N441    1.365   .     A
C409   N442    1.370   .     A
C409   O459    1.381   .     S
C410   O460    1.381   .     S
H412   O448    0.989   .     S
H413   O449    0.989   .     S
H414   O450    0.990   .     S
H415   O451    0.988   .     S
H416   O452    0.988   .     S
H417   O1017   0.989   .     S
H418   O455    0.990   .     S
H432   O460    0.989   .     S
H434   O1025   0.989   1_554 S
H436   C494    1.106   .     S
H438   O163    0.989   1_565 S
H440   O447    0.989   .     S
N441   Zn470   2.016   .     S
N442   Zn469   2.016   .     S
O443   Zn469   1.986   .     S
O446   H157    0.990   1_565 S
O453   H981    0.989   1_554 S
O454   Zn470   1.986   .     S
O461   H998    0.989   .     S
O462   Zn470   1.981   .     S
O463   Zn469   1.981   .     S
O464   Zn469   1.972   .     S
O465   Zn470   1.972   .     S
O466   Zn470   1.981   .     S
O467   Zn469   1.981   .     S
O468   C477    1.392   .     S
C471   O537    1.294   .     A
C471   O556    1.288   .     A
C471   C484    1.447   .     S
C472   O555    1.382   .     S
C472   C474    1.420   .     A
C472   C503    1.420   .     A
C473   C493    1.424   .     A
C473   C504    1.426   .     A
C473   C1038   1.523   1_554 S
C474   C499    1.419   .     A
C474   C1037   1.523   .     S
C475   O558    1.277   .     A
C475   O560    1.288   .     A
C475   C477    1.415   .     S
C476   O561    1.285   .     A
C476   C478    1.415   .     S
C476   O559    1.279   .     A
C478   C289    1.345   1_655 S
C478   O350    1.393   1_655 S
C479   O539    1.385   .     S
C479   C481    1.397   .     A
C479   C490    1.415   .     A
C480   C491    1.416   .     A
C480   O540    1.384   .     S
C480   C483    1.385   .     A
C481   C484    1.398   .     A
C481   O541    1.382   .     S
C482   O548    1.284   .     A
C482   C485    1.433   .     S
C482   O557    1.291   .     A
C483   C485    1.409   .     A
C483   O542    1.385   .     S
C484   C486    1.408   .     A
C485   C487    1.403   .     A
C486   O543    1.385   .     S
C486   C488    1.400   .     A
C487   O544    1.384   .     S
C487   C489    1.399   .     A
C488   O545    1.386   .     S
C488   C490    1.414   .     A
C489   O546    1.386   .     S
C489   C491    1.414   .     A
C491   C208    1.452   1_565 S
C492   H527    1.108   .     S
C492   H516    1.116   .     S
C492   O562    1.412   .     S
C492   H317    1.106   1_655 S
C493   C500    1.415   .     A
C493   O547    1.381   .     S
C494   H531    1.109   .     S
C494   H529    1.110   .     S
C494   O538    1.411   .     S
C495   O550    1.412   .     S
C495   H513    1.115   .     S
C495   H514    1.111   .     S
C495   H515    1.109   .     S
C496   H518    1.109   .     S
C496   H519    1.105   .     S
C496   H517    1.116   .     S
C496   O551    1.417   .     S
C497   H520    1.114   .     S
C497   H521    1.111   .     S
C497   H522    1.110   .     S
C497   O552    1.411   .     S
C498   O553    1.418   .     S
C498   H525    1.116   .     S
C498   H524    1.109   .     S
C498   H523    1.110   .     S
C499   O549    1.382   .     S
C499   C501    1.424   .     A
C500   O550    1.378   .     S
C500   N535    1.363   .     A
C501   N536    1.374   .     A
C501   O551    1.386   .     S
C502   C504    1.417   .     A
C502   O552    1.381   .     S
C502   N535    1.365   .     A
C503   N536    1.370   .     A
C503   O553    1.381   .     S
C504   O554    1.381   .     S
H506   O542    0.989   .     S
H507   O543    0.989   .     S
H508   O544    0.990   .     S
H509   O545    0.988   .     S
H510   O546    0.988   .     S
H511   O1111   0.989   .     S
H512   O549    0.990   .     S
H526   O554    0.989   .     S
H528   O1119   0.989   1_554 S
H530   C306    1.106   1_655 S
H532   O257    0.989   1_565 S
H534   O541    0.989   .     S
N535   Zn564   2.016   .     S
N536   Zn563   2.016   .     S
O537   Zn563   1.986   .     S
O540   H251    0.990   1_565 S
O547   H1075   0.989   1_554 S
O548   Zn564   1.986   .     S
O555   H1092   0.989   .     S
O556   Zn564   1.981   .     S
O557   Zn563   1.981   .     S
O558   Zn563   1.972   .     S
O559   Zn564   1.972   .     S
O560   Zn564   1.981   .     S
O561   Zn563   1.981   .     S
O562   C289    1.392   1_655 S
C565   O631    1.294   .     A
C565   O650    1.288   .     A
C565   C578    1.447   .     S
C566   O649    1.382   .     S
C566   C568    1.420   .     A
C566   C597    1.420   .     A
C567   C587    1.424   .     A
C567   C598    1.426   .     A
C568   C593    1.419   .     A
C568   C3      1.523   1_556 S
C569   O652    1.277   .     A
C569   O654    1.288   .     A
C569   C571    1.415   .     S
C570   O655    1.285   .     A
C570   C572    1.415   .     S
C570   O653    1.279   .     A
C571   C760    1.345   1_455 S
C571   O844    1.392   1_455 S
C572   C665    1.345   .     S
C572   O726    1.393   .     S
C573   O633    1.385   .     S
C573   C575    1.397   .     A
C573   C584    1.415   .     A
C574   C585    1.416   .     A
C574   O634    1.384   .     S
C574   C577    1.385   .     A
C575   C578    1.398   .     A
C575   O635    1.382   .     S
C576   O642    1.284   .     A
C576   C579    1.433   .     S
C576   O651    1.291   .     A
C577   C579    1.409   .     A
C577   O636    1.385   .     S
C578   C580    1.408   .     A
C579   C581    1.403   .     A
C580   O637    1.385   .     S
C580   C582    1.400   .     A
C581   O638    1.384   .     S
C581   C583    1.399   .     A
C582   O639    1.386   .     S
C582   C584    1.414   .     A
C583   O640    1.386   .     S
C583   C585    1.414   .     A
C584   C867    1.452   1_545 S
C585   C866    1.452   .     S
C586   H621    1.108   .     S
C586   H610    1.116   .     S
C586   O656    1.412   .     S
C586   H693    1.106   .     S
C587   C594    1.415   .     A
C587   O641    1.381   .     S
C588   H625    1.109   .     S
C588   H623    1.110   .     S
C588   O632    1.411   .     S
C588   H812    1.106   1_455 S
C589   O644    1.412   .     S
C589   H607    1.115   .     S
C589   H608    1.111   .     S
C589   H609    1.109   .     S
C590   H612    1.109   .     S
C590   H613    1.105   .     S
C590   H611    1.116   .     S
C590   O645    1.417   .     S
C591   H614    1.114   .     S
C591   H615    1.111   .     S
C591   H616    1.110   .     S
C591   O646    1.411   .     S
C592   O647    1.418   .     S
C592   H619    1.116   .     S
C592   H618    1.109   .     S
C592   H617    1.110   .     S
C593   O643    1.382   .     S
C593   C595    1.424   .     A
C594   O644    1.378   .     S
C594   N629    1.363   .     A
C595   N630    1.374   .     A
C595   O645    1.386   .     S
C596   C598    1.417   .     A
C596   O646    1.381   .     S
C596   N629    1.365   .     A
C597   N630    1.370   .     A
C597   O647    1.381   .     S
C598   O648    1.381   .     S
H599   C774    1.106   1_455 S
H600   O636    0.989   .     S
H601   O637    0.989   .     S
H602   O638    0.990   .     S
H603   O639    0.988   .     S
H604   O640    0.988   .     S
H605   O77     0.989   1_556 S
H606   O643    0.990   .     S
H620   O648    0.989   .     S
H624   C682    1.106   .     S
H626   O915    0.989   .     S
H627   O916    0.990   1_545 S
H628   O635    0.989   .     S
N629   Zn658   2.016   .     S
N630   Zn657   2.016   .     S
O631   Zn657   1.986   .     S
O632   C760    1.393   1_455 S
O633   H908    0.989   1_545 S
O634   H909    0.990   .     S
O642   Zn658   1.986   .     S
O649   H58     0.989   1_556 S
O650   Zn658   1.981   .     S
O651   Zn657   1.981   .     S
O652   Zn657   1.972   .     S
O653   Zn658   1.972   .     S
O654   Zn658   1.981   .     S
O655   Zn657   1.981   .     S
O656   C665    1.392   .     S
C659   O725    1.294   .     A
C659   O744    1.288   .     A
C659   C672    1.447   .     S
C660   O743    1.382   .     S
C660   C662    1.420   .     A
C660   C691    1.420   .     A
C661   C681    1.424   .     A
C661   C692    1.426   .     A
C662   C687    1.419   .     A
C662   C97     1.523   1_556 S
C663   O746    1.277   .     A
C663   O748    1.288   .     A
C663   C665    1.415   .     S
C664   O749    1.285   .     A
C664   C666    1.415   .     S
C664   O747    1.279   .     A
C666   C759    1.345   .     S
C666   O820    1.393   .     S
C667   O727    1.385   .     S
C667   C669    1.397   .     A
C667   C678    1.415   .     A
C668   C679    1.416   .     A
C668   O728    1.384   .     S
C668   C671    1.385   .     A
C669   C672    1.398   .     A
C669   O729    1.382   .     S
C670   O736    1.284   .     A
C670   C673    1.433   .     S
C670   O745    1.291   .     A
C671   C673    1.409   .     A
C671   O730    1.385   .     S
C672   C674    1.408   .     A
C673   C675    1.403   .     A
C674   O731    1.385   .     S
C674   C676    1.400   .     A
C675   O732    1.384   .     S
C675   C677    1.399   .     A
C676   O733    1.386   .     S
C676   C678    1.414   .     A
C677   O734    1.386   .     S
C677   C679    1.414   .     A
C678   C961    1.452   1_545 S
C679   C960    1.452   .     S
C680   H715    1.108   .     S
C680   H704    1.116   .     S
C680   O750    1.412   .     S
C680   H787    1.106   .     S
C681   C688    1.415   .     A
C681   O735    1.381   .     S
C682   H719    1.109   .     S
C682   H717    1.110   .     S
C682   O726    1.411   .     S
C683   O738    1.412   .     S
C683   H701    1.115   .     S
C683   H702    1.111   .     S
C683   H703    1.109   .     S
C684   H706    1.109   .     S
C684   H707    1.105   .     S
C684   H705    1.116   .     S
C684   O739    1.417   .     S
C685   H708    1.114   .     S
C685   H709    1.111   .     S
C685   H710    1.110   .     S
C685   O740    1.411   .     S
C686   O741    1.418   .     S
C686   H713    1.116   .     S
C686   H712    1.109   .     S
C686   H711    1.110   .     S
C687   O737    1.382   .     S
C687   C689    1.424   .     A
C688   O738    1.378   .     S
C688   N723    1.363   .     A
C689   N724    1.374   .     A
C689   O739    1.386   .     S
C690   C692    1.417   .     A
C690   O740    1.381   .     S
C690   N723    1.365   .     A
C691   N724    1.370   .     A
C691   O741    1.381   .     S
C692   O742    1.381   .     S
H694   O730    0.989   .     S
H695   O731    0.989   .     S
H696   O732    0.990   .     S
H697   O733    0.988   .     S
H698   O734    0.988   .     S
H699   O171    0.989   1_556 S
H700   O737    0.990   .     S
H714   O742    0.989   .     S
H718   C776    1.106   .     S
H720   O1009   0.989   .     S
H721   O1010   0.990   1_545 S
H722   O729    0.989   .     S
N723   Zn752   2.016   .     S
N724   Zn751   2.016   .     S
O725   Zn751   1.986   .     S
O727   H1002   0.989   1_545 S
O728   H1003   0.990   .     S
O736   Zn752   1.986   .     S
O743   H152    0.989   1_556 S
O744   Zn752   1.981   .     S
O745   Zn751   1.981   .     S
O746   Zn751   1.972   .     S
O747   Zn752   1.972   .     S
O748   Zn752   1.981   .     S
O749   Zn751   1.981   .     S
O750   C759    1.392   .     S
C753   O819    1.294   .     A
C753   O838    1.288   .     A
C753   C766    1.447   .     S
C754   O837    1.382   .     S
C754   C756    1.420   .     A
C754   C785    1.420   .     A
C755   C775    1.424   .     A
C755   C786    1.426   .     A
C756   C781    1.419   .     A
C756   C191    1.523   1_556 S
C757   O840    1.277   .     A
C757   O842    1.288   .     A
C757   C759    1.415   .     S
C758   O843    1.285   .     A
C758   C760    1.415   .     S
C758   O841    1.279   .     A
C760   C571    1.345   1_655 S
C760   O632    1.393   1_655 S
C761   O821    1.385   .     S
C761   C763    1.397   .     A
C761   C772    1.415   .     A
C762   C773    1.416   .     A
C762   O822    1.384   .     S
C762   C765    1.385   .     A
C763   C766    1.398   .     A
C763   O823    1.382   .     S
C764   O830    1.284   .     A
C764   C767    1.433   .     S
C764   O839    1.291   .     A
C765   C767    1.409   .     A
C765   O824    1.385   .     S
C766   C768    1.408   .     A
C767   C769    1.403   .     A
C768   O825    1.385   .     S
C768   C770    1.400   .     A
C769   O826    1.384   .     S
C769   C771    1.399   .     A
C770   O827    1.386   .     S
C770   C772    1.414   .     A
C771   O828    1.386   .     S
C771   C773    1.414   .     A
C772   C1055   1.452   1_545 S
C773   C1054   1.452   .     S
C774   H809    1.108   .     S
C774   H798    1.116   .     S
C774   O844    1.412   .     S
C774   H599    1.106   1_655 S
C775   C782    1.415   .     A
C775   O829    1.381   .     S
C776   H813    1.109   .     S
C776   H811    1.110   .     S
C776   O820    1.411   .     S
C777   O832    1.412   .     S
C777   H795    1.115   .     S
C777   H796    1.111   .     S
C777   H797    1.109   .     S
C778   H800    1.109   .     S
C778   H801    1.105   .     S
C778   H799    1.116   .     S
C778   O833    1.417   .     S
C779   H802    1.114   .     S
C779   H803    1.111   .     S
C779   H804    1.110   .     S
C779   O834    1.411   .     S
C780   O835    1.418   .     S
C780   H807    1.116   .     S
C780   H806    1.109   .     S
C780   H805    1.110   .     S
C781   O831    1.382   .     S
C781   C783    1.424   .     A
C782   O832    1.378   .     S
C782   N817    1.363   .     A
C783   N818    1.374   .     A
C783   O833    1.386   .     S
C784   C786    1.417   .     A
C784   O834    1.381   .     S
C784   N817    1.365   .     A
C785   N818    1.370   .     A
C785   O835    1.381   .     S
C786   O836    1.381   .     S
H788   O824    0.989   .     S
H789   O825    0.989   .     S
H790   O826    0.990   .     S
H791   O827    0.988   .     S
H792   O828    0.988   .     S
H793   O265    0.989   1_556 S
H794   O831    0.990   .     S
H808   O836    0.989   .     S
H812   C588    1.106   1_655 S
H814   O1103   0.989   .     S
H815   O1104   0.990   1_545 S
H816   O823    0.989   .     S
N817   Zn846   2.016   .     S
N818   Zn845   2.016   .     S
O819   Zn845   1.986   .     S
O821   H1096   0.989   1_545 S
O822   H1097   0.990   .     S
O830   Zn846   1.986   .     S
O837   H246    0.989   1_556 S
O838   Zn846   1.981   .     S
O839   Zn845   1.981   .     S
O840   Zn845   1.972   .     S
O841   Zn846   1.972   .     S
O842   Zn846   1.981   .     S
O843   Zn845   1.981   .     S
O844   C571    1.392   1_655 S
C847   O913    1.294   .     A
C847   O932    1.288   .     A
C847   C860    1.447   .     S
C848   O931    1.382   .     S
C848   C850    1.420   .     A
C848   C879    1.420   .     A
C849   C869    1.424   .     A
C849   C880    1.426   .     A
C850   C875    1.419   .     A
C850   C285    1.523   1_556 S
C851   O934    1.277   .     A
C851   O936    1.288   .     A
C851   C853    1.415   .     S
C852   O937    1.285   .     A
C852   C854    1.415   .     S
C852   O935    1.279   .     A
C853   C1042   1.345   1_455 S
C853   O1126   1.392   1_455 S
C854   C947    1.345   .     S
C854   O1008   1.393   .     S
C855   O915    1.385   .     S
C855   C857    1.397   .     A
C855   C866    1.415   .     A
C856   C867    1.416   .     A
C856   O916    1.384   .     S
C856   C859    1.385   .     A
C857   C860    1.398   .     A
C857   O917    1.382   .     S
C858   O924    1.284   .     A
C858   C861    1.433   .     S
C858   O933    1.291   .     A
C859   C861    1.409   .     A
C859   O918    1.385   .     S
C860   C862    1.408   .     A
C861   C863    1.403   .     A
C862   O919    1.385   .     S
C862   C864    1.400   .     A
C863   O920    1.384   .     S
C863   C865    1.399   .     A
C864   O921    1.386   .     S
C864   C866    1.414   .     A
C865   O922    1.386   .     S
C865   C867    1.414   .     A
C867   C584    1.452   1_565 S
C868   H903    1.108   .     S
C868   H892    1.116   .     S
C868   O938    1.412   .     S
C868   H975    1.106   .     S
C869   C876    1.415   .     A
C869   O923    1.381   .     S
C870   H907    1.109   .     S
C870   H905    1.110   .     S
C870   O914    1.411   .     S
C870   H1094   1.106   1_455 S
C871   O926    1.412   .     S
C871   H889    1.115   .     S
C871   H890    1.111   .     S
C871   H891    1.109   .     S
C872   H894    1.109   .     S
C872   H895    1.105   .     S
C872   H893    1.116   .     S
C872   O927    1.417   .     S
C873   H896    1.114   .     S
C873   H897    1.111   .     S
C873   H898    1.110   .     S
C873   O928    1.411   .     S
C874   O929    1.418   .     S
C874   H901    1.116   .     S
C874   H900    1.109   .     S
C874   H899    1.110   .     S
C875   O925    1.382   .     S
C875   C877    1.424   .     A
C876   O926    1.378   .     S
C876   N911    1.363   .     A
C877   N912    1.374   .     A
C877   O927    1.386   .     S
C878   C880    1.417   .     A
C878   O928    1.381   .     S
C878   N911    1.365   .     A
C879   N912    1.370   .     A
C879   O929    1.381   .     S
C880   O930    1.381   .     S
H881   C1056   1.106   1_455 S
H882   O918    0.989   .     S
H883   O919    0.989   .     S
H884   O920    0.990   .     S
H885   O921    0.988   .     S
H886   O922    0.988   .     S
H887   O359    0.989   1_556 S
H888   O925    0.990   .     S
H902   O930    0.989   .     S
H906   C964    1.106   .     S
H908   O633    0.989   1_565 S
H910   O917    0.989   .     S
N911   Zn940   2.016   .     S
N912   Zn939   2.016   .     S
O913   Zn939   1.986   .     S
O914   C1042   1.393   1_455 S
O916   H627    0.990   1_565 S
O924   Zn940   1.986   .     S
O931   H340    0.989   1_556 S
O932   Zn940   1.981   .     S
O933   Zn939   1.981   .     S
O934   Zn939   1.972   .     S
O935   Zn940   1.972   .     S
O936   Zn940   1.981   .     S
O937   Zn939   1.981   .     S
O938   C947    1.392   .     S
C941   O1007   1.294   .     A
C941   O1026   1.288   .     A
C941   C954    1.447   .     S
C942   O1025   1.382   .     S
C942   C944    1.420   .     A
C942   C973    1.420   .     A
C943   C963    1.424   .     A
C943   C974    1.426   .     A
C944   C969    1.419   .     A
C944   C379    1.523   1_556 S
C945   O1028   1.277   .     A
C945   O1030   1.288   .     A
C945   C947    1.415   .     S
C946   O1031   1.285   .     A
C946   C948    1.415   .     S
C946   O1029   1.279   .     A
C948   C1041   1.345   .     S
C948   O1102   1.393   .     S
C949   O1009   1.385   .     S
C949   C951    1.397   .     A
C949   C960    1.415   .     A
C950   C961    1.416   .     A
C950   O1010   1.384   .     S
C950   C953    1.385   .     A
C951   C954    1.398   .     A
C951   O1011   1.382   .     S
C952   O1018   1.284   .     A
C952   C955    1.433   .     S
C952   O1027   1.291   .     A
C953   C955    1.409   .     A
C953   O1012   1.385   .     S
C954   C956    1.408   .     A
C955   C957    1.403   .     A
C956   O1013   1.385   .     S
C956   C958    1.400   .     A
C957   O1014   1.384   .     S
C957   C959    1.399   .     A
C958   O1015   1.386   .     S
C958   C960    1.414   .     A
C959   O1016   1.386   .     S
C959   C961    1.414   .     A
C961   C678    1.452   1_565 S
C962   H997    1.108   .     S
C962   H986    1.116   .     S
C962   O1032   1.412   .     S
C962   H1069   1.106   .     S
C963   C970    1.415   .     A
C963   O1017   1.381   .     S
C964   H1001   1.109   .     S
C964   H999    1.110   .     S
C964   O1008   1.411   .     S
C965   O1020   1.412   .     S
C965   H983    1.115   .     S
C965   H984    1.111   .     S
C965   H985    1.109   .     S
C966   H988    1.109   .     S
C966   H989    1.105   .     S
C966   H987    1.116   .     S
C966   O1021   1.417   .     S
C967   H990    1.114   .     S
C967   H991    1.111   .     S
C967   H992    1.110   .     S
C967   O1022   1.411   .     S
C968   O1023   1.418   .     S
C968   H995    1.116   .     S
C968   H994    1.109   .     S
C968   H993    1.110   .     S
C969   O1019   1.382   .     S
C969   C971    1.424   .     A
C970   O1020   1.378   .     S
C970   N1005   1.363   .     A
C971   N1006   1.374   .     A
C971   O1021   1.386   .     S
C972   C974    1.417   .     A
C972   O1022   1.381   .     S
C972   N1005   1.365   .     A
C973   N1006   1.370   .     A
C973   O1023   1.381   .     S
C974   O1024   1.381   .     S
H976   O1012   0.989   .     S
H977   O1013   0.989   .     S
H978   O1014   0.990   .     S
H979   O1015   0.988   .     S
H980   O1016   0.988   .     S
H981   O453    0.989   1_556 S
H982   O1019   0.990   .     S
H996   O1024   0.989   .     S
H1000  C1058   1.106   .     S
H1002  O727    0.989   1_565 S
H1004  O1011   0.989   .     S
N1005  Zn1034  2.016   .     S
N1006  Zn1033  2.016   .     S
O1007  Zn1033  1.986   .     S
O1010  H721    0.990   1_565 S
O1018  Zn1034  1.986   .     S
O1025  H434    0.989   1_556 S
O1026  Zn1034  1.981   .     S
O1027  Zn1033  1.981   .     S
O1028  Zn1033  1.972   .     S
O1029  Zn1034  1.972   .     S
O1030  Zn1034  1.981   .     S
O1031  Zn1033  1.981   .     S
O1032  C1041   1.392   .     S
C1035  O1101   1.294   .     A
C1035  O1120   1.288   .     A
C1035  C1048   1.447   .     S
C1036  O1119   1.382   .     S
C1036  C1038   1.420   .     A
C1036  C1067   1.420   .     A
C1037  C1057   1.424   .     A
C1037  C1068   1.426   .     A
C1038  C1063   1.419   .     A
C1038  C473    1.523   1_556 S
C1039  O1122   1.277   .     A
C1039  O1124   1.288   .     A
C1039  C1041   1.415   .     S
C1040  O1125   1.285   .     A
C1040  C1042   1.415   .     S
C1040  O1123   1.279   .     A
C1042  C853    1.345   1_655 S
C1042  O914    1.393   1_655 S
C1043  O1103   1.385   .     S
C1043  C1045   1.397   .     A
C1043  C1054   1.415   .     A
C1044  C1055   1.416   .     A
C1044  O1104   1.384   .     S
C1044  C1047   1.385   .     A
C1045  C1048   1.398   .     A
C1045  O1105   1.382   .     S
C1046  O1112   1.284   .     A
C1046  C1049   1.433   .     S
C1046  O1121   1.291   .     A
C1047  C1049   1.409   .     A
C1047  O1106   1.385   .     S
C1048  C1050   1.408   .     A
C1049  C1051   1.403   .     A
C1050  O1107   1.385   .     S
C1050  C1052   1.400   .     A
C1051  O1108   1.384   .     S
C1051  C1053   1.399   .     A
C1052  O1109   1.386   .     S
C1052  C1054   1.414   .     A
C1053  O1110   1.386   .     S
C1053  C1055   1.414   .     A
C1055  C772    1.452   1_565 S
C1056  H1091   1.108   .     S
C1056  H1080   1.116   .     S
C1056  O1126   1.412   .     S
C1056  H881    1.106   1_655 S
C1057  C1064   1.415   .     A
C1057  O1111   1.381   .     S
C1058  H1095   1.109   .     S
C1058  H1093   1.110   .     S
C1058  O1102   1.411   .     S
C1059  O1114   1.412   .     S
C1059  H1077   1.115   .     S
C1059  H1078   1.111   .     S
C1059  H1079   1.109   .     S
C1060  H1082   1.109   .     S
C1060  H1083   1.105   .     S
C1060  H1081   1.116   .     S
C1060  O1115   1.417   .     S
C1061  H1084   1.114   .     S
C1061  H1085   1.111   .     S
C1061  H1086   1.110   .     S
C1061  O1116   1.411   .     S
C1062  O1117   1.418   .     S
C1062  H1089   1.116   .     S
C1062  H1088   1.109   .     S
C1062  H1087   1.110   .     S
C1063  O1113   1.382   .     S
C1063  C1065   1.424   .     A
C1064  O1114   1.378   .     S
C1064  N1099   1.363   .     A
C1065  N1100   1.374   .     A
C1065  O1115   1.386   .     S
C1066  C1068   1.417   .     A
C1066  O1116   1.381   .     S
C1066  N1099   1.365   .     A
C1067  N1100   1.370   .     A
C1067  O1117   1.381   .     S
C1068  O1118   1.381   .     S
H1070  O1106   0.989   .     S
H1071  O1107   0.989   .     S
H1072  O1108   0.990   .     S
H1073  O1109   0.988   .     S
H1074  O1110   0.988   .     S
H1075  O547    0.989   1_556 S
H1076  O1113   0.990   .     S
H1090  O1118   0.989   .     S
H1094  C870    1.106   1_655 S
H1096  O821    0.989   1_565 S
H1098  O1105   0.989   .     S
N1099  Zn1128  2.016   .     S
N1100  Zn1127  2.016   .     S
O1101  Zn1127  1.986   .     S
O1104  H815    0.990   1_565 S
O1112  Zn1128  1.986   .     S
O1119  H528    0.989   1_556 S
O1120  Zn1128  1.981   .     S
O1121  Zn1127  1.981   .     S
O1122  Zn1127  1.972   .     S
O1123  Zn1128  1.972   .     S
O1124  Zn1128  1.981   .     S
O1125  Zn1127  1.981   .     S
O1126  C853    1.392   1_655 S
