data_str_m3_o10_o16_pcu_sym.116
_audit_creation_date              2020-01-03
_audit_creation_method            'Materials Studio'
_symmetry_space_group_name_H-M    'P1'
_symmetry_Int_Tables_number       1
_symmetry_cell_setting            triclinic
loop_
_symmetry_equiv_pos_as_xyz
  x,y,z
_cell_length_a                    23.5586
_cell_length_b                    25.6281
_cell_length_c                    35.7432
_cell_angle_alpha                 91.8681
_cell_angle_beta                  100.8567
_cell_angle_gamma                 94.0985
loop_
_atom_site_label
_atom_site_type_symbol
_atom_site_fract_x
_atom_site_fract_y
_atom_site_fract_z
_atom_site_U_iso_or_equiv
_atom_site_adp_type
_atom_site_occupancy
C1     C     0.01434   0.26479   0.16461   0.00000  Uiso   1.00
C2     C     0.05325   0.17518   0.27885   0.00000  Uiso   1.00
C3     C     0.02107   0.31920   0.16174   0.00000  Uiso   1.00
C4     C     0.03555   0.17054   0.23723   0.00000  Uiso   1.00
C5     C     0.30885   0.01356   0.16354   0.00000  Uiso   1.00
C6     C     0.31772   0.06839   0.16578   0.00000  Uiso   1.00
C7     C     0.29788   0.16351   0.09630   0.00000  Uiso   1.00
C8     C     0.26224   0.08994   0.00338   0.00000  Uiso   1.00
C9     C     0.27834   0.15442   0.05559   0.00000  Uiso   1.00
C10    C     0.02985   0.21208   0.30119   0.00000  Uiso   1.00
C11    C     0.05390   0.21995   0.00645   0.00000  Uiso   1.00
C12    C     0.13313   0.16768   0.33109   0.00000  Uiso   1.00
C13    C     0.10603   0.19933   0.02117   0.00000  Uiso   1.00
C14    C     0.15794   0.11328   0.13284   0.00000  Uiso   1.00
C15    C     0.22716   0.23401   0.04960   0.00000  Uiso   1.00
C16    C     0.06750   0.06347   0.26083   0.00000  Uiso   1.00
C17    C     0.10016   0.14753   0.29623   0.00000  Uiso   1.00
C18    C     0.19003   0.15243   0.00892   0.00000  Uiso   1.00
C19    C     0.20754   0.10830   0.32327   0.00000  Uiso   1.00
C20    C     0.16914   0.08135   0.29281   0.00000  Uiso   1.00
C21    C     0.11410   0.09983   0.28048   0.00000  Uiso   1.00
C22    C     0.23049   0.17948   0.03837   0.00000  Uiso   1.00
C23    C     0.29623   0.11141   0.03714   0.00000  Uiso   1.00
H24    H     0.00091   0.09239   0.05007   0.00000  Uiso   1.00
H25    H     0.26595   0.32960   0.16529   0.00000  Uiso   1.00
H26    H     0.17677   0.20905   0.19424   0.00000  Uiso   1.00
H27    H     0.27671   0.05628   0.32312   0.00000  Uiso   1.00
H28    H     0.12391   0.20742   0.05109   0.00000  Uiso   1.00
H29    H     0.03457   0.24543   0.02446   0.00000  Uiso   1.00
H30    H     0.06389   0.00314   0.15977   0.00000  Uiso   1.00
H31    H     0.15925   0.02650   0.25224   0.00000  Uiso   1.00
H32    H     0.32248   0.25158   0.26082   0.00000  Uiso   1.00
N33    N     0.14493   0.15223   0.15695   0.00000  Uiso   1.00
N34    N     0.18840   0.18110   0.17638   0.00000  Uiso   1.00
N35    N     0.16816   0.08061   0.11255   0.00000  Uiso   1.00
N36    N     0.22486   0.27751   0.05858   0.00000  Uiso   1.00
N37    N     0.03004   0.03371   0.24632   0.00000  Uiso   1.00
O38    O     0.29769   0.24629   0.16905   0.00000  Uiso   1.00
O39    O     0.31809   0.24156   0.28667   0.00000  Uiso   1.00
O40    O     0.05742   0.23704   0.16282   0.00000  Uiso   1.00
O41    O     0.31490   0.17358   0.22253   0.00000  Uiso   1.00
O42    O     0.07463   0.16433   0.21631   0.00000  Uiso   1.00
O43    O     0.27592   0.09629   0.17051   0.00000  Uiso   1.00
O44    O     0.03565   0.08704   0.16428   0.00000  Uiso   1.00
O45    O     0.25870   0.16901   0.11703   0.00000  Uiso   1.00
O46    O     0.01843   0.15976   0.11080   0.00000  Uiso   1.00
O47    O     0.18572   0.03627   0.27682   0.00000  Uiso   1.00
Zn48   Zn    0.27119   0.17284   0.17082   0.00000  Uiso   1.00
Zn49   Zn    0.06214   0.16049   0.16251   0.00000  Uiso   1.00
C50    C     0.34768   0.26479   0.16461   0.00000  Uiso   1.00
C51    C     0.38659   0.17518   0.27885   0.00000  Uiso   1.00
C52    C     0.35441   0.31920   0.16174   0.00000  Uiso   1.00
C53    C     0.36888   0.17054   0.23723   0.00000  Uiso   1.00
C54    C     0.64218   0.01356   0.16354   0.00000  Uiso   1.00
C55    C     0.65105   0.06839   0.16578   0.00000  Uiso   1.00
C56    C     0.63122   0.16351   0.09630   0.00000  Uiso   1.00
C57    C     0.59557   0.08994   0.00338   0.00000  Uiso   1.00
C58    C     0.61167   0.15442   0.05559   0.00000  Uiso   1.00
C59    C     0.36318   0.21208   0.30119   0.00000  Uiso   1.00
C60    C     0.38723   0.21995   0.00645   0.00000  Uiso   1.00
C61    C     0.46647   0.16768   0.33109   0.00000  Uiso   1.00
C62    C     0.43937   0.19933   0.02117   0.00000  Uiso   1.00
C63    C     0.49127   0.11328   0.13284   0.00000  Uiso   1.00
C64    C     0.56049   0.23401   0.04960   0.00000  Uiso   1.00
C65    C     0.40083   0.06347   0.26083   0.00000  Uiso   1.00
C66    C     0.43349   0.14753   0.29623   0.00000  Uiso   1.00
C67    C     0.52336   0.15243   0.00892   0.00000  Uiso   1.00
C68    C     0.54088   0.10830   0.32327   0.00000  Uiso   1.00
C69    C     0.50247   0.08135   0.29281   0.00000  Uiso   1.00
C70    C     0.44743   0.09983   0.28048   0.00000  Uiso   1.00
C71    C     0.56383   0.17948   0.03837   0.00000  Uiso   1.00
C72    C     0.62956   0.11141   0.03714   0.00000  Uiso   1.00
H73    H     0.33424   0.09239   0.05007   0.00000  Uiso   1.00
H74    H     0.59929   0.32960   0.16529   0.00000  Uiso   1.00
H75    H     0.51010   0.20905   0.19424   0.00000  Uiso   1.00
H76    H     0.61004   0.05628   0.32312   0.00000  Uiso   1.00
H77    H     0.45725   0.20742   0.05109   0.00000  Uiso   1.00
H78    H     0.36790   0.24543   0.02446   0.00000  Uiso   1.00
H79    H     0.39722   0.00314   0.15977   0.00000  Uiso   1.00
H80    H     0.49258   0.02650   0.25224   0.00000  Uiso   1.00
H81    H     0.65581   0.25158   0.26082   0.00000  Uiso   1.00
N82    N     0.47827   0.15223   0.15695   0.00000  Uiso   1.00
N83    N     0.52173   0.18110   0.17638   0.00000  Uiso   1.00
N84    N     0.50149   0.08061   0.11255   0.00000  Uiso   1.00
N85    N     0.55819   0.27751   0.05858   0.00000  Uiso   1.00
N86    N     0.36337   0.03371   0.24632   0.00000  Uiso   1.00
O87    O     0.63102   0.24629   0.16905   0.00000  Uiso   1.00
O88    O     0.65143   0.24156   0.28667   0.00000  Uiso   1.00
O89    O     0.39075   0.23704   0.16282   0.00000  Uiso   1.00
O90    O     0.64823   0.17358   0.22253   0.00000  Uiso   1.00
O91    O     0.40796   0.16433   0.21631   0.00000  Uiso   1.00
O92    O     0.60925   0.09629   0.17051   0.00000  Uiso   1.00
O93    O     0.36898   0.08704   0.16428   0.00000  Uiso   1.00
O94    O     0.59204   0.16901   0.11703   0.00000  Uiso   1.00
O95    O     0.35177   0.15976   0.11080   0.00000  Uiso   1.00
O96    O     0.51905   0.03627   0.27682   0.00000  Uiso   1.00
Zn97   Zn    0.60453   0.17284   0.17082   0.00000  Uiso   1.00
Zn98   Zn    0.39547   0.16049   0.16251   0.00000  Uiso   1.00
C99    C     0.68101   0.26479   0.16461   0.00000  Uiso   1.00
C100   C     0.71992   0.17518   0.27885   0.00000  Uiso   1.00
C101   C     0.68774   0.31920   0.16174   0.00000  Uiso   1.00
C102   C     0.70222   0.17054   0.23723   0.00000  Uiso   1.00
C103   C     0.97551   0.01356   0.16354   0.00000  Uiso   1.00
C104   C     0.98438   0.06839   0.16578   0.00000  Uiso   1.00
C105   C     0.96455   0.16351   0.09630   0.00000  Uiso   1.00
C106   C     0.92891   0.08994   0.00338   0.00000  Uiso   1.00
C107   C     0.94500   0.15442   0.05559   0.00000  Uiso   1.00
C108   C     0.69651   0.21208   0.30119   0.00000  Uiso   1.00
C109   C     0.72056   0.21995   0.00645   0.00000  Uiso   1.00
C110   C     0.79980   0.16768   0.33109   0.00000  Uiso   1.00
C111   C     0.77270   0.19933   0.02117   0.00000  Uiso   1.00
C112   C     0.82460   0.11328   0.13284   0.00000  Uiso   1.00
C113   C     0.89383   0.23401   0.04960   0.00000  Uiso   1.00
C114   C     0.73416   0.06347   0.26083   0.00000  Uiso   1.00
C115   C     0.76683   0.14753   0.29623   0.00000  Uiso   1.00
C116   C     0.85670   0.15243   0.00892   0.00000  Uiso   1.00
C117   C     0.87421   0.10830   0.32327   0.00000  Uiso   1.00
C118   C     0.83581   0.08135   0.29281   0.00000  Uiso   1.00
C119   C     0.78077   0.09983   0.28048   0.00000  Uiso   1.00
C120   C     0.89716   0.17948   0.03837   0.00000  Uiso   1.00
C121   C     0.96290   0.11141   0.03714   0.00000  Uiso   1.00
H122   H     0.66758   0.09239   0.05007   0.00000  Uiso   1.00
H123   H     0.93262   0.32960   0.16529   0.00000  Uiso   1.00
H124   H     0.84343   0.20905   0.19424   0.00000  Uiso   1.00
H125   H     0.94337   0.05628   0.32312   0.00000  Uiso   1.00
H126   H     0.79058   0.20742   0.05109   0.00000  Uiso   1.00
H127   H     0.70123   0.24543   0.02446   0.00000  Uiso   1.00
H128   H     0.73056   0.00314   0.15977   0.00000  Uiso   1.00
H129   H     0.82592   0.02650   0.25224   0.00000  Uiso   1.00
H130   H     0.98914   0.25158   0.26082   0.00000  Uiso   1.00
N131   N     0.81160   0.15223   0.15695   0.00000  Uiso   1.00
N132   N     0.85507   0.18110   0.17638   0.00000  Uiso   1.00
N133   N     0.83483   0.08061   0.11255   0.00000  Uiso   1.00
N134   N     0.89152   0.27751   0.05858   0.00000  Uiso   1.00
N135   N     0.69670   0.03371   0.24632   0.00000  Uiso   1.00
O136   O     0.96435   0.24629   0.16905   0.00000  Uiso   1.00
O137   O     0.98476   0.24156   0.28667   0.00000  Uiso   1.00
O138   O     0.72408   0.23704   0.16282   0.00000  Uiso   1.00
O139   O     0.98157   0.17358   0.22253   0.00000  Uiso   1.00
O140   O     0.74130   0.16433   0.21631   0.00000  Uiso   1.00
O141   O     0.94258   0.09629   0.17051   0.00000  Uiso   1.00
O142   O     0.70231   0.08704   0.16428   0.00000  Uiso   1.00
O143   O     0.92537   0.16901   0.11703   0.00000  Uiso   1.00
O144   O     0.68510   0.15976   0.11080   0.00000  Uiso   1.00
O145   O     0.85238   0.03627   0.27682   0.00000  Uiso   1.00
Zn146  Zn    0.93786   0.17284   0.17082   0.00000  Uiso   1.00
Zn147  Zn    0.72881   0.16049   0.16251   0.00000  Uiso   1.00
C148   C     0.01434   0.59812   0.16461   0.00000  Uiso   1.00
C149   C     0.05325   0.50851   0.27885   0.00000  Uiso   1.00
C150   C     0.02107   0.65253   0.16174   0.00000  Uiso   1.00
C151   C     0.03555   0.50387   0.23723   0.00000  Uiso   1.00
C152   C     0.30885   0.34689   0.16354   0.00000  Uiso   1.00
C153   C     0.31772   0.40173   0.16578   0.00000  Uiso   1.00
C154   C     0.29788   0.49684   0.09630   0.00000  Uiso   1.00
C155   C     0.26224   0.42327   0.00338   0.00000  Uiso   1.00
C156   C     0.27834   0.48776   0.05559   0.00000  Uiso   1.00
C157   C     0.02985   0.54541   0.30119   0.00000  Uiso   1.00
C158   C     0.05390   0.55328   0.00645   0.00000  Uiso   1.00
C159   C     0.13313   0.50102   0.33109   0.00000  Uiso   1.00
C160   C     0.10603   0.53266   0.02117   0.00000  Uiso   1.00
C161   C     0.15794   0.44662   0.13284   0.00000  Uiso   1.00
C162   C     0.22716   0.56735   0.04960   0.00000  Uiso   1.00
C163   C     0.06750   0.39680   0.26083   0.00000  Uiso   1.00
C164   C     0.10016   0.48086   0.29623   0.00000  Uiso   1.00
C165   C     0.19003   0.48576   0.00892   0.00000  Uiso   1.00
C166   C     0.20754   0.44163   0.32327   0.00000  Uiso   1.00
C167   C     0.16914   0.41468   0.29281   0.00000  Uiso   1.00
C168   C     0.11410   0.43317   0.28048   0.00000  Uiso   1.00
C169   C     0.23049   0.51281   0.03837   0.00000  Uiso   1.00
C170   C     0.29623   0.44474   0.03714   0.00000  Uiso   1.00
H171   H     0.00091   0.42573   0.05007   0.00000  Uiso   1.00
H172   H     0.26595   0.66293   0.16529   0.00000  Uiso   1.00
H173   H     0.17677   0.54238   0.19424   0.00000  Uiso   1.00
H174   H     0.27671   0.38962   0.32312   0.00000  Uiso   1.00
H175   H     0.12391   0.54075   0.05109   0.00000  Uiso   1.00
H176   H     0.03457   0.57876   0.02446   0.00000  Uiso   1.00
H177   H     0.06389   0.33647   0.15977   0.00000  Uiso   1.00
H178   H     0.15925   0.35984   0.25224   0.00000  Uiso   1.00
H179   H     0.32248   0.58492   0.26082   0.00000  Uiso   1.00
N180   N     0.14493   0.48556   0.15695   0.00000  Uiso   1.00
N181   N     0.18840   0.51444   0.17638   0.00000  Uiso   1.00
N182   N     0.16816   0.41394   0.11255   0.00000  Uiso   1.00
N183   N     0.22486   0.61084   0.05858   0.00000  Uiso   1.00
N184   N     0.03004   0.36704   0.24632   0.00000  Uiso   1.00
O185   O     0.29769   0.57963   0.16905   0.00000  Uiso   1.00
O186   O     0.31809   0.57489   0.28667   0.00000  Uiso   1.00
O187   O     0.05742   0.57038   0.16282   0.00000  Uiso   1.00
O188   O     0.31490   0.50691   0.22253   0.00000  Uiso   1.00
O189   O     0.07463   0.49766   0.21631   0.00000  Uiso   1.00
O190   O     0.27592   0.42962   0.17051   0.00000  Uiso   1.00
O191   O     0.03565   0.42037   0.16428   0.00000  Uiso   1.00
O192   O     0.25870   0.50234   0.11703   0.00000  Uiso   1.00
O193   O     0.01843   0.49309   0.11080   0.00000  Uiso   1.00
O194   O     0.18572   0.36960   0.27682   0.00000  Uiso   1.00
Zn195  Zn    0.27119   0.50618   0.17082   0.00000  Uiso   1.00
Zn196  Zn    0.06214   0.49382   0.16251   0.00000  Uiso   1.00
C197   C     0.34768   0.59812   0.16461   0.00000  Uiso   1.00
C198   C     0.38659   0.50851   0.27885   0.00000  Uiso   1.00
C199   C     0.35441   0.65253   0.16174   0.00000  Uiso   1.00
C200   C     0.36888   0.50387   0.23723   0.00000  Uiso   1.00
C201   C     0.64218   0.34689   0.16354   0.00000  Uiso   1.00
C202   C     0.65105   0.40173   0.16578   0.00000  Uiso   1.00
C203   C     0.63122   0.49684   0.09630   0.00000  Uiso   1.00
C204   C     0.59557   0.42327   0.00338   0.00000  Uiso   1.00
C205   C     0.61167   0.48776   0.05559   0.00000  Uiso   1.00
C206   C     0.36318   0.54541   0.30119   0.00000  Uiso   1.00
C207   C     0.38723   0.55328   0.00645   0.00000  Uiso   1.00
C208   C     0.46647   0.50102   0.33109   0.00000  Uiso   1.00
C209   C     0.43937   0.53266   0.02117   0.00000  Uiso   1.00
C210   C     0.49127   0.44662   0.13284   0.00000  Uiso   1.00
C211   C     0.56049   0.56735   0.04960   0.00000  Uiso   1.00
C212   C     0.40083   0.39680   0.26083   0.00000  Uiso   1.00
C213   C     0.43349   0.48086   0.29623   0.00000  Uiso   1.00
C214   C     0.52336   0.48576   0.00892   0.00000  Uiso   1.00
C215   C     0.54088   0.44163   0.32327   0.00000  Uiso   1.00
C216   C     0.50247   0.41468   0.29281   0.00000  Uiso   1.00
C217   C     0.44743   0.43317   0.28048   0.00000  Uiso   1.00
C218   C     0.56383   0.51281   0.03837   0.00000  Uiso   1.00
C219   C     0.62956   0.44474   0.03714   0.00000  Uiso   1.00
H220   H     0.33424   0.42573   0.05007   0.00000  Uiso   1.00
H221   H     0.59929   0.66293   0.16529   0.00000  Uiso   1.00
H222   H     0.51010   0.54238   0.19424   0.00000  Uiso   1.00
H223   H     0.61004   0.38962   0.32312   0.00000  Uiso   1.00
H224   H     0.45725   0.54075   0.05109   0.00000  Uiso   1.00
H225   H     0.36790   0.57876   0.02446   0.00000  Uiso   1.00
H226   H     0.39722   0.33647   0.15977   0.00000  Uiso   1.00
H227   H     0.49258   0.35984   0.25224   0.00000  Uiso   1.00
H228   H     0.65581   0.58492   0.26082   0.00000  Uiso   1.00
N229   N     0.47827   0.48556   0.15695   0.00000  Uiso   1.00
N230   N     0.52173   0.51444   0.17638   0.00000  Uiso   1.00
N231   N     0.50149   0.41394   0.11255   0.00000  Uiso   1.00
N232   N     0.55819   0.61084   0.05858   0.00000  Uiso   1.00
N233   N     0.36337   0.36704   0.24632   0.00000  Uiso   1.00
O234   O     0.63102   0.57963   0.16905   0.00000  Uiso   1.00
O235   O     0.65143   0.57489   0.28667   0.00000  Uiso   1.00
O236   O     0.39075   0.57038   0.16282   0.00000  Uiso   1.00
O237   O     0.64823   0.50691   0.22253   0.00000  Uiso   1.00
O238   O     0.40796   0.49766   0.21631   0.00000  Uiso   1.00
O239   O     0.60925   0.42962   0.17051   0.00000  Uiso   1.00
O240   O     0.36898   0.42037   0.16428   0.00000  Uiso   1.00
O241   O     0.59204   0.50234   0.11703   0.00000  Uiso   1.00
O242   O     0.35177   0.49309   0.11080   0.00000  Uiso   1.00
O243   O     0.51905   0.36960   0.27682   0.00000  Uiso   1.00
Zn244  Zn    0.60453   0.50618   0.17082   0.00000  Uiso   1.00
Zn245  Zn    0.39547   0.49382   0.16251   0.00000  Uiso   1.00
C246   C     0.68101   0.59812   0.16461   0.00000  Uiso   1.00
C247   C     0.71992   0.50851   0.27885   0.00000  Uiso   1.00
C248   C     0.68774   0.65253   0.16174   0.00000  Uiso   1.00
C249   C     0.70222   0.50387   0.23723   0.00000  Uiso   1.00
C250   C     0.97551   0.34689   0.16354   0.00000  Uiso   1.00
C251   C     0.98438   0.40173   0.16578   0.00000  Uiso   1.00
C252   C     0.96455   0.49684   0.09630   0.00000  Uiso   1.00
C253   C     0.92891   0.42327   0.00338   0.00000  Uiso   1.00
C254   C     0.94500   0.48776   0.05559   0.00000  Uiso   1.00
C255   C     0.69651   0.54541   0.30119   0.00000  Uiso   1.00
C256   C     0.72056   0.55328   0.00645   0.00000  Uiso   1.00
C257   C     0.79980   0.50102   0.33109   0.00000  Uiso   1.00
C258   C     0.77270   0.53266   0.02117   0.00000  Uiso   1.00
C259   C     0.82460   0.44662   0.13284   0.00000  Uiso   1.00
C260   C     0.89383   0.56735   0.04960   0.00000  Uiso   1.00
C261   C     0.73416   0.39680   0.26083   0.00000  Uiso   1.00
C262   C     0.76683   0.48086   0.29623   0.00000  Uiso   1.00
C263   C     0.85670   0.48576   0.00892   0.00000  Uiso   1.00
C264   C     0.87421   0.44163   0.32327   0.00000  Uiso   1.00
C265   C     0.83581   0.41468   0.29281   0.00000  Uiso   1.00
C266   C     0.78077   0.43317   0.28048   0.00000  Uiso   1.00
C267   C     0.89716   0.51281   0.03837   0.00000  Uiso   1.00
C268   C     0.96290   0.44474   0.03714   0.00000  Uiso   1.00
H269   H     0.66758   0.42573   0.05007   0.00000  Uiso   1.00
H270   H     0.93262   0.66293   0.16529   0.00000  Uiso   1.00
H271   H     0.84343   0.54238   0.19424   0.00000  Uiso   1.00
H272   H     0.94337   0.38962   0.32312   0.00000  Uiso   1.00
H273   H     0.79058   0.54075   0.05109   0.00000  Uiso   1.00
H274   H     0.70123   0.57876   0.02446   0.00000  Uiso   1.00
H275   H     0.73056   0.33647   0.15977   0.00000  Uiso   1.00
H276   H     0.82592   0.35984   0.25224   0.00000  Uiso   1.00
H277   H     0.98914   0.58492   0.26082   0.00000  Uiso   1.00
N278   N     0.81160   0.48556   0.15695   0.00000  Uiso   1.00
N279   N     0.85507   0.51444   0.17638   0.00000  Uiso   1.00
N280   N     0.83483   0.41394   0.11255   0.00000  Uiso   1.00
N281   N     0.89152   0.61084   0.05858   0.00000  Uiso   1.00
N282   N     0.69670   0.36704   0.24632   0.00000  Uiso   1.00
O283   O     0.96435   0.57963   0.16905   0.00000  Uiso   1.00
O284   O     0.98476   0.57489   0.28667   0.00000  Uiso   1.00
O285   O     0.72408   0.57038   0.16282   0.00000  Uiso   1.00
O286   O     0.98157   0.50691   0.22253   0.00000  Uiso   1.00
O287   O     0.74130   0.49766   0.21631   0.00000  Uiso   1.00
O288   O     0.94258   0.42962   0.17051   0.00000  Uiso   1.00
O289   O     0.70231   0.42037   0.16428   0.00000  Uiso   1.00
O290   O     0.92537   0.50234   0.11703   0.00000  Uiso   1.00
O291   O     0.68510   0.49309   0.11080   0.00000  Uiso   1.00
O292   O     0.85238   0.36960   0.27682   0.00000  Uiso   1.00
Zn293  Zn    0.93786   0.50618   0.17082   0.00000  Uiso   1.00
Zn294  Zn    0.72881   0.49382   0.16251   0.00000  Uiso   1.00
C295   C     0.01434   0.93146   0.16461   0.00000  Uiso   1.00
C296   C     0.05325   0.84185   0.27885   0.00000  Uiso   1.00
C297   C     0.02107   0.98586   0.16174   0.00000  Uiso   1.00
C298   C     0.03555   0.83720   0.23723   0.00000  Uiso   1.00
C299   C     0.30885   0.68023   0.16354   0.00000  Uiso   1.00
C300   C     0.31772   0.73506   0.16578   0.00000  Uiso   1.00
C301   C     0.29788   0.83017   0.09630   0.00000  Uiso   1.00
C302   C     0.26224   0.75661   0.00338   0.00000  Uiso   1.00
C303   C     0.27834   0.82109   0.05559   0.00000  Uiso   1.00
C304   C     0.02985   0.87875   0.30119   0.00000  Uiso   1.00
C305   C     0.05390   0.88662   0.00645   0.00000  Uiso   1.00
C306   C     0.13313   0.83435   0.33109   0.00000  Uiso   1.00
C307   C     0.10603   0.86600   0.02117   0.00000  Uiso   1.00
C308   C     0.15794   0.77995   0.13284   0.00000  Uiso   1.00
C309   C     0.22716   0.90068   0.04960   0.00000  Uiso   1.00
C310   C     0.06750   0.73014   0.26083   0.00000  Uiso   1.00
C311   C     0.10016   0.81419   0.29623   0.00000  Uiso   1.00
C312   C     0.19003   0.81910   0.00892   0.00000  Uiso   1.00
C313   C     0.20754   0.77496   0.32327   0.00000  Uiso   1.00
C314   C     0.16914   0.74801   0.29281   0.00000  Uiso   1.00
C315   C     0.11410   0.76650   0.28048   0.00000  Uiso   1.00
C316   C     0.23049   0.84614   0.03837   0.00000  Uiso   1.00
C317   C     0.29623   0.77807   0.03714   0.00000  Uiso   1.00
H318   H     0.00091   0.75906   0.05007   0.00000  Uiso   1.00
H319   H     0.26595   0.99626   0.16529   0.00000  Uiso   1.00
H320   H     0.17677   0.87571   0.19424   0.00000  Uiso   1.00
H321   H     0.27671   0.72295   0.32312   0.00000  Uiso   1.00
H322   H     0.12391   0.87409   0.05109   0.00000  Uiso   1.00
H323   H     0.03457   0.91209   0.02446   0.00000  Uiso   1.00
H324   H     0.06389   0.66980   0.15977   0.00000  Uiso   1.00
H325   H     0.15925   0.69317   0.25224   0.00000  Uiso   1.00
H326   H     0.32248   0.91825   0.26082   0.00000  Uiso   1.00
N327   N     0.14493   0.81890   0.15695   0.00000  Uiso   1.00
N328   N     0.18840   0.84777   0.17638   0.00000  Uiso   1.00
N329   N     0.16816   0.74727   0.11255   0.00000  Uiso   1.00
N330   N     0.22486   0.94418   0.05858   0.00000  Uiso   1.00
N331   N     0.03004   0.70038   0.24632   0.00000  Uiso   1.00
O332   O     0.29769   0.91296   0.16905   0.00000  Uiso   1.00
O333   O     0.31809   0.90823   0.28667   0.00000  Uiso   1.00
O334   O     0.05742   0.90371   0.16282   0.00000  Uiso   1.00
O335   O     0.31490   0.84024   0.22253   0.00000  Uiso   1.00
O336   O     0.07463   0.83099   0.21631   0.00000  Uiso   1.00
O337   O     0.27592   0.76296   0.17051   0.00000  Uiso   1.00
O338   O     0.03565   0.75371   0.16428   0.00000  Uiso   1.00
O339   O     0.25870   0.83567   0.11703   0.00000  Uiso   1.00
O340   O     0.01843   0.82642   0.11080   0.00000  Uiso   1.00
O341   O     0.18572   0.70294   0.27682   0.00000  Uiso   1.00
Zn342  Zn    0.27119   0.83951   0.17082   0.00000  Uiso   1.00
Zn343  Zn    0.06214   0.82716   0.16251   0.00000  Uiso   1.00
C344   C     0.34768   0.93146   0.16461   0.00000  Uiso   1.00
C345   C     0.38659   0.84185   0.27885   0.00000  Uiso   1.00
C346   C     0.35441   0.98586   0.16174   0.00000  Uiso   1.00
C347   C     0.36888   0.83720   0.23723   0.00000  Uiso   1.00
C348   C     0.64218   0.68023   0.16354   0.00000  Uiso   1.00
C349   C     0.65105   0.73506   0.16578   0.00000  Uiso   1.00
C350   C     0.63122   0.83017   0.09630   0.00000  Uiso   1.00
C351   C     0.59557   0.75661   0.00338   0.00000  Uiso   1.00
C352   C     0.61167   0.82109   0.05559   0.00000  Uiso   1.00
C353   C     0.36318   0.87875   0.30119   0.00000  Uiso   1.00
C354   C     0.38723   0.88662   0.00645   0.00000  Uiso   1.00
C355   C     0.46647   0.83435   0.33109   0.00000  Uiso   1.00
C356   C     0.43937   0.86600   0.02117   0.00000  Uiso   1.00
C357   C     0.49127   0.77995   0.13284   0.00000  Uiso   1.00
C358   C     0.56049   0.90068   0.04960   0.00000  Uiso   1.00
C359   C     0.40083   0.73014   0.26083   0.00000  Uiso   1.00
C360   C     0.43349   0.81419   0.29623   0.00000  Uiso   1.00
C361   C     0.52336   0.81910   0.00892   0.00000  Uiso   1.00
C362   C     0.54088   0.77496   0.32327   0.00000  Uiso   1.00
C363   C     0.50247   0.74801   0.29281   0.00000  Uiso   1.00
C364   C     0.44743   0.76650   0.28048   0.00000  Uiso   1.00
C365   C     0.56383   0.84614   0.03837   0.00000  Uiso   1.00
C366   C     0.62956   0.77807   0.03714   0.00000  Uiso   1.00
H367   H     0.33424   0.75906   0.05007   0.00000  Uiso   1.00
H368   H     0.59929   0.99626   0.16529   0.00000  Uiso   1.00
H369   H     0.51010   0.87571   0.19424   0.00000  Uiso   1.00
H370   H     0.61004   0.72295   0.32312   0.00000  Uiso   1.00
H371   H     0.45725   0.87409   0.05109   0.00000  Uiso   1.00
H372   H     0.36790   0.91209   0.02446   0.00000  Uiso   1.00
H373   H     0.39722   0.66980   0.15977   0.00000  Uiso   1.00
H374   H     0.49258   0.69317   0.25224   0.00000  Uiso   1.00
H375   H     0.65581   0.91825   0.26082   0.00000  Uiso   1.00
N376   N     0.47827   0.81890   0.15695   0.00000  Uiso   1.00
N377   N     0.52173   0.84777   0.17638   0.00000  Uiso   1.00
N378   N     0.50149   0.74727   0.11255   0.00000  Uiso   1.00
N379   N     0.55819   0.94418   0.05858   0.00000  Uiso   1.00
N380   N     0.36337   0.70038   0.24632   0.00000  Uiso   1.00
O381   O     0.63102   0.91296   0.16905   0.00000  Uiso   1.00
O382   O     0.65143   0.90823   0.28667   0.00000  Uiso   1.00
O383   O     0.39075   0.90371   0.16282   0.00000  Uiso   1.00
O384   O     0.64823   0.84024   0.22253   0.00000  Uiso   1.00
O385   O     0.40796   0.83099   0.21631   0.00000  Uiso   1.00
O386   O     0.60925   0.76296   0.17051   0.00000  Uiso   1.00
O387   O     0.36898   0.75371   0.16428   0.00000  Uiso   1.00
O388   O     0.59204   0.83567   0.11703   0.00000  Uiso   1.00
O389   O     0.35177   0.82642   0.11080   0.00000  Uiso   1.00
O390   O     0.51905   0.70294   0.27682   0.00000  Uiso   1.00
Zn391  Zn    0.60453   0.83951   0.17082   0.00000  Uiso   1.00
Zn392  Zn    0.39547   0.82716   0.16251   0.00000  Uiso   1.00
C393   C     0.68101   0.93146   0.16461   0.00000  Uiso   1.00
C394   C     0.71992   0.84185   0.27885   0.00000  Uiso   1.00
C395   C     0.68774   0.98586   0.16174   0.00000  Uiso   1.00
C396   C     0.70222   0.83720   0.23723   0.00000  Uiso   1.00
C397   C     0.97551   0.68023   0.16354   0.00000  Uiso   1.00
C398   C     0.98438   0.73506   0.16578   0.00000  Uiso   1.00
C399   C     0.96455   0.83017   0.09630   0.00000  Uiso   1.00
C400   C     0.92891   0.75661   0.00338   0.00000  Uiso   1.00
C401   C     0.94500   0.82109   0.05559   0.00000  Uiso   1.00
C402   C     0.69651   0.87875   0.30119   0.00000  Uiso   1.00
C403   C     0.72056   0.88662   0.00645   0.00000  Uiso   1.00
C404   C     0.79980   0.83435   0.33109   0.00000  Uiso   1.00
C405   C     0.77270   0.86600   0.02117   0.00000  Uiso   1.00
C406   C     0.82460   0.77995   0.13284   0.00000  Uiso   1.00
C407   C     0.89383   0.90068   0.04960   0.00000  Uiso   1.00
C408   C     0.73416   0.73014   0.26083   0.00000  Uiso   1.00
C409   C     0.76683   0.81419   0.29623   0.00000  Uiso   1.00
C410   C     0.85670   0.81910   0.00892   0.00000  Uiso   1.00
C411   C     0.87421   0.77496   0.32327   0.00000  Uiso   1.00
C412   C     0.83581   0.74801   0.29281   0.00000  Uiso   1.00
C413   C     0.78077   0.76650   0.28048   0.00000  Uiso   1.00
C414   C     0.89716   0.84614   0.03837   0.00000  Uiso   1.00
C415   C     0.96290   0.77807   0.03714   0.00000  Uiso   1.00
H416   H     0.66758   0.75906   0.05007   0.00000  Uiso   1.00
H417   H     0.93262   0.99626   0.16529   0.00000  Uiso   1.00
H418   H     0.84343   0.87571   0.19424   0.00000  Uiso   1.00
H419   H     0.94337   0.72295   0.32312   0.00000  Uiso   1.00
H420   H     0.79058   0.87409   0.05109   0.00000  Uiso   1.00
H421   H     0.70123   0.91209   0.02446   0.00000  Uiso   1.00
H422   H     0.73056   0.66980   0.15977   0.00000  Uiso   1.00
H423   H     0.82592   0.69317   0.25224   0.00000  Uiso   1.00
H424   H     0.98914   0.91825   0.26082   0.00000  Uiso   1.00
N425   N     0.81160   0.81890   0.15695   0.00000  Uiso   1.00
N426   N     0.85507   0.84777   0.17638   0.00000  Uiso   1.00
N427   N     0.83483   0.74727   0.11255   0.00000  Uiso   1.00
N428   N     0.89152   0.94418   0.05858   0.00000  Uiso   1.00
N429   N     0.69670   0.70038   0.24632   0.00000  Uiso   1.00
O430   O     0.96435   0.91296   0.16905   0.00000  Uiso   1.00
O431   O     0.98476   0.90823   0.28667   0.00000  Uiso   1.00
O432   O     0.72408   0.90371   0.16282   0.00000  Uiso   1.00
O433   O     0.98157   0.84024   0.22253   0.00000  Uiso   1.00
O434   O     0.74130   0.83099   0.21631   0.00000  Uiso   1.00
O435   O     0.94258   0.76296   0.17051   0.00000  Uiso   1.00
O436   O     0.70231   0.75371   0.16428   0.00000  Uiso   1.00
O437   O     0.92537   0.83567   0.11703   0.00000  Uiso   1.00
O438   O     0.68510   0.82642   0.11080   0.00000  Uiso   1.00
O439   O     0.85238   0.70294   0.27682   0.00000  Uiso   1.00
Zn440  Zn    0.93786   0.83951   0.17082   0.00000  Uiso   1.00
Zn441  Zn    0.72881   0.82716   0.16251   0.00000  Uiso   1.00
C442   C     0.01434   0.26479   0.49794   0.00000  Uiso   1.00
C443   C     0.05325   0.17518   0.61219   0.00000  Uiso   1.00
C444   C     0.02107   0.31920   0.49507   0.00000  Uiso   1.00
C445   C     0.03555   0.17054   0.57057   0.00000  Uiso   1.00
C446   C     0.30885   0.01356   0.49687   0.00000  Uiso   1.00
C447   C     0.31772   0.06839   0.49911   0.00000  Uiso   1.00
C448   C     0.29788   0.16351   0.42964   0.00000  Uiso   1.00
C449   C     0.26224   0.08994   0.33671   0.00000  Uiso   1.00
C450   C     0.27834   0.15442   0.38892   0.00000  Uiso   1.00
C451   C     0.02985   0.21208   0.63452   0.00000  Uiso   1.00
C452   C     0.05390   0.21995   0.33979   0.00000  Uiso   1.00
C453   C     0.13313   0.16768   0.66443   0.00000  Uiso   1.00
C454   C     0.10603   0.19933   0.35451   0.00000  Uiso   1.00
C455   C     0.15794   0.11328   0.46617   0.00000  Uiso   1.00
C456   C     0.22716   0.23401   0.38294   0.00000  Uiso   1.00
C457   C     0.06750   0.06347   0.59417   0.00000  Uiso   1.00
C458   C     0.10016   0.14753   0.62957   0.00000  Uiso   1.00
C459   C     0.19003   0.15243   0.34225   0.00000  Uiso   1.00
C460   C     0.20754   0.10830   0.65661   0.00000  Uiso   1.00
C461   C     0.16914   0.08135   0.62614   0.00000  Uiso   1.00
C462   C     0.11410   0.09983   0.61382   0.00000  Uiso   1.00
C463   C     0.23049   0.17948   0.37171   0.00000  Uiso   1.00
C464   C     0.29623   0.11141   0.37047   0.00000  Uiso   1.00
H465   H     0.00091   0.09239   0.38340   0.00000  Uiso   1.00
H466   H     0.26595   0.32960   0.49863   0.00000  Uiso   1.00
H467   H     0.17677   0.20905   0.52758   0.00000  Uiso   1.00
H468   H     0.27671   0.05628   0.65645   0.00000  Uiso   1.00
H469   H     0.12391   0.20742   0.38442   0.00000  Uiso   1.00
H470   H     0.03457   0.24543   0.35780   0.00000  Uiso   1.00
H471   H     0.06389   0.00314   0.49310   0.00000  Uiso   1.00
H472   H     0.15925   0.02650   0.58557   0.00000  Uiso   1.00
H473   H     0.32248   0.25158   0.59415   0.00000  Uiso   1.00
N474   N     0.14493   0.15223   0.49028   0.00000  Uiso   1.00
N475   N     0.18840   0.18110   0.50972   0.00000  Uiso   1.00
N476   N     0.16816   0.08061   0.44588   0.00000  Uiso   1.00
N477   N     0.22486   0.27751   0.39191   0.00000  Uiso   1.00
N478   N     0.03004   0.03371   0.57965   0.00000  Uiso   1.00
O479   O     0.29769   0.24629   0.50238   0.00000  Uiso   1.00
O480   O     0.31809   0.24156   0.62000   0.00000  Uiso   1.00
O481   O     0.05742   0.23704   0.49616   0.00000  Uiso   1.00
O482   O     0.31490   0.17358   0.55587   0.00000  Uiso   1.00
O483   O     0.07463   0.16433   0.54964   0.00000  Uiso   1.00
O484   O     0.27592   0.09629   0.50384   0.00000  Uiso   1.00
O485   O     0.03565   0.08704   0.49762   0.00000  Uiso   1.00
O486   O     0.25870   0.16901   0.45036   0.00000  Uiso   1.00
O487   O     0.01843   0.15976   0.44413   0.00000  Uiso   1.00
O488   O     0.18572   0.03627   0.61016   0.00000  Uiso   1.00
Zn489  Zn    0.27119   0.17284   0.50416   0.00000  Uiso   1.00
Zn490  Zn    0.06214   0.16049   0.49584   0.00000  Uiso   1.00
C491   C     0.34768   0.26479   0.49794   0.00000  Uiso   1.00
C492   C     0.38659   0.17518   0.61219   0.00000  Uiso   1.00
C493   C     0.35441   0.31920   0.49507   0.00000  Uiso   1.00
C494   C     0.36888   0.17054   0.57057   0.00000  Uiso   1.00
C495   C     0.64218   0.01356   0.49687   0.00000  Uiso   1.00
C496   C     0.65105   0.06839   0.49911   0.00000  Uiso   1.00
C497   C     0.63122   0.16351   0.42964   0.00000  Uiso   1.00
C498   C     0.59557   0.08994   0.33671   0.00000  Uiso   1.00
C499   C     0.61167   0.15442   0.38892   0.00000  Uiso   1.00
C500   C     0.36318   0.21208   0.63452   0.00000  Uiso   1.00
C501   C     0.38723   0.21995   0.33979   0.00000  Uiso   1.00
C502   C     0.46647   0.16768   0.66443   0.00000  Uiso   1.00
C503   C     0.43937   0.19933   0.35451   0.00000  Uiso   1.00
C504   C     0.49127   0.11328   0.46617   0.00000  Uiso   1.00
C505   C     0.56049   0.23401   0.38294   0.00000  Uiso   1.00
C506   C     0.40083   0.06347   0.59417   0.00000  Uiso   1.00
C507   C     0.43349   0.14753   0.62957   0.00000  Uiso   1.00
C508   C     0.52336   0.15243   0.34225   0.00000  Uiso   1.00
C509   C     0.54088   0.10830   0.65661   0.00000  Uiso   1.00
C510   C     0.50247   0.08135   0.62614   0.00000  Uiso   1.00
C511   C     0.44743   0.09983   0.61382   0.00000  Uiso   1.00
C512   C     0.56383   0.17948   0.37171   0.00000  Uiso   1.00
C513   C     0.62956   0.11141   0.37047   0.00000  Uiso   1.00
H514   H     0.33424   0.09239   0.38340   0.00000  Uiso   1.00
H515   H     0.59929   0.32960   0.49863   0.00000  Uiso   1.00
H516   H     0.51010   0.20905   0.52758   0.00000  Uiso   1.00
H517   H     0.61004   0.05628   0.65645   0.00000  Uiso   1.00
H518   H     0.45725   0.20742   0.38442   0.00000  Uiso   1.00
H519   H     0.36790   0.24543   0.35780   0.00000  Uiso   1.00
H520   H     0.39722   0.00314   0.49310   0.00000  Uiso   1.00
H521   H     0.49258   0.02650   0.58557   0.00000  Uiso   1.00
H522   H     0.65581   0.25158   0.59415   0.00000  Uiso   1.00
N523   N     0.47827   0.15223   0.49028   0.00000  Uiso   1.00
N524   N     0.52173   0.18110   0.50972   0.00000  Uiso   1.00
N525   N     0.50149   0.08061   0.44588   0.00000  Uiso   1.00
N526   N     0.55819   0.27751   0.39191   0.00000  Uiso   1.00
N527   N     0.36337   0.03371   0.57965   0.00000  Uiso   1.00
O528   O     0.63102   0.24629   0.50238   0.00000  Uiso   1.00
O529   O     0.65143   0.24156   0.62000   0.00000  Uiso   1.00
O530   O     0.39075   0.23704   0.49616   0.00000  Uiso   1.00
O531   O     0.64823   0.17358   0.55587   0.00000  Uiso   1.00
O532   O     0.40796   0.16433   0.54964   0.00000  Uiso   1.00
O533   O     0.60925   0.09629   0.50384   0.00000  Uiso   1.00
O534   O     0.36898   0.08704   0.49762   0.00000  Uiso   1.00
O535   O     0.59204   0.16901   0.45036   0.00000  Uiso   1.00
O536   O     0.35177   0.15976   0.44413   0.00000  Uiso   1.00
O537   O     0.51905   0.03627   0.61016   0.00000  Uiso   1.00
Zn538  Zn    0.60453   0.17284   0.50416   0.00000  Uiso   1.00
Zn539  Zn    0.39547   0.16049   0.49584   0.00000  Uiso   1.00
C540   C     0.68101   0.26479   0.49794   0.00000  Uiso   1.00
C541   C     0.71992   0.17518   0.61219   0.00000  Uiso   1.00
C542   C     0.68774   0.31920   0.49507   0.00000  Uiso   1.00
C543   C     0.70222   0.17054   0.57057   0.00000  Uiso   1.00
C544   C     0.97551   0.01356   0.49687   0.00000  Uiso   1.00
C545   C     0.98438   0.06839   0.49911   0.00000  Uiso   1.00
C546   C     0.96455   0.16351   0.42964   0.00000  Uiso   1.00
C547   C     0.92891   0.08994   0.33671   0.00000  Uiso   1.00
C548   C     0.94500   0.15442   0.38892   0.00000  Uiso   1.00
C549   C     0.69651   0.21208   0.63452   0.00000  Uiso   1.00
C550   C     0.72056   0.21995   0.33979   0.00000  Uiso   1.00
C551   C     0.79980   0.16768   0.66443   0.00000  Uiso   1.00
C552   C     0.77270   0.19933   0.35451   0.00000  Uiso   1.00
C553   C     0.82460   0.11328   0.46617   0.00000  Uiso   1.00
C554   C     0.89383   0.23401   0.38294   0.00000  Uiso   1.00
C555   C     0.73416   0.06347   0.59417   0.00000  Uiso   1.00
C556   C     0.76683   0.14753   0.62957   0.00000  Uiso   1.00
C557   C     0.85670   0.15243   0.34225   0.00000  Uiso   1.00
C558   C     0.87421   0.10830   0.65661   0.00000  Uiso   1.00
C559   C     0.83581   0.08135   0.62614   0.00000  Uiso   1.00
C560   C     0.78077   0.09983   0.61382   0.00000  Uiso   1.00
C561   C     0.89716   0.17948   0.37171   0.00000  Uiso   1.00
C562   C     0.96290   0.11141   0.37047   0.00000  Uiso   1.00
H563   H     0.66758   0.09239   0.38340   0.00000  Uiso   1.00
H564   H     0.93262   0.32960   0.49863   0.00000  Uiso   1.00
H565   H     0.84343   0.20905   0.52758   0.00000  Uiso   1.00
H566   H     0.94337   0.05628   0.65645   0.00000  Uiso   1.00
H567   H     0.79058   0.20742   0.38442   0.00000  Uiso   1.00
H568   H     0.70123   0.24543   0.35780   0.00000  Uiso   1.00
H569   H     0.73056   0.00314   0.49310   0.00000  Uiso   1.00
H570   H     0.82592   0.02650   0.58557   0.00000  Uiso   1.00
H571   H     0.98914   0.25158   0.59415   0.00000  Uiso   1.00
N572   N     0.81160   0.15223   0.49028   0.00000  Uiso   1.00
N573   N     0.85507   0.18110   0.50972   0.00000  Uiso   1.00
N574   N     0.83483   0.08061   0.44588   0.00000  Uiso   1.00
N575   N     0.89152   0.27751   0.39191   0.00000  Uiso   1.00
N576   N     0.69670   0.03371   0.57965   0.00000  Uiso   1.00
O577   O     0.96435   0.24629   0.50238   0.00000  Uiso   1.00
O578   O     0.98476   0.24156   0.62000   0.00000  Uiso   1.00
O579   O     0.72408   0.23704   0.49616   0.00000  Uiso   1.00
O580   O     0.98157   0.17358   0.55587   0.00000  Uiso   1.00
O581   O     0.74130   0.16433   0.54964   0.00000  Uiso   1.00
O582   O     0.94258   0.09629   0.50384   0.00000  Uiso   1.00
O583   O     0.70231   0.08704   0.49762   0.00000  Uiso   1.00
O584   O     0.92537   0.16901   0.45036   0.00000  Uiso   1.00
O585   O     0.68510   0.15976   0.44413   0.00000  Uiso   1.00
O586   O     0.85238   0.03627   0.61016   0.00000  Uiso   1.00
Zn587  Zn    0.93786   0.17284   0.50416   0.00000  Uiso   1.00
Zn588  Zn    0.72881   0.16049   0.49584   0.00000  Uiso   1.00
C589   C     0.01434   0.59812   0.49794   0.00000  Uiso   1.00
C590   C     0.05325   0.50851   0.61219   0.00000  Uiso   1.00
C591   C     0.02107   0.65253   0.49507   0.00000  Uiso   1.00
C592   C     0.03555   0.50387   0.57057   0.00000  Uiso   1.00
C593   C     0.30885   0.34689   0.49687   0.00000  Uiso   1.00
C594   C     0.31772   0.40173   0.49911   0.00000  Uiso   1.00
C595   C     0.29788   0.49684   0.42964   0.00000  Uiso   1.00
C596   C     0.26224   0.42327   0.33671   0.00000  Uiso   1.00
C597   C     0.27834   0.48776   0.38892   0.00000  Uiso   1.00
C598   C     0.02985   0.54541   0.63452   0.00000  Uiso   1.00
C599   C     0.05390   0.55328   0.33979   0.00000  Uiso   1.00
C600   C     0.13313   0.50102   0.66443   0.00000  Uiso   1.00
C601   C     0.10603   0.53266   0.35451   0.00000  Uiso   1.00
C602   C     0.15794   0.44662   0.46617   0.00000  Uiso   1.00
C603   C     0.22716   0.56735   0.38294   0.00000  Uiso   1.00
C604   C     0.06750   0.39680   0.59417   0.00000  Uiso   1.00
C605   C     0.10016   0.48086   0.62957   0.00000  Uiso   1.00
C606   C     0.19003   0.48576   0.34225   0.00000  Uiso   1.00
C607   C     0.20754   0.44163   0.65661   0.00000  Uiso   1.00
C608   C     0.16914   0.41468   0.62614   0.00000  Uiso   1.00
C609   C     0.11410   0.43317   0.61382   0.00000  Uiso   1.00
C610   C     0.23049   0.51281   0.37171   0.00000  Uiso   1.00
C611   C     0.29623   0.44474   0.37047   0.00000  Uiso   1.00
H612   H     0.00091   0.42573   0.38340   0.00000  Uiso   1.00
H613   H     0.26595   0.66293   0.49863   0.00000  Uiso   1.00
H614   H     0.17677   0.54238   0.52758   0.00000  Uiso   1.00
H615   H     0.27671   0.38962   0.65645   0.00000  Uiso   1.00
H616   H     0.12391   0.54075   0.38442   0.00000  Uiso   1.00
H617   H     0.03457   0.57876   0.35780   0.00000  Uiso   1.00
H618   H     0.06389   0.33647   0.49310   0.00000  Uiso   1.00
H619   H     0.15925   0.35984   0.58557   0.00000  Uiso   1.00
H620   H     0.32248   0.58492   0.59415   0.00000  Uiso   1.00
N621   N     0.14493   0.48556   0.49028   0.00000  Uiso   1.00
N622   N     0.18840   0.51444   0.50972   0.00000  Uiso   1.00
N623   N     0.16816   0.41394   0.44588   0.00000  Uiso   1.00
N624   N     0.22486   0.61084   0.39191   0.00000  Uiso   1.00
N625   N     0.03004   0.36704   0.57965   0.00000  Uiso   1.00
O626   O     0.29769   0.57963   0.50238   0.00000  Uiso   1.00
O627   O     0.31809   0.57489   0.62000   0.00000  Uiso   1.00
O628   O     0.05742   0.57038   0.49616   0.00000  Uiso   1.00
O629   O     0.31490   0.50691   0.55587   0.00000  Uiso   1.00
O630   O     0.07463   0.49766   0.54964   0.00000  Uiso   1.00
O631   O     0.27592   0.42962   0.50384   0.00000  Uiso   1.00
O632   O     0.03565   0.42037   0.49762   0.00000  Uiso   1.00
O633   O     0.25870   0.50234   0.45036   0.00000  Uiso   1.00
O634   O     0.01843   0.49309   0.44413   0.00000  Uiso   1.00
O635   O     0.18572   0.36960   0.61016   0.00000  Uiso   1.00
Zn636  Zn    0.27119   0.50618   0.50416   0.00000  Uiso   1.00
Zn637  Zn    0.06214   0.49382   0.49584   0.00000  Uiso   1.00
C638   C     0.34768   0.59812   0.49794   0.00000  Uiso   1.00
C639   C     0.38659   0.50851   0.61219   0.00000  Uiso   1.00
C640   C     0.35441   0.65253   0.49507   0.00000  Uiso   1.00
C641   C     0.36888   0.50387   0.57057   0.00000  Uiso   1.00
C642   C     0.64218   0.34689   0.49687   0.00000  Uiso   1.00
C643   C     0.65105   0.40173   0.49911   0.00000  Uiso   1.00
C644   C     0.63122   0.49684   0.42964   0.00000  Uiso   1.00
C645   C     0.59557   0.42327   0.33671   0.00000  Uiso   1.00
C646   C     0.61167   0.48776   0.38892   0.00000  Uiso   1.00
C647   C     0.36318   0.54541   0.63452   0.00000  Uiso   1.00
C648   C     0.38723   0.55328   0.33979   0.00000  Uiso   1.00
C649   C     0.46647   0.50102   0.66443   0.00000  Uiso   1.00
C650   C     0.43937   0.53266   0.35451   0.00000  Uiso   1.00
C651   C     0.49127   0.44662   0.46617   0.00000  Uiso   1.00
C652   C     0.56049   0.56735   0.38294   0.00000  Uiso   1.00
C653   C     0.40083   0.39680   0.59417   0.00000  Uiso   1.00
C654   C     0.43349   0.48086   0.62957   0.00000  Uiso   1.00
C655   C     0.52336   0.48576   0.34225   0.00000  Uiso   1.00
C656   C     0.54088   0.44163   0.65661   0.00000  Uiso   1.00
C657   C     0.50247   0.41468   0.62614   0.00000  Uiso   1.00
C658   C     0.44743   0.43317   0.61382   0.00000  Uiso   1.00
C659   C     0.56383   0.51281   0.37171   0.00000  Uiso   1.00
C660   C     0.62956   0.44474   0.37047   0.00000  Uiso   1.00
H661   H     0.33424   0.42573   0.38340   0.00000  Uiso   1.00
H662   H     0.59929   0.66293   0.49863   0.00000  Uiso   1.00
H663   H     0.51010   0.54238   0.52758   0.00000  Uiso   1.00
H664   H     0.61004   0.38962   0.65645   0.00000  Uiso   1.00
H665   H     0.45725   0.54075   0.38442   0.00000  Uiso   1.00
H666   H     0.36790   0.57876   0.35780   0.00000  Uiso   1.00
H667   H     0.39722   0.33647   0.49310   0.00000  Uiso   1.00
H668   H     0.49258   0.35984   0.58557   0.00000  Uiso   1.00
H669   H     0.65581   0.58492   0.59415   0.00000  Uiso   1.00
N670   N     0.47827   0.48556   0.49028   0.00000  Uiso   1.00
N671   N     0.52173   0.51444   0.50972   0.00000  Uiso   1.00
N672   N     0.50149   0.41394   0.44588   0.00000  Uiso   1.00
N673   N     0.55819   0.61084   0.39191   0.00000  Uiso   1.00
N674   N     0.36337   0.36704   0.57965   0.00000  Uiso   1.00
O675   O     0.63102   0.57963   0.50238   0.00000  Uiso   1.00
O676   O     0.65143   0.57489   0.62000   0.00000  Uiso   1.00
O677   O     0.39075   0.57038   0.49616   0.00000  Uiso   1.00
O678   O     0.64823   0.50691   0.55587   0.00000  Uiso   1.00
O679   O     0.40796   0.49766   0.54964   0.00000  Uiso   1.00
O680   O     0.60925   0.42962   0.50384   0.00000  Uiso   1.00
O681   O     0.36898   0.42037   0.49762   0.00000  Uiso   1.00
O682   O     0.59204   0.50234   0.45036   0.00000  Uiso   1.00
O683   O     0.35177   0.49309   0.44413   0.00000  Uiso   1.00
O684   O     0.51905   0.36960   0.61016   0.00000  Uiso   1.00
Zn685  Zn    0.60453   0.50618   0.50416   0.00000  Uiso   1.00
Zn686  Zn    0.39547   0.49382   0.49584   0.00000  Uiso   1.00
C687   C     0.68101   0.59812   0.49794   0.00000  Uiso   1.00
C688   C     0.71992   0.50851   0.61219   0.00000  Uiso   1.00
C689   C     0.68774   0.65253   0.49507   0.00000  Uiso   1.00
C690   C     0.70222   0.50387   0.57057   0.00000  Uiso   1.00
C691   C     0.97551   0.34689   0.49687   0.00000  Uiso   1.00
C692   C     0.98438   0.40173   0.49911   0.00000  Uiso   1.00
C693   C     0.96455   0.49684   0.42964   0.00000  Uiso   1.00
C694   C     0.92891   0.42327   0.33671   0.00000  Uiso   1.00
C695   C     0.94500   0.48776   0.38892   0.00000  Uiso   1.00
C696   C     0.69651   0.54541   0.63452   0.00000  Uiso   1.00
C697   C     0.72056   0.55328   0.33979   0.00000  Uiso   1.00
C698   C     0.79980   0.50102   0.66443   0.00000  Uiso   1.00
C699   C     0.77270   0.53266   0.35451   0.00000  Uiso   1.00
C700   C     0.82460   0.44662   0.46617   0.00000  Uiso   1.00
C701   C     0.89383   0.56735   0.38294   0.00000  Uiso   1.00
C702   C     0.73416   0.39680   0.59417   0.00000  Uiso   1.00
C703   C     0.76683   0.48086   0.62957   0.00000  Uiso   1.00
C704   C     0.85670   0.48576   0.34225   0.00000  Uiso   1.00
C705   C     0.87421   0.44163   0.65661   0.00000  Uiso   1.00
C706   C     0.83581   0.41468   0.62614   0.00000  Uiso   1.00
C707   C     0.78077   0.43317   0.61382   0.00000  Uiso   1.00
C708   C     0.89716   0.51281   0.37171   0.00000  Uiso   1.00
C709   C     0.96290   0.44474   0.37047   0.00000  Uiso   1.00
H710   H     0.66758   0.42573   0.38340   0.00000  Uiso   1.00
H711   H     0.93262   0.66293   0.49863   0.00000  Uiso   1.00
H712   H     0.84343   0.54238   0.52758   0.00000  Uiso   1.00
H713   H     0.94337   0.38962   0.65645   0.00000  Uiso   1.00
H714   H     0.79058   0.54075   0.38442   0.00000  Uiso   1.00
H715   H     0.70123   0.57876   0.35780   0.00000  Uiso   1.00
H716   H     0.73056   0.33647   0.49310   0.00000  Uiso   1.00
H717   H     0.82592   0.35984   0.58557   0.00000  Uiso   1.00
H718   H     0.98914   0.58492   0.59415   0.00000  Uiso   1.00
N719   N     0.81160   0.48556   0.49028   0.00000  Uiso   1.00
N720   N     0.85507   0.51444   0.50972   0.00000  Uiso   1.00
N721   N     0.83483   0.41394   0.44588   0.00000  Uiso   1.00
N722   N     0.89152   0.61084   0.39191   0.00000  Uiso   1.00
N723   N     0.69670   0.36704   0.57965   0.00000  Uiso   1.00
O724   O     0.96435   0.57963   0.50238   0.00000  Uiso   1.00
O725   O     0.98476   0.57489   0.62000   0.00000  Uiso   1.00
O726   O     0.72408   0.57038   0.49616   0.00000  Uiso   1.00
O727   O     0.98157   0.50691   0.55587   0.00000  Uiso   1.00
O728   O     0.74130   0.49766   0.54964   0.00000  Uiso   1.00
O729   O     0.94258   0.42962   0.50384   0.00000  Uiso   1.00
O730   O     0.70231   0.42037   0.49762   0.00000  Uiso   1.00
O731   O     0.92537   0.50234   0.45036   0.00000  Uiso   1.00
O732   O     0.68510   0.49309   0.44413   0.00000  Uiso   1.00
O733   O     0.85238   0.36960   0.61016   0.00000  Uiso   1.00
Zn734  Zn    0.93786   0.50618   0.50416   0.00000  Uiso   1.00
Zn735  Zn    0.72881   0.49382   0.49584   0.00000  Uiso   1.00
C736   C     0.01434   0.93146   0.49794   0.00000  Uiso   1.00
C737   C     0.05325   0.84185   0.61219   0.00000  Uiso   1.00
C738   C     0.02107   0.98586   0.49507   0.00000  Uiso   1.00
C739   C     0.03555   0.83720   0.57057   0.00000  Uiso   1.00
C740   C     0.30885   0.68023   0.49687   0.00000  Uiso   1.00
C741   C     0.31772   0.73506   0.49911   0.00000  Uiso   1.00
C742   C     0.29788   0.83017   0.42964   0.00000  Uiso   1.00
C743   C     0.26224   0.75661   0.33671   0.00000  Uiso   1.00
C744   C     0.27834   0.82109   0.38892   0.00000  Uiso   1.00
C745   C     0.02985   0.87875   0.63452   0.00000  Uiso   1.00
C746   C     0.05390   0.88662   0.33979   0.00000  Uiso   1.00
C747   C     0.13313   0.83435   0.66443   0.00000  Uiso   1.00
C748   C     0.10603   0.86600   0.35451   0.00000  Uiso   1.00
C749   C     0.15794   0.77995   0.46617   0.00000  Uiso   1.00
C750   C     0.22716   0.90068   0.38294   0.00000  Uiso   1.00
C751   C     0.06750   0.73014   0.59417   0.00000  Uiso   1.00
C752   C     0.10016   0.81419   0.62957   0.00000  Uiso   1.00
C753   C     0.19003   0.81910   0.34225   0.00000  Uiso   1.00
C754   C     0.20754   0.77496   0.65661   0.00000  Uiso   1.00
C755   C     0.16914   0.74801   0.62614   0.00000  Uiso   1.00
C756   C     0.11410   0.76650   0.61382   0.00000  Uiso   1.00
C757   C     0.23049   0.84614   0.37171   0.00000  Uiso   1.00
C758   C     0.29623   0.77807   0.37047   0.00000  Uiso   1.00
H759   H     0.00091   0.75906   0.38340   0.00000  Uiso   1.00
H760   H     0.26595   0.99626   0.49863   0.00000  Uiso   1.00
H761   H     0.17677   0.87571   0.52758   0.00000  Uiso   1.00
H762   H     0.27671   0.72295   0.65645   0.00000  Uiso   1.00
H763   H     0.12391   0.87409   0.38442   0.00000  Uiso   1.00
H764   H     0.03457   0.91209   0.35780   0.00000  Uiso   1.00
H765   H     0.06389   0.66980   0.49310   0.00000  Uiso   1.00
H766   H     0.15925   0.69317   0.58557   0.00000  Uiso   1.00
H767   H     0.32248   0.91825   0.59415   0.00000  Uiso   1.00
N768   N     0.14493   0.81890   0.49028   0.00000  Uiso   1.00
N769   N     0.18840   0.84777   0.50972   0.00000  Uiso   1.00
N770   N     0.16816   0.74727   0.44588   0.00000  Uiso   1.00
N771   N     0.22486   0.94418   0.39191   0.00000  Uiso   1.00
N772   N     0.03004   0.70038   0.57965   0.00000  Uiso   1.00
O773   O     0.29769   0.91296   0.50238   0.00000  Uiso   1.00
O774   O     0.31809   0.90823   0.62000   0.00000  Uiso   1.00
O775   O     0.05742   0.90371   0.49616   0.00000  Uiso   1.00
O776   O     0.31490   0.84024   0.55587   0.00000  Uiso   1.00
O777   O     0.07463   0.83099   0.54964   0.00000  Uiso   1.00
O778   O     0.27592   0.76296   0.50384   0.00000  Uiso   1.00
O779   O     0.03565   0.75371   0.49762   0.00000  Uiso   1.00
O780   O     0.25870   0.83567   0.45036   0.00000  Uiso   1.00
O781   O     0.01843   0.82642   0.44413   0.00000  Uiso   1.00
O782   O     0.18572   0.70294   0.61016   0.00000  Uiso   1.00
Zn783  Zn    0.27119   0.83951   0.50416   0.00000  Uiso   1.00
Zn784  Zn    0.06214   0.82716   0.49584   0.00000  Uiso   1.00
C785   C     0.34768   0.93146   0.49794   0.00000  Uiso   1.00
C786   C     0.38659   0.84185   0.61219   0.00000  Uiso   1.00
C787   C     0.35441   0.98586   0.49507   0.00000  Uiso   1.00
C788   C     0.36888   0.83720   0.57057   0.00000  Uiso   1.00
C789   C     0.64218   0.68023   0.49687   0.00000  Uiso   1.00
C790   C     0.65105   0.73506   0.49911   0.00000  Uiso   1.00
C791   C     0.63122   0.83017   0.42964   0.00000  Uiso   1.00
C792   C     0.59557   0.75661   0.33671   0.00000  Uiso   1.00
C793   C     0.61167   0.82109   0.38892   0.00000  Uiso   1.00
C794   C     0.36318   0.87875   0.63452   0.00000  Uiso   1.00
C795   C     0.38723   0.88662   0.33979   0.00000  Uiso   1.00
C796   C     0.46647   0.83435   0.66443   0.00000  Uiso   1.00
C797   C     0.43937   0.86600   0.35451   0.00000  Uiso   1.00
C798   C     0.49127   0.77995   0.46617   0.00000  Uiso   1.00
C799   C     0.56049   0.90068   0.38294   0.00000  Uiso   1.00
C800   C     0.40083   0.73014   0.59417   0.00000  Uiso   1.00
C801   C     0.43349   0.81419   0.62957   0.00000  Uiso   1.00
C802   C     0.52336   0.81910   0.34225   0.00000  Uiso   1.00
C803   C     0.54088   0.77496   0.65661   0.00000  Uiso   1.00
C804   C     0.50247   0.74801   0.62614   0.00000  Uiso   1.00
C805   C     0.44743   0.76650   0.61382   0.00000  Uiso   1.00
C806   C     0.56383   0.84614   0.37171   0.00000  Uiso   1.00
C807   C     0.62956   0.77807   0.37047   0.00000  Uiso   1.00
H808   H     0.33424   0.75906   0.38340   0.00000  Uiso   1.00
H809   H     0.59929   0.99626   0.49863   0.00000  Uiso   1.00
H810   H     0.51010   0.87571   0.52758   0.00000  Uiso   1.00
H811   H     0.61004   0.72295   0.65645   0.00000  Uiso   1.00
H812   H     0.45725   0.87409   0.38442   0.00000  Uiso   1.00
H813   H     0.36790   0.91209   0.35780   0.00000  Uiso   1.00
H814   H     0.39722   0.66980   0.49310   0.00000  Uiso   1.00
H815   H     0.49258   0.69317   0.58557   0.00000  Uiso   1.00
H816   H     0.65581   0.91825   0.59415   0.00000  Uiso   1.00
N817   N     0.47827   0.81890   0.49028   0.00000  Uiso   1.00
N818   N     0.52173   0.84777   0.50972   0.00000  Uiso   1.00
N819   N     0.50149   0.74727   0.44588   0.00000  Uiso   1.00
N820   N     0.55819   0.94418   0.39191   0.00000  Uiso   1.00
N821   N     0.36337   0.70038   0.57965   0.00000  Uiso   1.00
O822   O     0.63102   0.91296   0.50238   0.00000  Uiso   1.00
O823   O     0.65143   0.90823   0.62000   0.00000  Uiso   1.00
O824   O     0.39075   0.90371   0.49616   0.00000  Uiso   1.00
O825   O     0.64823   0.84024   0.55587   0.00000  Uiso   1.00
O826   O     0.40796   0.83099   0.54964   0.00000  Uiso   1.00
O827   O     0.60925   0.76296   0.50384   0.00000  Uiso   1.00
O828   O     0.36898   0.75371   0.49762   0.00000  Uiso   1.00
O829   O     0.59204   0.83567   0.45036   0.00000  Uiso   1.00
O830   O     0.35177   0.82642   0.44413   0.00000  Uiso   1.00
O831   O     0.51905   0.70294   0.61016   0.00000  Uiso   1.00
Zn832  Zn    0.60453   0.83951   0.50416   0.00000  Uiso   1.00
Zn833  Zn    0.39547   0.82716   0.49584   0.00000  Uiso   1.00
C834   C     0.68101   0.93146   0.49794   0.00000  Uiso   1.00
C835   C     0.71992   0.84185   0.61219   0.00000  Uiso   1.00
C836   C     0.68774   0.98586   0.49507   0.00000  Uiso   1.00
C837   C     0.70222   0.83720   0.57057   0.00000  Uiso   1.00
C838   C     0.97551   0.68023   0.49687   0.00000  Uiso   1.00
C839   C     0.98438   0.73506   0.49911   0.00000  Uiso   1.00
C840   C     0.96455   0.83017   0.42964   0.00000  Uiso   1.00
C841   C     0.92891   0.75661   0.33671   0.00000  Uiso   1.00
C842   C     0.94500   0.82109   0.38892   0.00000  Uiso   1.00
C843   C     0.69651   0.87875   0.63452   0.00000  Uiso   1.00
C844   C     0.72056   0.88662   0.33979   0.00000  Uiso   1.00
C845   C     0.79980   0.83435   0.66443   0.00000  Uiso   1.00
C846   C     0.77270   0.86600   0.35451   0.00000  Uiso   1.00
C847   C     0.82460   0.77995   0.46617   0.00000  Uiso   1.00
C848   C     0.89383   0.90068   0.38294   0.00000  Uiso   1.00
C849   C     0.73416   0.73014   0.59417   0.00000  Uiso   1.00
C850   C     0.76683   0.81419   0.62957   0.00000  Uiso   1.00
C851   C     0.85670   0.81910   0.34225   0.00000  Uiso   1.00
C852   C     0.87421   0.77496   0.65661   0.00000  Uiso   1.00
C853   C     0.83581   0.74801   0.62614   0.00000  Uiso   1.00
C854   C     0.78077   0.76650   0.61382   0.00000  Uiso   1.00
C855   C     0.89716   0.84614   0.37171   0.00000  Uiso   1.00
C856   C     0.96290   0.77807   0.37047   0.00000  Uiso   1.00
H857   H     0.66758   0.75906   0.38340   0.00000  Uiso   1.00
H858   H     0.93262   0.99626   0.49863   0.00000  Uiso   1.00
H859   H     0.84343   0.87571   0.52758   0.00000  Uiso   1.00
H860   H     0.94337   0.72295   0.65645   0.00000  Uiso   1.00
H861   H     0.79058   0.87409   0.38442   0.00000  Uiso   1.00
H862   H     0.70123   0.91209   0.35780   0.00000  Uiso   1.00
H863   H     0.73056   0.66980   0.49310   0.00000  Uiso   1.00
H864   H     0.82592   0.69317   0.58557   0.00000  Uiso   1.00
H865   H     0.98914   0.91825   0.59415   0.00000  Uiso   1.00
N866   N     0.81160   0.81890   0.49028   0.00000  Uiso   1.00
N867   N     0.85507   0.84777   0.50972   0.00000  Uiso   1.00
N868   N     0.83483   0.74727   0.44588   0.00000  Uiso   1.00
N869   N     0.89152   0.94418   0.39191   0.00000  Uiso   1.00
N870   N     0.69670   0.70038   0.57965   0.00000  Uiso   1.00
O871   O     0.96435   0.91296   0.50238   0.00000  Uiso   1.00
O872   O     0.98476   0.90823   0.62000   0.00000  Uiso   1.00
O873   O     0.72408   0.90371   0.49616   0.00000  Uiso   1.00
O874   O     0.98157   0.84024   0.55587   0.00000  Uiso   1.00
O875   O     0.74130   0.83099   0.54964   0.00000  Uiso   1.00
O876   O     0.94258   0.76296   0.50384   0.00000  Uiso   1.00
O877   O     0.70231   0.75371   0.49762   0.00000  Uiso   1.00
O878   O     0.92537   0.83567   0.45036   0.00000  Uiso   1.00
O879   O     0.68510   0.82642   0.44413   0.00000  Uiso   1.00
O880   O     0.85238   0.70294   0.61016   0.00000  Uiso   1.00
Zn881  Zn    0.93786   0.83951   0.50416   0.00000  Uiso   1.00
Zn882  Zn    0.72881   0.82716   0.49584   0.00000  Uiso   1.00
C883   C     0.01434   0.26479   0.83127   0.00000  Uiso   1.00
C884   C     0.05325   0.17518   0.94552   0.00000  Uiso   1.00
C885   C     0.02107   0.31920   0.82840   0.00000  Uiso   1.00
C886   C     0.03555   0.17054   0.90390   0.00000  Uiso   1.00
C887   C     0.30885   0.01356   0.83021   0.00000  Uiso   1.00
C888   C     0.31772   0.06839   0.83244   0.00000  Uiso   1.00
C889   C     0.29788   0.16351   0.76297   0.00000  Uiso   1.00
C890   C     0.26224   0.08994   0.67004   0.00000  Uiso   1.00
C891   C     0.27834   0.15442   0.72225   0.00000  Uiso   1.00
C892   C     0.02985   0.21208   0.96785   0.00000  Uiso   1.00
C893   C     0.05390   0.21995   0.67312   0.00000  Uiso   1.00
C894   C     0.13313   0.16768   0.99776   0.00000  Uiso   1.00
C895   C     0.10603   0.19933   0.68784   0.00000  Uiso   1.00
C896   C     0.15794   0.11328   0.79950   0.00000  Uiso   1.00
C897   C     0.22716   0.23401   0.71627   0.00000  Uiso   1.00
C898   C     0.06750   0.06347   0.92750   0.00000  Uiso   1.00
C899   C     0.10016   0.14753   0.96290   0.00000  Uiso   1.00
C900   C     0.19003   0.15243   0.67559   0.00000  Uiso   1.00
C901   C     0.20754   0.10830   0.98994   0.00000  Uiso   1.00
C902   C     0.16914   0.08135   0.95947   0.00000  Uiso   1.00
C903   C     0.11410   0.09983   0.94715   0.00000  Uiso   1.00
C904   C     0.23049   0.17948   0.70504   0.00000  Uiso   1.00
C905   C     0.29623   0.11141   0.70381   0.00000  Uiso   1.00
H906   H     0.00091   0.09239   0.71674   0.00000  Uiso   1.00
H907   H     0.26595   0.32960   0.83196   0.00000  Uiso   1.00
H908   H     0.17677   0.20905   0.86091   0.00000  Uiso   1.00
H909   H     0.27671   0.05628   0.98978   0.00000  Uiso   1.00
H910   H     0.12391   0.20742   0.71776   0.00000  Uiso   1.00
H911   H     0.03457   0.24543   0.69113   0.00000  Uiso   1.00
H912   H     0.06389   0.00314   0.82643   0.00000  Uiso   1.00
H913   H     0.15925   0.02650   0.91890   0.00000  Uiso   1.00
H914   H     0.32248   0.25158   0.92748   0.00000  Uiso   1.00
N915   N     0.14493   0.15223   0.82362   0.00000  Uiso   1.00
N916   N     0.18840   0.18110   0.84305   0.00000  Uiso   1.00
N917   N     0.16816   0.08061   0.77921   0.00000  Uiso   1.00
N918   N     0.22486   0.27751   0.72524   0.00000  Uiso   1.00
N919   N     0.03004   0.03371   0.91298   0.00000  Uiso   1.00
O920   O     0.29769   0.24629   0.83572   0.00000  Uiso   1.00
O921   O     0.31809   0.24156   0.95334   0.00000  Uiso   1.00
O922   O     0.05742   0.23704   0.82949   0.00000  Uiso   1.00
O923   O     0.31490   0.17358   0.88920   0.00000  Uiso   1.00
O924   O     0.07463   0.16433   0.88297   0.00000  Uiso   1.00
O925   O     0.27592   0.09629   0.83718   0.00000  Uiso   1.00
O926   O     0.03565   0.08704   0.83095   0.00000  Uiso   1.00
O927   O     0.25870   0.16901   0.78369   0.00000  Uiso   1.00
O928   O     0.01843   0.15976   0.77747   0.00000  Uiso   1.00
O929   O     0.18572   0.03627   0.94349   0.00000  Uiso   1.00
Zn930  Zn    0.27119   0.17284   0.83749   0.00000  Uiso   1.00
Zn931  Zn    0.06214   0.16049   0.82918   0.00000  Uiso   1.00
C932   C     0.34768   0.26479   0.83127   0.00000  Uiso   1.00
C933   C     0.38659   0.17518   0.94552   0.00000  Uiso   1.00
C934   C     0.35441   0.31920   0.82840   0.00000  Uiso   1.00
C935   C     0.36888   0.17054   0.90390   0.00000  Uiso   1.00
C936   C     0.64218   0.01356   0.83021   0.00000  Uiso   1.00
C937   C     0.65105   0.06839   0.83244   0.00000  Uiso   1.00
C938   C     0.63122   0.16351   0.76297   0.00000  Uiso   1.00
C939   C     0.59557   0.08994   0.67004   0.00000  Uiso   1.00
C940   C     0.61167   0.15442   0.72225   0.00000  Uiso   1.00
C941   C     0.36318   0.21208   0.96785   0.00000  Uiso   1.00
C942   C     0.38723   0.21995   0.67312   0.00000  Uiso   1.00
C943   C     0.46647   0.16768   0.99776   0.00000  Uiso   1.00
C944   C     0.43937   0.19933   0.68784   0.00000  Uiso   1.00
C945   C     0.49127   0.11328   0.79950   0.00000  Uiso   1.00
C946   C     0.56049   0.23401   0.71627   0.00000  Uiso   1.00
C947   C     0.40083   0.06347   0.92750   0.00000  Uiso   1.00
C948   C     0.43349   0.14753   0.96290   0.00000  Uiso   1.00
C949   C     0.52336   0.15243   0.67559   0.00000  Uiso   1.00
C950   C     0.54088   0.10830   0.98994   0.00000  Uiso   1.00
C951   C     0.50247   0.08135   0.95947   0.00000  Uiso   1.00
C952   C     0.44743   0.09983   0.94715   0.00000  Uiso   1.00
C953   C     0.56383   0.17948   0.70504   0.00000  Uiso   1.00
C954   C     0.62956   0.11141   0.70381   0.00000  Uiso   1.00
H955   H     0.33424   0.09239   0.71674   0.00000  Uiso   1.00
H956   H     0.59929   0.32960   0.83196   0.00000  Uiso   1.00
H957   H     0.51010   0.20905   0.86091   0.00000  Uiso   1.00
H958   H     0.61004   0.05628   0.98978   0.00000  Uiso   1.00
H959   H     0.45725   0.20742   0.71776   0.00000  Uiso   1.00
H960   H     0.36790   0.24543   0.69113   0.00000  Uiso   1.00
H961   H     0.39722   0.00314   0.82643   0.00000  Uiso   1.00
H962   H     0.49258   0.02650   0.91890   0.00000  Uiso   1.00
H963   H     0.65581   0.25158   0.92748   0.00000  Uiso   1.00
N964   N     0.47827   0.15223   0.82362   0.00000  Uiso   1.00
N965   N     0.52173   0.18110   0.84305   0.00000  Uiso   1.00
N966   N     0.50149   0.08061   0.77921   0.00000  Uiso   1.00
N967   N     0.55819   0.27751   0.72524   0.00000  Uiso   1.00
N968   N     0.36337   0.03371   0.91298   0.00000  Uiso   1.00
O969   O     0.63102   0.24629   0.83572   0.00000  Uiso   1.00
O970   O     0.65143   0.24156   0.95334   0.00000  Uiso   1.00
O971   O     0.39075   0.23704   0.82949   0.00000  Uiso   1.00
O972   O     0.64823   0.17358   0.88920   0.00000  Uiso   1.00
O973   O     0.40796   0.16433   0.88297   0.00000  Uiso   1.00
O974   O     0.60925   0.09629   0.83718   0.00000  Uiso   1.00
O975   O     0.36898   0.08704   0.83095   0.00000  Uiso   1.00
O976   O     0.59204   0.16901   0.78369   0.00000  Uiso   1.00
O977   O     0.35177   0.15976   0.77747   0.00000  Uiso   1.00
O978   O     0.51905   0.03627   0.94349   0.00000  Uiso   1.00
Zn979  Zn    0.60453   0.17284   0.83749   0.00000  Uiso   1.00
Zn980  Zn    0.39547   0.16049   0.82918   0.00000  Uiso   1.00
C981   C     0.68101   0.26479   0.83127   0.00000  Uiso   1.00
C982   C     0.71992   0.17518   0.94552   0.00000  Uiso   1.00
C983   C     0.68774   0.31920   0.82840   0.00000  Uiso   1.00
C984   C     0.70222   0.17054   0.90390   0.00000  Uiso   1.00
C985   C     0.97551   0.01356   0.83021   0.00000  Uiso   1.00
C986   C     0.98438   0.06839   0.83244   0.00000  Uiso   1.00
C987   C     0.96455   0.16351   0.76297   0.00000  Uiso   1.00
C988   C     0.92891   0.08994   0.67004   0.00000  Uiso   1.00
C989   C     0.94500   0.15442   0.72225   0.00000  Uiso   1.00
C990   C     0.69651   0.21208   0.96785   0.00000  Uiso   1.00
C991   C     0.72056   0.21995   0.67312   0.00000  Uiso   1.00
C992   C     0.79980   0.16768   0.99776   0.00000  Uiso   1.00
C993   C     0.77270   0.19933   0.68784   0.00000  Uiso   1.00
C994   C     0.82460   0.11328   0.79950   0.00000  Uiso   1.00
C995   C     0.89383   0.23401   0.71627   0.00000  Uiso   1.00
C996   C     0.73416   0.06347   0.92750   0.00000  Uiso   1.00
C997   C     0.76683   0.14753   0.96290   0.00000  Uiso   1.00
C998   C     0.85670   0.15243   0.67559   0.00000  Uiso   1.00
C999   C     0.87421   0.10830   0.98994   0.00000  Uiso   1.00
C1000  C     0.83581   0.08135   0.95947   0.00000  Uiso   1.00
C1001  C     0.78077   0.09983   0.94715   0.00000  Uiso   1.00
C1002  C     0.89716   0.17948   0.70504   0.00000  Uiso   1.00
C1003  C     0.96290   0.11141   0.70381   0.00000  Uiso   1.00
H1004  H     0.66758   0.09239   0.71674   0.00000  Uiso   1.00
H1005  H     0.93262   0.32960   0.83196   0.00000  Uiso   1.00
H1006  H     0.84343   0.20905   0.86091   0.00000  Uiso   1.00
H1007  H     0.94337   0.05628   0.98978   0.00000  Uiso   1.00
H1008  H     0.79058   0.20742   0.71776   0.00000  Uiso   1.00
H1009  H     0.70123   0.24543   0.69113   0.00000  Uiso   1.00
H1010  H     0.73056   0.00314   0.82643   0.00000  Uiso   1.00
H1011  H     0.82592   0.02650   0.91890   0.00000  Uiso   1.00
H1012  H     0.98914   0.25158   0.92748   0.00000  Uiso   1.00
N1013  N     0.81160   0.15223   0.82362   0.00000  Uiso   1.00
N1014  N     0.85507   0.18110   0.84305   0.00000  Uiso   1.00
N1015  N     0.83483   0.08061   0.77921   0.00000  Uiso   1.00
N1016  N     0.89152   0.27751   0.72524   0.00000  Uiso   1.00
N1017  N     0.69670   0.03371   0.91298   0.00000  Uiso   1.00
O1018  O     0.96435   0.24629   0.83572   0.00000  Uiso   1.00
O1019  O     0.98476   0.24156   0.95334   0.00000  Uiso   1.00
O1020  O     0.72408   0.23704   0.82949   0.00000  Uiso   1.00
O1021  O     0.98157   0.17358   0.88920   0.00000  Uiso   1.00
O1022  O     0.74130   0.16433   0.88297   0.00000  Uiso   1.00
O1023  O     0.94258   0.09629   0.83718   0.00000  Uiso   1.00
O1024  O     0.70231   0.08704   0.83095   0.00000  Uiso   1.00
O1025  O     0.92537   0.16901   0.78369   0.00000  Uiso   1.00
O1026  O     0.68510   0.15976   0.77747   0.00000  Uiso   1.00
O1027  O     0.85238   0.03627   0.94349   0.00000  Uiso   1.00
Zn1028 Zn    0.93786   0.17284   0.83749   0.00000  Uiso   1.00
Zn1029 Zn    0.72881   0.16049   0.82918   0.00000  Uiso   1.00
C1030  C     0.01434   0.59812   0.83127   0.00000  Uiso   1.00
C1031  C     0.05325   0.50851   0.94552   0.00000  Uiso   1.00
C1032  C     0.02107   0.65253   0.82840   0.00000  Uiso   1.00
C1033  C     0.03555   0.50387   0.90390   0.00000  Uiso   1.00
C1034  C     0.30885   0.34689   0.83021   0.00000  Uiso   1.00
C1035  C     0.31772   0.40173   0.83244   0.00000  Uiso   1.00
C1036  C     0.29788   0.49684   0.76297   0.00000  Uiso   1.00
C1037  C     0.26224   0.42327   0.67004   0.00000  Uiso   1.00
C1038  C     0.27834   0.48776   0.72225   0.00000  Uiso   1.00
C1039  C     0.02985   0.54541   0.96785   0.00000  Uiso   1.00
C1040  C     0.05390   0.55328   0.67312   0.00000  Uiso   1.00
C1041  C     0.13313   0.50102   0.99776   0.00000  Uiso   1.00
C1042  C     0.10603   0.53266   0.68784   0.00000  Uiso   1.00
C1043  C     0.15794   0.44662   0.79950   0.00000  Uiso   1.00
C1044  C     0.22716   0.56735   0.71627   0.00000  Uiso   1.00
C1045  C     0.06750   0.39680   0.92750   0.00000  Uiso   1.00
C1046  C     0.10016   0.48086   0.96290   0.00000  Uiso   1.00
C1047  C     0.19003   0.48576   0.67559   0.00000  Uiso   1.00
C1048  C     0.20754   0.44163   0.98994   0.00000  Uiso   1.00
C1049  C     0.16914   0.41468   0.95947   0.00000  Uiso   1.00
C1050  C     0.11410   0.43317   0.94715   0.00000  Uiso   1.00
C1051  C     0.23049   0.51281   0.70504   0.00000  Uiso   1.00
C1052  C     0.29623   0.44474   0.70381   0.00000  Uiso   1.00
H1053  H     0.00091   0.42573   0.71674   0.00000  Uiso   1.00
H1054  H     0.26595   0.66293   0.83196   0.00000  Uiso   1.00
H1055  H     0.17677   0.54238   0.86091   0.00000  Uiso   1.00
H1056  H     0.27671   0.38962   0.98978   0.00000  Uiso   1.00
H1057  H     0.12391   0.54075   0.71776   0.00000  Uiso   1.00
H1058  H     0.03457   0.57876   0.69113   0.00000  Uiso   1.00
H1059  H     0.06389   0.33647   0.82643   0.00000  Uiso   1.00
H1060  H     0.15925   0.35984   0.91890   0.00000  Uiso   1.00
H1061  H     0.32248   0.58492   0.92748   0.00000  Uiso   1.00
N1062  N     0.14493   0.48556   0.82362   0.00000  Uiso   1.00
N1063  N     0.18840   0.51444   0.84305   0.00000  Uiso   1.00
N1064  N     0.16816   0.41394   0.77921   0.00000  Uiso   1.00
N1065  N     0.22486   0.61084   0.72524   0.00000  Uiso   1.00
N1066  N     0.03004   0.36704   0.91298   0.00000  Uiso   1.00
O1067  O     0.29769   0.57963   0.83572   0.00000  Uiso   1.00
O1068  O     0.31809   0.57489   0.95334   0.00000  Uiso   1.00
O1069  O     0.05742   0.57038   0.82949   0.00000  Uiso   1.00
O1070  O     0.31490   0.50691   0.88920   0.00000  Uiso   1.00
O1071  O     0.07463   0.49766   0.88297   0.00000  Uiso   1.00
O1072  O     0.27592   0.42962   0.83718   0.00000  Uiso   1.00
O1073  O     0.03565   0.42037   0.83095   0.00000  Uiso   1.00
O1074  O     0.25870   0.50234   0.78369   0.00000  Uiso   1.00
O1075  O     0.01843   0.49309   0.77747   0.00000  Uiso   1.00
O1076  O     0.18572   0.36960   0.94349   0.00000  Uiso   1.00
Zn1077 Zn    0.27119   0.50618   0.83749   0.00000  Uiso   1.00
Zn1078 Zn    0.06214   0.49382   0.82918   0.00000  Uiso   1.00
C1079  C     0.34768   0.59812   0.83127   0.00000  Uiso   1.00
C1080  C     0.38659   0.50851   0.94552   0.00000  Uiso   1.00
C1081  C     0.35441   0.65253   0.82840   0.00000  Uiso   1.00
C1082  C     0.36888   0.50387   0.90390   0.00000  Uiso   1.00
C1083  C     0.64218   0.34689   0.83021   0.00000  Uiso   1.00
C1084  C     0.65105   0.40173   0.83244   0.00000  Uiso   1.00
C1085  C     0.63122   0.49684   0.76297   0.00000  Uiso   1.00
C1086  C     0.59557   0.42327   0.67004   0.00000  Uiso   1.00
C1087  C     0.61167   0.48776   0.72225   0.00000  Uiso   1.00
C1088  C     0.36318   0.54541   0.96785   0.00000  Uiso   1.00
C1089  C     0.38723   0.55328   0.67312   0.00000  Uiso   1.00
C1090  C     0.46647   0.50102   0.99776   0.00000  Uiso   1.00
C1091  C     0.43937   0.53266   0.68784   0.00000  Uiso   1.00
C1092  C     0.49127   0.44662   0.79950   0.00000  Uiso   1.00
C1093  C     0.56049   0.56735   0.71627   0.00000  Uiso   1.00
C1094  C     0.40083   0.39680   0.92750   0.00000  Uiso   1.00
C1095  C     0.43349   0.48086   0.96290   0.00000  Uiso   1.00
C1096  C     0.52336   0.48576   0.67559   0.00000  Uiso   1.00
C1097  C     0.54088   0.44163   0.98994   0.00000  Uiso   1.00
C1098  C     0.50247   0.41468   0.95947   0.00000  Uiso   1.00
C1099  C     0.44743   0.43317   0.94715   0.00000  Uiso   1.00
C1100  C     0.56383   0.51281   0.70504   0.00000  Uiso   1.00
C1101  C     0.62956   0.44474   0.70381   0.00000  Uiso   1.00
H1102  H     0.33424   0.42573   0.71674   0.00000  Uiso   1.00
H1103  H     0.59929   0.66293   0.83196   0.00000  Uiso   1.00
H1104  H     0.51010   0.54238   0.86091   0.00000  Uiso   1.00
H1105  H     0.61004   0.38962   0.98978   0.00000  Uiso   1.00
H1106  H     0.45725   0.54075   0.71776   0.00000  Uiso   1.00
H1107  H     0.36790   0.57876   0.69113   0.00000  Uiso   1.00
H1108  H     0.39722   0.33647   0.82643   0.00000  Uiso   1.00
H1109  H     0.49258   0.35984   0.91890   0.00000  Uiso   1.00
H1110  H     0.65581   0.58492   0.92748   0.00000  Uiso   1.00
N1111  N     0.47827   0.48556   0.82362   0.00000  Uiso   1.00
N1112  N     0.52173   0.51444   0.84305   0.00000  Uiso   1.00
N1113  N     0.50149   0.41394   0.77921   0.00000  Uiso   1.00
N1114  N     0.55819   0.61084   0.72524   0.00000  Uiso   1.00
N1115  N     0.36337   0.36704   0.91298   0.00000  Uiso   1.00
O1116  O     0.63102   0.57963   0.83572   0.00000  Uiso   1.00
O1117  O     0.65143   0.57489   0.95334   0.00000  Uiso   1.00
O1118  O     0.39075   0.57038   0.82949   0.00000  Uiso   1.00
O1119  O     0.64823   0.50691   0.88920   0.00000  Uiso   1.00
O1120  O     0.40796   0.49766   0.88297   0.00000  Uiso   1.00
O1121  O     0.60925   0.42962   0.83718   0.00000  Uiso   1.00
O1122  O     0.36898   0.42037   0.83095   0.00000  Uiso   1.00
O1123  O     0.59204   0.50234   0.78369   0.00000  Uiso   1.00
O1124  O     0.35177   0.49309   0.77747   0.00000  Uiso   1.00
O1125  O     0.51905   0.36960   0.94349   0.00000  Uiso   1.00
Zn1126 Zn    0.60453   0.50618   0.83749   0.00000  Uiso   1.00
Zn1127 Zn    0.39547   0.49382   0.82918   0.00000  Uiso   1.00
C1128  C     0.68101   0.59812   0.83127   0.00000  Uiso   1.00
C1129  C     0.71992   0.50851   0.94552   0.00000  Uiso   1.00
C1130  C     0.68774   0.65253   0.82840   0.00000  Uiso   1.00
C1131  C     0.70222   0.50387   0.90390   0.00000  Uiso   1.00
C1132  C     0.97551   0.34689   0.83021   0.00000  Uiso   1.00
C1133  C     0.98438   0.40173   0.83244   0.00000  Uiso   1.00
C1134  C     0.96455   0.49684   0.76297   0.00000  Uiso   1.00
C1135  C     0.92891   0.42327   0.67004   0.00000  Uiso   1.00
C1136  C     0.94500   0.48776   0.72225   0.00000  Uiso   1.00
C1137  C     0.69651   0.54541   0.96785   0.00000  Uiso   1.00
C1138  C     0.72056   0.55328   0.67312   0.00000  Uiso   1.00
C1139  C     0.79980   0.50102   0.99776   0.00000  Uiso   1.00
C1140  C     0.77270   0.53266   0.68784   0.00000  Uiso   1.00
C1141  C     0.82460   0.44662   0.79950   0.00000  Uiso   1.00
C1142  C     0.89383   0.56735   0.71627   0.00000  Uiso   1.00
C1143  C     0.73416   0.39680   0.92750   0.00000  Uiso   1.00
C1144  C     0.76683   0.48086   0.96290   0.00000  Uiso   1.00
C1145  C     0.85670   0.48576   0.67559   0.00000  Uiso   1.00
C1146  C     0.87421   0.44163   0.98994   0.00000  Uiso   1.00
C1147  C     0.83581   0.41468   0.95947   0.00000  Uiso   1.00
C1148  C     0.78077   0.43317   0.94715   0.00000  Uiso   1.00
C1149  C     0.89716   0.51281   0.70504   0.00000  Uiso   1.00
C1150  C     0.96290   0.44474   0.70381   0.00000  Uiso   1.00
H1151  H     0.66758   0.42573   0.71674   0.00000  Uiso   1.00
H1152  H     0.93262   0.66293   0.83196   0.00000  Uiso   1.00
H1153  H     0.84343   0.54238   0.86091   0.00000  Uiso   1.00
H1154  H     0.94337   0.38962   0.98978   0.00000  Uiso   1.00
H1155  H     0.79058   0.54075   0.71776   0.00000  Uiso   1.00
H1156  H     0.70123   0.57876   0.69113   0.00000  Uiso   1.00
H1157  H     0.73056   0.33647   0.82643   0.00000  Uiso   1.00
H1158  H     0.82592   0.35984   0.91890   0.00000  Uiso   1.00
H1159  H     0.98914   0.58492   0.92748   0.00000  Uiso   1.00
N1160  N     0.81160   0.48556   0.82362   0.00000  Uiso   1.00
N1161  N     0.85507   0.51444   0.84305   0.00000  Uiso   1.00
N1162  N     0.83483   0.41394   0.77921   0.00000  Uiso   1.00
N1163  N     0.89152   0.61084   0.72524   0.00000  Uiso   1.00
N1164  N     0.69670   0.36704   0.91298   0.00000  Uiso   1.00
O1165  O     0.96435   0.57963   0.83572   0.00000  Uiso   1.00
O1166  O     0.98476   0.57489   0.95334   0.00000  Uiso   1.00
O1167  O     0.72408   0.57038   0.82949   0.00000  Uiso   1.00
O1168  O     0.98157   0.50691   0.88920   0.00000  Uiso   1.00
O1169  O     0.74130   0.49766   0.88297   0.00000  Uiso   1.00
O1170  O     0.94258   0.42962   0.83718   0.00000  Uiso   1.00
O1171  O     0.70231   0.42037   0.83095   0.00000  Uiso   1.00
O1172  O     0.92537   0.50234   0.78369   0.00000  Uiso   1.00
O1173  O     0.68510   0.49309   0.77747   0.00000  Uiso   1.00
O1174  O     0.85238   0.36960   0.94349   0.00000  Uiso   1.00
Zn1175 Zn    0.93786   0.50618   0.83749   0.00000  Uiso   1.00
Zn1176 Zn    0.72881   0.49382   0.82918   0.00000  Uiso   1.00
C1177  C     0.01434   0.93146   0.83127   0.00000  Uiso   1.00
C1178  C     0.05325   0.84185   0.94552   0.00000  Uiso   1.00
C1179  C     0.02107   0.98586   0.82840   0.00000  Uiso   1.00
C1180  C     0.03555   0.83720   0.90390   0.00000  Uiso   1.00
C1181  C     0.30885   0.68023   0.83021   0.00000  Uiso   1.00
C1182  C     0.31772   0.73506   0.83244   0.00000  Uiso   1.00
C1183  C     0.29788   0.83017   0.76297   0.00000  Uiso   1.00
C1184  C     0.26224   0.75661   0.67004   0.00000  Uiso   1.00
C1185  C     0.27834   0.82109   0.72225   0.00000  Uiso   1.00
C1186  C     0.02985   0.87875   0.96785   0.00000  Uiso   1.00
C1187  C     0.05390   0.88662   0.67312   0.00000  Uiso   1.00
C1188  C     0.13313   0.83435   0.99776   0.00000  Uiso   1.00
C1189  C     0.10603   0.86600   0.68784   0.00000  Uiso   1.00
C1190  C     0.15794   0.77995   0.79950   0.00000  Uiso   1.00
C1191  C     0.22716   0.90068   0.71627   0.00000  Uiso   1.00
C1192  C     0.06750   0.73014   0.92750   0.00000  Uiso   1.00
C1193  C     0.10016   0.81419   0.96290   0.00000  Uiso   1.00
C1194  C     0.19003   0.81910   0.67559   0.00000  Uiso   1.00
C1195  C     0.20754   0.77496   0.98994   0.00000  Uiso   1.00
C1196  C     0.16914   0.74801   0.95947   0.00000  Uiso   1.00
C1197  C     0.11410   0.76650   0.94715   0.00000  Uiso   1.00
C1198  C     0.23049   0.84614   0.70504   0.00000  Uiso   1.00
C1199  C     0.29623   0.77807   0.70381   0.00000  Uiso   1.00
H1200  H     0.00091   0.75906   0.71674   0.00000  Uiso   1.00
H1201  H     0.26595   0.99626   0.83196   0.00000  Uiso   1.00
H1202  H     0.17677   0.87571   0.86091   0.00000  Uiso   1.00
H1203  H     0.27671   0.72295   0.98978   0.00000  Uiso   1.00
H1204  H     0.12391   0.87409   0.71776   0.00000  Uiso   1.00
H1205  H     0.03457   0.91209   0.69113   0.00000  Uiso   1.00
H1206  H     0.06389   0.66980   0.82643   0.00000  Uiso   1.00
H1207  H     0.15925   0.69317   0.91890   0.00000  Uiso   1.00
H1208  H     0.32248   0.91825   0.92748   0.00000  Uiso   1.00
N1209  N     0.14493   0.81890   0.82362   0.00000  Uiso   1.00
N1210  N     0.18840   0.84777   0.84305   0.00000  Uiso   1.00
N1211  N     0.16816   0.74727   0.77921   0.00000  Uiso   1.00
N1212  N     0.22486   0.94418   0.72524   0.00000  Uiso   1.00
N1213  N     0.03004   0.70038   0.91298   0.00000  Uiso   1.00
O1214  O     0.29769   0.91296   0.83572   0.00000  Uiso   1.00
O1215  O     0.31809   0.90823   0.95334   0.00000  Uiso   1.00
O1216  O     0.05742   0.90371   0.82949   0.00000  Uiso   1.00
O1217  O     0.31490   0.84024   0.88920   0.00000  Uiso   1.00
O1218  O     0.07463   0.83099   0.88297   0.00000  Uiso   1.00
O1219  O     0.27592   0.76296   0.83718   0.00000  Uiso   1.00
O1220  O     0.03565   0.75371   0.83095   0.00000  Uiso   1.00
O1221  O     0.25870   0.83567   0.78369   0.00000  Uiso   1.00
O1222  O     0.01843   0.82642   0.77747   0.00000  Uiso   1.00
O1223  O     0.18572   0.70294   0.94349   0.00000  Uiso   1.00
Zn1224 Zn    0.27119   0.83951   0.83749   0.00000  Uiso   1.00
Zn1225 Zn    0.06214   0.82716   0.82918   0.00000  Uiso   1.00
C1226  C     0.34768   0.93146   0.83127   0.00000  Uiso   1.00
C1227  C     0.38659   0.84185   0.94552   0.00000  Uiso   1.00
C1228  C     0.35441   0.98586   0.82840   0.00000  Uiso   1.00
C1229  C     0.36888   0.83720   0.90390   0.00000  Uiso   1.00
C1230  C     0.64218   0.68023   0.83021   0.00000  Uiso   1.00
C1231  C     0.65105   0.73506   0.83244   0.00000  Uiso   1.00
C1232  C     0.63122   0.83017   0.76297   0.00000  Uiso   1.00
C1233  C     0.59557   0.75661   0.67004   0.00000  Uiso   1.00
C1234  C     0.61167   0.82109   0.72225   0.00000  Uiso   1.00
C1235  C     0.36318   0.87875   0.96785   0.00000  Uiso   1.00
C1236  C     0.38723   0.88662   0.67312   0.00000  Uiso   1.00
C1237  C     0.46647   0.83435   0.99776   0.00000  Uiso   1.00
C1238  C     0.43937   0.86600   0.68784   0.00000  Uiso   1.00
C1239  C     0.49127   0.77995   0.79950   0.00000  Uiso   1.00
C1240  C     0.56049   0.90068   0.71627   0.00000  Uiso   1.00
C1241  C     0.40083   0.73014   0.92750   0.00000  Uiso   1.00
C1242  C     0.43349   0.81419   0.96290   0.00000  Uiso   1.00
C1243  C     0.52336   0.81910   0.67559   0.00000  Uiso   1.00
C1244  C     0.54088   0.77496   0.98994   0.00000  Uiso   1.00
C1245  C     0.50247   0.74801   0.95947   0.00000  Uiso   1.00
C1246  C     0.44743   0.76650   0.94715   0.00000  Uiso   1.00
C1247  C     0.56383   0.84614   0.70504   0.00000  Uiso   1.00
C1248  C     0.62956   0.77807   0.70381   0.00000  Uiso   1.00
H1249  H     0.33424   0.75906   0.71674   0.00000  Uiso   1.00
H1250  H     0.59929   0.99626   0.83196   0.00000  Uiso   1.00
H1251  H     0.51010   0.87571   0.86091   0.00000  Uiso   1.00
H1252  H     0.61004   0.72295   0.98978   0.00000  Uiso   1.00
H1253  H     0.45725   0.87409   0.71776   0.00000  Uiso   1.00
H1254  H     0.36790   0.91209   0.69113   0.00000  Uiso   1.00
H1255  H     0.39722   0.66980   0.82643   0.00000  Uiso   1.00
H1256  H     0.49258   0.69317   0.91890   0.00000  Uiso   1.00
H1257  H     0.65581   0.91825   0.92748   0.00000  Uiso   1.00
N1258  N     0.47827   0.81890   0.82362   0.00000  Uiso   1.00
N1259  N     0.52173   0.84777   0.84305   0.00000  Uiso   1.00
N1260  N     0.50149   0.74727   0.77921   0.00000  Uiso   1.00
N1261  N     0.55819   0.94418   0.72524   0.00000  Uiso   1.00
N1262  N     0.36337   0.70038   0.91298   0.00000  Uiso   1.00
O1263  O     0.63102   0.91296   0.83572   0.00000  Uiso   1.00
O1264  O     0.65143   0.90823   0.95334   0.00000  Uiso   1.00
O1265  O     0.39075   0.90371   0.82949   0.00000  Uiso   1.00
O1266  O     0.64823   0.84024   0.88920   0.00000  Uiso   1.00
O1267  O     0.40796   0.83099   0.88297   0.00000  Uiso   1.00
O1268  O     0.60925   0.76296   0.83718   0.00000  Uiso   1.00
O1269  O     0.36898   0.75371   0.83095   0.00000  Uiso   1.00
O1270  O     0.59204   0.83567   0.78369   0.00000  Uiso   1.00
O1271  O     0.35177   0.82642   0.77747   0.00000  Uiso   1.00
O1272  O     0.51905   0.70294   0.94349   0.00000  Uiso   1.00
Zn1273 Zn    0.60453   0.83951   0.83749   0.00000  Uiso   1.00
Zn1274 Zn    0.39547   0.82716   0.82918   0.00000  Uiso   1.00
C1275  C     0.68101   0.93146   0.83127   0.00000  Uiso   1.00
C1276  C     0.71992   0.84185   0.94552   0.00000  Uiso   1.00
C1277  C     0.68774   0.98586   0.82840   0.00000  Uiso   1.00
C1278  C     0.70222   0.83720   0.90390   0.00000  Uiso   1.00
C1279  C     0.97551   0.68023   0.83021   0.00000  Uiso   1.00
C1280  C     0.98438   0.73506   0.83244   0.00000  Uiso   1.00
C1281  C     0.96455   0.83017   0.76297   0.00000  Uiso   1.00
C1282  C     0.92891   0.75661   0.67004   0.00000  Uiso   1.00
C1283  C     0.94500   0.82109   0.72225   0.00000  Uiso   1.00
C1284  C     0.69651   0.87875   0.96785   0.00000  Uiso   1.00
C1285  C     0.72056   0.88662   0.67312   0.00000  Uiso   1.00
C1286  C     0.79980   0.83435   0.99776   0.00000  Uiso   1.00
C1287  C     0.77270   0.86600   0.68784   0.00000  Uiso   1.00
C1288  C     0.82460   0.77995   0.79950   0.00000  Uiso   1.00
C1289  C     0.89383   0.90068   0.71627   0.00000  Uiso   1.00
C1290  C     0.73416   0.73014   0.92750   0.00000  Uiso   1.00
C1291  C     0.76683   0.81419   0.96290   0.00000  Uiso   1.00
C1292  C     0.85670   0.81910   0.67559   0.00000  Uiso   1.00
C1293  C     0.87421   0.77496   0.98994   0.00000  Uiso   1.00
C1294  C     0.83581   0.74801   0.95947   0.00000  Uiso   1.00
C1295  C     0.78077   0.76650   0.94715   0.00000  Uiso   1.00
C1296  C     0.89716   0.84614   0.70504   0.00000  Uiso   1.00
C1297  C     0.96290   0.77807   0.70381   0.00000  Uiso   1.00
H1298  H     0.66758   0.75906   0.71674   0.00000  Uiso   1.00
H1299  H     0.93262   0.99626   0.83196   0.00000  Uiso   1.00
H1300  H     0.84343   0.87571   0.86091   0.00000  Uiso   1.00
H1301  H     0.94337   0.72295   0.98978   0.00000  Uiso   1.00
H1302  H     0.79058   0.87409   0.71776   0.00000  Uiso   1.00
H1303  H     0.70123   0.91209   0.69113   0.00000  Uiso   1.00
H1304  H     0.73056   0.66980   0.82643   0.00000  Uiso   1.00
H1305  H     0.82592   0.69317   0.91890   0.00000  Uiso   1.00
H1306  H     0.98914   0.91825   0.92748   0.00000  Uiso   1.00
N1307  N     0.81160   0.81890   0.82362   0.00000  Uiso   1.00
N1308  N     0.85507   0.84777   0.84305   0.00000  Uiso   1.00
N1309  N     0.83483   0.74727   0.77921   0.00000  Uiso   1.00
N1310  N     0.89152   0.94418   0.72524   0.00000  Uiso   1.00
N1311  N     0.69670   0.70038   0.91298   0.00000  Uiso   1.00
O1312  O     0.96435   0.91296   0.83572   0.00000  Uiso   1.00
O1313  O     0.98476   0.90823   0.95334   0.00000  Uiso   1.00
O1314  O     0.72408   0.90371   0.82949   0.00000  Uiso   1.00
O1315  O     0.98157   0.84024   0.88920   0.00000  Uiso   1.00
O1316  O     0.74130   0.83099   0.88297   0.00000  Uiso   1.00
O1317  O     0.94258   0.76296   0.83718   0.00000  Uiso   1.00
O1318  O     0.70231   0.75371   0.83095   0.00000  Uiso   1.00
O1319  O     0.92537   0.83567   0.78369   0.00000  Uiso   1.00
O1320  O     0.68510   0.82642   0.77747   0.00000  Uiso   1.00
O1321  O     0.85238   0.70294   0.94349   0.00000  Uiso   1.00
Zn1322 Zn    0.93786   0.83951   0.83749   0.00000  Uiso   1.00
Zn1323 Zn    0.72881   0.82716   0.82918   0.00000  Uiso   1.00
loop_
_geom_bond_atom_site_label_1
_geom_bond_atom_site_label_2
_geom_bond_distance
_geom_bond_site_symmetry_2
_ccdc_geom_bond_type
C1     O40     1.290   .     A
C1     C3      1.401   .     S
C1     O136    1.278   1_455 S
C2     C4      1.466   .     S
C2     C17     1.411   .     A
C2     C10     1.424   .     A
C3     C250    1.339   1_455 S
C3     H177    1.088   .     S
C4     O42     1.306   .     A
C4     O139    1.290   1_455 S
C5     C6      1.403   .     S
C5     C346    1.339   1_545 S
C5     H319    1.088   1_545 S
C6     O43     1.290   .     A
C6     O93     1.278   .     S
C7     O45     1.300   .     A
C7     C9      1.447   .     S
C7     O95     1.289   .     S
C8     C23     1.389   .     A
C8     C901    1.407   1_554 S
C8     H909    1.083   1_554 S
C9     C22     1.389   .     A
C9     C23     1.397   .     A
C10    C452    1.392   .     S
C10    O137    1.379   1_455 S
C11    C13     1.390   .     A
C11    H29     1.083   .     S
C11    C892    1.392   1_554 S
C12    C17     1.400   .     A
C12    C454    1.413   .     S
C12    C459    1.411   .     S
C13    H28     1.080   .     S
C13    C894    1.413   1_554 S
C14    N33     1.386   .     S
C14    N35     1.158   .     T
C15    N36     1.158   .     T
C15    C22     1.453   .     S
C16    C21     1.445   .     S
C16    N37     1.156   .     T
C17    C21     1.415   .     A
C18    C22     1.406   .     A
C18    C894    1.411   1_554 S
C18    C901    1.425   1_554 S
C19    C20     1.404   .     A
C19    C449    1.407   .     S
C19    C459    1.425   .     S
C20    O47     1.385   .     S
C20    C21     1.409   .     A
C23    H73     1.084   .     S
H24    C121    1.084   1_455 S
H25    C152    1.088   .     S
H26    N34     1.029   .     S
H27    C449    1.083   .     S
H30    C297    1.088   1_545 S
H31    O47     0.990   .     S
H32    O39     0.989   .     S
N33    N34     1.292   .     D
N33    Zn49    2.023   .     S
N34    Zn48    2.023   .     S
O38    Zn48    1.947   .     S
O38    C50     1.278   .     S
O39    C59     1.379   .     S
O40    Zn49    1.973   .     S
O41    Zn48    1.938   .     S
O41    C53     1.290   .     S
O42    Zn49    1.888   .     S
O43    Zn48    1.973   .     S
O44    Zn49    1.947   .     S
O44    C104    1.278   1_455 S
O45    Zn48    1.888   .     S
O46    Zn49    1.938   .     S
O46    C105    1.289   1_455 S
C50    O89     1.290   .     A
C50    C52     1.401   .     S
C51    C53     1.466   .     S
C51    C66     1.411   .     A
C51    C59     1.424   .     A
C52    C152    1.339   .     S
C52    H226    1.088   .     S
C53    O91     1.306   .     A
C54    C55     1.403   .     S
C54    C395    1.339   1_545 S
C54    H368    1.088   1_545 S
C55    O92     1.290   .     A
C55    O142    1.278   .     S
C56    O94     1.300   .     A
C56    C58     1.447   .     S
C56    O144    1.289   .     S
C57    C72     1.389   .     A
C57    C950    1.407   1_554 S
C57    H958    1.083   1_554 S
C58    C71     1.389   .     A
C58    C72     1.397   .     A
C59    C501    1.392   .     S
C60    C62     1.390   .     A
C60    H78     1.083   .     S
C60    C941    1.392   1_554 S
C61    C66     1.400   .     A
C61    C503    1.413   .     S
C61    C508    1.411   .     S
C62    H77     1.080   .     S
C62    C943    1.413   1_554 S
C63    N82     1.386   .     S
C63    N84     1.158   .     T
C64    N85     1.158   .     T
C64    C71     1.453   .     S
C65    C70     1.445   .     S
C65    N86     1.156   .     T
C66    C70     1.415   .     A
C67    C71     1.406   .     A
C67    C943    1.411   1_554 S
C67    C950    1.425   1_554 S
C68    C69     1.404   .     A
C68    C498    1.407   .     S
C68    C508    1.425   .     S
C69    O96     1.385   .     S
C69    C70     1.409   .     A
C72    H122    1.084   .     S
H74    C201    1.088   .     S
H75    N83     1.029   .     S
H76    C498    1.083   .     S
H79    C346    1.088   1_545 S
H80    O96     0.990   .     S
H81    O88     0.989   .     S
N82    N83     1.292   .     D
N82    Zn98    2.023   .     S
N83    Zn97    2.023   .     S
O87    Zn97    1.947   .     S
O87    C99     1.278   .     S
O88    C108    1.379   .     S
O89    Zn98    1.973   .     S
O90    Zn97    1.938   .     S
O90    C102    1.290   .     S
O91    Zn98    1.888   .     S
O92    Zn97    1.973   .     S
O93    Zn98    1.947   .     S
O94    Zn97    1.888   .     S
O95    Zn98    1.938   .     S
C99    O138    1.290   .     A
C99    C101    1.401   .     S
C100   C102    1.466   .     S
C100   C115    1.411   .     A
C100   C108    1.424   .     A
C101   C201    1.339   .     S
C101   H275    1.088   .     S
C102   O140    1.306   .     A
C103   C104    1.403   .     S
C103   C297    1.339   1_645 S
C103   H417    1.088   1_545 S
C104   O141    1.290   .     A
C104   O44     1.278   1_655 S
C105   O143    1.300   .     A
C105   C107    1.447   .     S
C105   O46     1.289   1_655 S
C106   C121    1.389   .     A
C106   C999    1.407   1_554 S
C106   H1007   1.083   1_554 S
C107   C120    1.389   .     A
C107   C121    1.397   .     A
C108   C550    1.392   .     S
C109   C111    1.390   .     A
C109   H127    1.083   .     S
C109   C990    1.392   1_554 S
C110   C115    1.400   .     A
C110   C552    1.413   .     S
C110   C557    1.411   .     S
C111   H126    1.080   .     S
C111   C992    1.413   1_554 S
C112   N131    1.386   .     S
C112   N133    1.158   .     T
C113   N134    1.158   .     T
C113   C120    1.453   .     S
C114   C119    1.445   .     S
C114   N135    1.156   .     T
C115   C119    1.415   .     A
C116   C120    1.406   .     A
C116   C992    1.411   1_554 S
C116   C999    1.425   1_554 S
C117   C118    1.404   .     A
C117   C547    1.407   .     S
C117   C557    1.425   .     S
C118   O145    1.385   .     S
C118   C119    1.409   .     A
C121   H24     1.084   1_655 S
H123   C250    1.088   .     S
H124   N132    1.029   .     S
H125   C547    1.083   .     S
H128   C395    1.088   1_545 S
H129   O145    0.990   .     S
H130   O137    0.989   .     S
N131   N132    1.292   .     D
N131   Zn147   2.023   .     S
N132   Zn146   2.023   .     S
O136   Zn146   1.947   .     S
O136   C1      1.278   1_655 S
O137   C10     1.379   1_655 S
O138   Zn147   1.973   .     S
O139   Zn146   1.938   .     S
O139   C4      1.290   1_655 S
O140   Zn147   1.888   .     S
O141   Zn146   1.973   .     S
O142   Zn147   1.947   .     S
O143   Zn146   1.888   .     S
O144   Zn147   1.938   .     S
C148   O187    1.290   .     A
C148   C150    1.401   .     S
C148   O283    1.278   1_455 S
C149   C151    1.466   .     S
C149   C164    1.411   .     A
C149   C157    1.424   .     A
C150   C397    1.339   1_455 S
C150   H324    1.088   .     S
C151   O189    1.306   .     A
C151   O286    1.290   1_455 S
C152   C153    1.403   .     S
C153   O190    1.290   .     A
C153   O240    1.278   .     S
C154   O192    1.300   .     A
C154   C156    1.447   .     S
C154   O242    1.289   .     S
C155   C170    1.389   .     A
C155   C1048   1.407   1_554 S
C155   H1056   1.083   1_554 S
C156   C169    1.389   .     A
C156   C170    1.397   .     A
C157   C599    1.392   .     S
C157   O284    1.379   1_455 S
C158   C160    1.390   .     A
C158   H176    1.083   .     S
C158   C1039   1.392   1_554 S
C159   C164    1.400   .     A
C159   C601    1.413   .     S
C159   C606    1.411   .     S
C160   H175    1.080   .     S
C160   C1041   1.413   1_554 S
C161   N180    1.386   .     S
C161   N182    1.158   .     T
C162   N183    1.158   .     T
C162   C169    1.453   .     S
C163   C168    1.445   .     S
C163   N184    1.156   .     T
C164   C168    1.415   .     A
C165   C169    1.406   .     A
C165   C1041   1.411   1_554 S
C165   C1048   1.425   1_554 S
C166   C167    1.404   .     A
C166   C596    1.407   .     S
C166   C606    1.425   .     S
C167   O194    1.385   .     S
C167   C168    1.409   .     A
C170   H220    1.084   .     S
H171   C268    1.084   1_455 S
H172   C299    1.088   .     S
H173   N181    1.029   .     S
H174   C596    1.083   .     S
H178   O194    0.990   .     S
H179   O186    0.989   .     S
N180   N181    1.292   .     D
N180   Zn196   2.023   .     S
N181   Zn195   2.023   .     S
O185   Zn195   1.947   .     S
O185   C197    1.278   .     S
O186   C206    1.379   .     S
O187   Zn196   1.973   .     S
O188   Zn195   1.938   .     S
O188   C200    1.290   .     S
O189   Zn196   1.888   .     S
O190   Zn195   1.973   .     S
O191   Zn196   1.947   .     S
O191   C251    1.278   1_455 S
O192   Zn195   1.888   .     S
O193   Zn196   1.938   .     S
O193   C252    1.289   1_455 S
C197   O236    1.290   .     A
C197   C199    1.401   .     S
C198   C200    1.466   .     S
C198   C213    1.411   .     A
C198   C206    1.424   .     A
C199   C299    1.339   .     S
C199   H373    1.088   .     S
C200   O238    1.306   .     A
C201   C202    1.403   .     S
C202   O239    1.290   .     A
C202   O289    1.278   .     S
C203   O241    1.300   .     A
C203   C205    1.447   .     S
C203   O291    1.289   .     S
C204   C219    1.389   .     A
C204   C1097   1.407   1_554 S
C204   H1105   1.083   1_554 S
C205   C218    1.389   .     A
C205   C219    1.397   .     A
C206   C648    1.392   .     S
C207   C209    1.390   .     A
C207   H225    1.083   .     S
C207   C1088   1.392   1_554 S
C208   C213    1.400   .     A
C208   C650    1.413   .     S
C208   C655    1.411   .     S
C209   H224    1.080   .     S
C209   C1090   1.413   1_554 S
C210   N229    1.386   .     S
C210   N231    1.158   .     T
C211   N232    1.158   .     T
C211   C218    1.453   .     S
C212   C217    1.445   .     S
C212   N233    1.156   .     T
C213   C217    1.415   .     A
C214   C218    1.406   .     A
C214   C1090   1.411   1_554 S
C214   C1097   1.425   1_554 S
C215   C216    1.404   .     A
C215   C645    1.407   .     S
C215   C655    1.425   .     S
C216   O243    1.385   .     S
C216   C217    1.409   .     A
C219   H269    1.084   .     S
H221   C348    1.088   .     S
H222   N230    1.029   .     S
H223   C645    1.083   .     S
H227   O243    0.990   .     S
H228   O235    0.989   .     S
N229   N230    1.292   .     D
N229   Zn245   2.023   .     S
N230   Zn244   2.023   .     S
O234   Zn244   1.947   .     S
O234   C246    1.278   .     S
O235   C255    1.379   .     S
O236   Zn245   1.973   .     S
O237   Zn244   1.938   .     S
O237   C249    1.290   .     S
O238   Zn245   1.888   .     S
O239   Zn244   1.973   .     S
O240   Zn245   1.947   .     S
O241   Zn244   1.888   .     S
O242   Zn245   1.938   .     S
C246   O285    1.290   .     A
C246   C248    1.401   .     S
C247   C249    1.466   .     S
C247   C262    1.411   .     A
C247   C255    1.424   .     A
C248   C348    1.339   .     S
C248   H422    1.088   .     S
C249   O287    1.306   .     A
C250   C251    1.403   .     S
C250   C3      1.339   1_655 S
C251   O288    1.290   .     A
C251   O191    1.278   1_655 S
C252   O290    1.300   .     A
C252   C254    1.447   .     S
C252   O193    1.289   1_655 S
C253   C268    1.389   .     A
C253   C1146   1.407   1_554 S
C253   H1154   1.083   1_554 S
C254   C267    1.389   .     A
C254   C268    1.397   .     A
C255   C697    1.392   .     S
C256   C258    1.390   .     A
C256   H274    1.083   .     S
C256   C1137   1.392   1_554 S
C257   C262    1.400   .     A
C257   C699    1.413   .     S
C257   C704    1.411   .     S
C258   H273    1.080   .     S
C258   C1139   1.413   1_554 S
C259   N278    1.386   .     S
C259   N280    1.158   .     T
C260   N281    1.158   .     T
C260   C267    1.453   .     S
C261   C266    1.445   .     S
C261   N282    1.156   .     T
C262   C266    1.415   .     A
C263   C267    1.406   .     A
C263   C1139   1.411   1_554 S
C263   C1146   1.425   1_554 S
C264   C265    1.404   .     A
C264   C694    1.407   .     S
C264   C704    1.425   .     S
C265   O292    1.385   .     S
C265   C266    1.409   .     A
C268   H171    1.084   1_655 S
H270   C397    1.088   .     S
H271   N279    1.029   .     S
H272   C694    1.083   .     S
H276   O292    0.990   .     S
H277   O284    0.989   .     S
N278   N279    1.292   .     D
N278   Zn294   2.023   .     S
N279   Zn293   2.023   .     S
O283   Zn293   1.947   .     S
O283   C148    1.278   1_655 S
O284   C157    1.379   1_655 S
O285   Zn294   1.973   .     S
O286   Zn293   1.938   .     S
O286   C151    1.290   1_655 S
O287   Zn294   1.888   .     S
O288   Zn293   1.973   .     S
O289   Zn294   1.947   .     S
O290   Zn293   1.888   .     S
O291   Zn294   1.938   .     S
C295   O334    1.290   .     A
C295   C297    1.401   .     S
C295   O430    1.278   1_455 S
C296   C298    1.466   .     S
C296   C311    1.411   .     A
C296   C304    1.424   .     A
C297   C103    1.339   1_465 S
C297   H30     1.088   1_565 S
C298   O336    1.306   .     A
C298   O433    1.290   1_455 S
C299   C300    1.403   .     S
C300   O337    1.290   .     A
C300   O387    1.278   .     S
C301   O339    1.300   .     A
C301   C303    1.447   .     S
C301   O389    1.289   .     S
C302   C317    1.389   .     A
C302   C1195   1.407   1_554 S
C302   H1203   1.083   1_554 S
C303   C316    1.389   .     A
C303   C317    1.397   .     A
C304   C746    1.392   .     S
C304   O431    1.379   1_455 S
C305   C307    1.390   .     A
C305   H323    1.083   .     S
C305   C1186   1.392   1_554 S
C306   C311    1.400   .     A
C306   C748    1.413   .     S
C306   C753    1.411   .     S
C307   H322    1.080   .     S
C307   C1188   1.413   1_554 S
C308   N327    1.386   .     S
C308   N329    1.158   .     T
C309   N330    1.158   .     T
C309   C316    1.453   .     S
C310   C315    1.445   .     S
C310   N331    1.156   .     T
C311   C315    1.415   .     A
C312   C316    1.406   .     A
C312   C1188   1.411   1_554 S
C312   C1195   1.425   1_554 S
C313   C314    1.404   .     A
C313   C743    1.407   .     S
C313   C753    1.425   .     S
C314   O341    1.385   .     S
C314   C315    1.409   .     A
C317   H367    1.084   .     S
H318   C415    1.084   1_455 S
H319   C5      1.088   1_565 S
H320   N328    1.029   .     S
H321   C743    1.083   .     S
H325   O341    0.990   .     S
H326   O333    0.989   .     S
N327   N328    1.292   .     D
N327   Zn343   2.023   .     S
N328   Zn342   2.023   .     S
O332   Zn342   1.947   .     S
O332   C344    1.278   .     S
O333   C353    1.379   .     S
O334   Zn343   1.973   .     S
O335   Zn342   1.938   .     S
O335   C347    1.290   .     S
O336   Zn343   1.888   .     S
O337   Zn342   1.973   .     S
O338   Zn343   1.947   .     S
O338   C398    1.278   1_455 S
O339   Zn342   1.888   .     S
O340   Zn343   1.938   .     S
O340   C399    1.289   1_455 S
C344   O383    1.290   .     A
C344   C346    1.401   .     S
C345   C347    1.466   .     S
C345   C360    1.411   .     A
C345   C353    1.424   .     A
C346   C5      1.339   1_565 S
C346   H79     1.088   1_565 S
C347   O385    1.306   .     A
C348   C349    1.403   .     S
C349   O386    1.290   .     A
C349   O436    1.278   .     S
C350   O388    1.300   .     A
C350   C352    1.447   .     S
C350   O438    1.289   .     S
C351   C366    1.389   .     A
C351   C1244   1.407   1_554 S
C351   H1252   1.083   1_554 S
C352   C365    1.389   .     A
C352   C366    1.397   .     A
C353   C795    1.392   .     S
C354   C356    1.390   .     A
C354   H372    1.083   .     S
C354   C1235   1.392   1_554 S
C355   C360    1.400   .     A
C355   C797    1.413   .     S
C355   C802    1.411   .     S
C356   H371    1.080   .     S
C356   C1237   1.413   1_554 S
C357   N376    1.386   .     S
C357   N378    1.158   .     T
C358   N379    1.158   .     T
C358   C365    1.453   .     S
C359   C364    1.445   .     S
C359   N380    1.156   .     T
C360   C364    1.415   .     A
C361   C365    1.406   .     A
C361   C1237   1.411   1_554 S
C361   C1244   1.425   1_554 S
C362   C363    1.404   .     A
C362   C792    1.407   .     S
C362   C802    1.425   .     S
C363   O390    1.385   .     S
C363   C364    1.409   .     A
C366   H416    1.084   .     S
H368   C54     1.088   1_565 S
H369   N377    1.029   .     S
H370   C792    1.083   .     S
H374   O390    0.990   .     S
H375   O382    0.989   .     S
N376   N377    1.292   .     D
N376   Zn392   2.023   .     S
N377   Zn391   2.023   .     S
O381   Zn391   1.947   .     S
O381   C393    1.278   .     S
O382   C402    1.379   .     S
O383   Zn392   1.973   .     S
O384   Zn391   1.938   .     S
O384   C396    1.290   .     S
O385   Zn392   1.888   .     S
O386   Zn391   1.973   .     S
O387   Zn392   1.947   .     S
O388   Zn391   1.888   .     S
O389   Zn392   1.938   .     S
C393   O432    1.290   .     A
C393   C395    1.401   .     S
C394   C396    1.466   .     S
C394   C409    1.411   .     A
C394   C402    1.424   .     A
C395   C54     1.339   1_565 S
C395   H128    1.088   1_565 S
C396   O434    1.306   .     A
C397   C398    1.403   .     S
C397   C150    1.339   1_655 S
C398   O435    1.290   .     A
C398   O338    1.278   1_655 S
C399   O437    1.300   .     A
C399   C401    1.447   .     S
C399   O340    1.289   1_655 S
C400   C415    1.389   .     A
C400   C1293   1.407   1_554 S
C400   H1301   1.083   1_554 S
C401   C414    1.389   .     A
C401   C415    1.397   .     A
C402   C844    1.392   .     S
C403   C405    1.390   .     A
C403   H421    1.083   .     S
C403   C1284   1.392   1_554 S
C404   C409    1.400   .     A
C404   C846    1.413   .     S
C404   C851    1.411   .     S
C405   H420    1.080   .     S
C405   C1286   1.413   1_554 S
C406   N425    1.386   .     S
C406   N427    1.158   .     T
C407   N428    1.158   .     T
C407   C414    1.453   .     S
C408   C413    1.445   .     S
C408   N429    1.156   .     T
C409   C413    1.415   .     A
C410   C414    1.406   .     A
C410   C1286   1.411   1_554 S
C410   C1293   1.425   1_554 S
C411   C412    1.404   .     A
C411   C841    1.407   .     S
C411   C851    1.425   .     S
C412   O439    1.385   .     S
C412   C413    1.409   .     A
C415   H318    1.084   1_655 S
H417   C103    1.088   1_565 S
H418   N426    1.029   .     S
H419   C841    1.083   .     S
H423   O439    0.990   .     S
H424   O431    0.989   .     S
N425   N426    1.292   .     D
N425   Zn441   2.023   .     S
N426   Zn440   2.023   .     S
O430   Zn440   1.947   .     S
O430   C295    1.278   1_655 S
O431   C304    1.379   1_655 S
O432   Zn441   1.973   .     S
O433   Zn440   1.938   .     S
O433   C298    1.290   1_655 S
O434   Zn441   1.888   .     S
O435   Zn440   1.973   .     S
O436   Zn441   1.947   .     S
O437   Zn440   1.888   .     S
O438   Zn441   1.938   .     S
C442   O481    1.290   .     A
C442   C444    1.401   .     S
C442   O577    1.278   1_455 S
C443   C445    1.466   .     S
C443   C458    1.411   .     A
C443   C451    1.424   .     A
C444   C691    1.339   1_455 S
C444   H618    1.088   .     S
C445   O483    1.306   .     A
C445   O580    1.290   1_455 S
C446   C447    1.403   .     S
C446   C787    1.339   1_545 S
C446   H760    1.088   1_545 S
C447   O484    1.290   .     A
C447   O534    1.278   .     S
C448   O486    1.300   .     A
C448   C450    1.447   .     S
C448   O536    1.289   .     S
C449   C464    1.389   .     A
C450   C463    1.389   .     A
C450   C464    1.397   .     A
C451   C893    1.392   .     S
C451   O578    1.379   1_455 S
C452   C454    1.390   .     A
C452   H470    1.083   .     S
C453   C458    1.400   .     A
C453   C895    1.413   .     S
C453   C900    1.411   .     S
C454   H469    1.080   .     S
C455   N474    1.386   .     S
C455   N476    1.158   .     T
C456   N477    1.158   .     T
C456   C463    1.453   .     S
C457   C462    1.445   .     S
C457   N478    1.156   .     T
C458   C462    1.415   .     A
C459   C463    1.406   .     A
C460   C461    1.404   .     A
C460   C890    1.407   .     S
C460   C900    1.425   .     S
C461   O488    1.385   .     S
C461   C462    1.409   .     A
C464   H514    1.084   .     S
H465   C562    1.084   1_455 S
H466   C593    1.088   .     S
H467   N475    1.029   .     S
H468   C890    1.083   .     S
H471   C738    1.088   1_545 S
H472   O488    0.990   .     S
H473   O480    0.989   .     S
N474   N475    1.292   .     D
N474   Zn490   2.023   .     S
N475   Zn489   2.023   .     S
O479   Zn489   1.947   .     S
O479   C491    1.278   .     S
O480   C500    1.379   .     S
O481   Zn490   1.973   .     S
O482   Zn489   1.938   .     S
O482   C494    1.290   .     S
O483   Zn490   1.888   .     S
O484   Zn489   1.973   .     S
O485   Zn490   1.947   .     S
O485   C545    1.278   1_455 S
O486   Zn489   1.888   .     S
O487   Zn490   1.938   .     S
O487   C546    1.289   1_455 S
C491   O530    1.290   .     A
C491   C493    1.401   .     S
C492   C494    1.466   .     S
C492   C507    1.411   .     A
C492   C500    1.424   .     A
C493   C593    1.339   .     S
C493   H667    1.088   .     S
C494   O532    1.306   .     A
C495   C496    1.403   .     S
C495   C836    1.339   1_545 S
C495   H809    1.088   1_545 S
C496   O533    1.290   .     A
C496   O583    1.278   .     S
C497   O535    1.300   .     A
C497   C499    1.447   .     S
C497   O585    1.289   .     S
C498   C513    1.389   .     A
C499   C512    1.389   .     A
C499   C513    1.397   .     A
C500   C942    1.392   .     S
C501   C503    1.390   .     A
C501   H519    1.083   .     S
C502   C507    1.400   .     A
C502   C944    1.413   .     S
C502   C949    1.411   .     S
C503   H518    1.080   .     S
C504   N523    1.386   .     S
C504   N525    1.158   .     T
C505   N526    1.158   .     T
C505   C512    1.453   .     S
C506   C511    1.445   .     S
C506   N527    1.156   .     T
C507   C511    1.415   .     A
C508   C512    1.406   .     A
C509   C510    1.404   .     A
C509   C939    1.407   .     S
C509   C949    1.425   .     S
C510   O537    1.385   .     S
C510   C511    1.409   .     A
C513   H563    1.084   .     S
H515   C642    1.088   .     S
H516   N524    1.029   .     S
H517   C939    1.083   .     S
H520   C787    1.088   1_545 S
H521   O537    0.990   .     S
H522   O529    0.989   .     S
N523   N524    1.292   .     D
N523   Zn539   2.023   .     S
N524   Zn538   2.023   .     S
O528   Zn538   1.947   .     S
O528   C540    1.278   .     S
O529   C549    1.379   .     S
O530   Zn539   1.973   .     S
O531   Zn538   1.938   .     S
O531   C543    1.290   .     S
O532   Zn539   1.888   .     S
O533   Zn538   1.973   .     S
O534   Zn539   1.947   .     S
O535   Zn538   1.888   .     S
O536   Zn539   1.938   .     S
C540   O579    1.290   .     A
C540   C542    1.401   .     S
C541   C543    1.466   .     S
C541   C556    1.411   .     A
C541   C549    1.424   .     A
C542   C642    1.339   .     S
C542   H716    1.088   .     S
C543   O581    1.306   .     A
C544   C545    1.403   .     S
C544   C738    1.339   1_645 S
C544   H858    1.088   1_545 S
C545   O582    1.290   .     A
C545   O485    1.278   1_655 S
C546   O584    1.300   .     A
C546   C548    1.447   .     S
C546   O487    1.289   1_655 S
C547   C562    1.389   .     A
C548   C561    1.389   .     A
C548   C562    1.397   .     A
C549   C991    1.392   .     S
C550   C552    1.390   .     A
C550   H568    1.083   .     S
C551   C556    1.400   .     A
C551   C993    1.413   .     S
C551   C998    1.411   .     S
C552   H567    1.080   .     S
C553   N572    1.386   .     S
C553   N574    1.158   .     T
C554   N575    1.158   .     T
C554   C561    1.453   .     S
C555   C560    1.445   .     S
C555   N576    1.156   .     T
C556   C560    1.415   .     A
C557   C561    1.406   .     A
C558   C559    1.404   .     A
C558   C988    1.407   .     S
C558   C998    1.425   .     S
C559   O586    1.385   .     S
C559   C560    1.409   .     A
C562   H465    1.084   1_655 S
H564   C691    1.088   .     S
H565   N573    1.029   .     S
H566   C988    1.083   .     S
H569   C836    1.088   1_545 S
H570   O586    0.990   .     S
H571   O578    0.989   .     S
N572   N573    1.292   .     D
N572   Zn588   2.023   .     S
N573   Zn587   2.023   .     S
O577   Zn587   1.947   .     S
O577   C442    1.278   1_655 S
O578   C451    1.379   1_655 S
O579   Zn588   1.973   .     S
O580   Zn587   1.938   .     S
O580   C445    1.290   1_655 S
O581   Zn588   1.888   .     S
O582   Zn587   1.973   .     S
O583   Zn588   1.947   .     S
O584   Zn587   1.888   .     S
O585   Zn588   1.938   .     S
C589   O628    1.290   .     A
C589   C591    1.401   .     S
C589   O724    1.278   1_455 S
C590   C592    1.466   .     S
C590   C605    1.411   .     A
C590   C598    1.424   .     A
C591   C838    1.339   1_455 S
C591   H765    1.088   .     S
C592   O630    1.306   .     A
C592   O727    1.290   1_455 S
C593   C594    1.403   .     S
C594   O631    1.290   .     A
C594   O681    1.278   .     S
C595   O633    1.300   .     A
C595   C597    1.447   .     S
C595   O683    1.289   .     S
C596   C611    1.389   .     A
C597   C610    1.389   .     A
C597   C611    1.397   .     A
C598   C1040   1.392   .     S
C598   O725    1.379   1_455 S
C599   C601    1.390   .     A
C599   H617    1.083   .     S
C600   C605    1.400   .     A
C600   C1042   1.413   .     S
C600   C1047   1.411   .     S
C601   H616    1.080   .     S
C602   N621    1.386   .     S
C602   N623    1.158   .     T
C603   N624    1.158   .     T
C603   C610    1.453   .     S
C604   C609    1.445   .     S
C604   N625    1.156   .     T
C605   C609    1.415   .     A
C606   C610    1.406   .     A
C607   C608    1.404   .     A
C607   C1037   1.407   .     S
C607   C1047   1.425   .     S
C608   O635    1.385   .     S
C608   C609    1.409   .     A
C611   H661    1.084   .     S
H612   C709    1.084   1_455 S
H613   C740    1.088   .     S
H614   N622    1.029   .     S
H615   C1037   1.083   .     S
H619   O635    0.990   .     S
H620   O627    0.989   .     S
N621   N622    1.292   .     D
N621   Zn637   2.023   .     S
N622   Zn636   2.023   .     S
O626   Zn636   1.947   .     S
O626   C638    1.278   .     S
O627   C647    1.379   .     S
O628   Zn637   1.973   .     S
O629   Zn636   1.938   .     S
O629   C641    1.290   .     S
O630   Zn637   1.888   .     S
O631   Zn636   1.973   .     S
O632   Zn637   1.947   .     S
O632   C692    1.278   1_455 S
O633   Zn636   1.888   .     S
O634   Zn637   1.938   .     S
O634   C693    1.289   1_455 S
C638   O677    1.290   .     A
C638   C640    1.401   .     S
C639   C641    1.466   .     S
C639   C654    1.411   .     A
C639   C647    1.424   .     A
C640   C740    1.339   .     S
C640   H814    1.088   .     S
C641   O679    1.306   .     A
C642   C643    1.403   .     S
C643   O680    1.290   .     A
C643   O730    1.278   .     S
C644   O682    1.300   .     A
C644   C646    1.447   .     S
C644   O732    1.289   .     S
C645   C660    1.389   .     A
C646   C659    1.389   .     A
C646   C660    1.397   .     A
C647   C1089   1.392   .     S
C648   C650    1.390   .     A
C648   H666    1.083   .     S
C649   C654    1.400   .     A
C649   C1091   1.413   .     S
C649   C1096   1.411   .     S
C650   H665    1.080   .     S
C651   N670    1.386   .     S
C651   N672    1.158   .     T
C652   N673    1.158   .     T
C652   C659    1.453   .     S
C653   C658    1.445   .     S
C653   N674    1.156   .     T
C654   C658    1.415   .     A
C655   C659    1.406   .     A
C656   C657    1.404   .     A
C656   C1086   1.407   .     S
C656   C1096   1.425   .     S
C657   O684    1.385   .     S
C657   C658    1.409   .     A
C660   H710    1.084   .     S
H662   C789    1.088   .     S
H663   N671    1.029   .     S
H664   C1086   1.083   .     S
H668   O684    0.990   .     S
H669   O676    0.989   .     S
N670   N671    1.292   .     D
N670   Zn686   2.023   .     S
N671   Zn685   2.023   .     S
O675   Zn685   1.947   .     S
O675   C687    1.278   .     S
O676   C696    1.379   .     S
O677   Zn686   1.973   .     S
O678   Zn685   1.938   .     S
O678   C690    1.290   .     S
O679   Zn686   1.888   .     S
O680   Zn685   1.973   .     S
O681   Zn686   1.947   .     S
O682   Zn685   1.888   .     S
O683   Zn686   1.938   .     S
C687   O726    1.290   .     A
C687   C689    1.401   .     S
C688   C690    1.466   .     S
C688   C703    1.411   .     A
C688   C696    1.424   .     A
C689   C789    1.339   .     S
C689   H863    1.088   .     S
C690   O728    1.306   .     A
C691   C692    1.403   .     S
C691   C444    1.339   1_655 S
C692   O729    1.290   .     A
C692   O632    1.278   1_655 S
C693   O731    1.300   .     A
C693   C695    1.447   .     S
C693   O634    1.289   1_655 S
C694   C709    1.389   .     A
C695   C708    1.389   .     A
C695   C709    1.397   .     A
C696   C1138   1.392   .     S
C697   C699    1.390   .     A
C697   H715    1.083   .     S
C698   C703    1.400   .     A
C698   C1140   1.413   .     S
C698   C1145   1.411   .     S
C699   H714    1.080   .     S
C700   N719    1.386   .     S
C700   N721    1.158   .     T
C701   N722    1.158   .     T
C701   C708    1.453   .     S
C702   C707    1.445   .     S
C702   N723    1.156   .     T
C703   C707    1.415   .     A
C704   C708    1.406   .     A
C705   C706    1.404   .     A
C705   C1135   1.407   .     S
C705   C1145   1.425   .     S
C706   O733    1.385   .     S
C706   C707    1.409   .     A
C709   H612    1.084   1_655 S
H711   C838    1.088   .     S
H712   N720    1.029   .     S
H713   C1135   1.083   .     S
H717   O733    0.990   .     S
H718   O725    0.989   .     S
N719   N720    1.292   .     D
N719   Zn735   2.023   .     S
N720   Zn734   2.023   .     S
O724   Zn734   1.947   .     S
O724   C589    1.278   1_655 S
O725   C598    1.379   1_655 S
O726   Zn735   1.973   .     S
O727   Zn734   1.938   .     S
O727   C592    1.290   1_655 S
O728   Zn735   1.888   .     S
O729   Zn734   1.973   .     S
O730   Zn735   1.947   .     S
O731   Zn734   1.888   .     S
O732   Zn735   1.938   .     S
C736   O775    1.290   .     A
C736   C738    1.401   .     S
C736   O871    1.278   1_455 S
C737   C739    1.466   .     S
C737   C752    1.411   .     A
C737   C745    1.424   .     A
C738   C544    1.339   1_465 S
C738   H471    1.088   1_565 S
C739   O777    1.306   .     A
C739   O874    1.290   1_455 S
C740   C741    1.403   .     S
C741   O778    1.290   .     A
C741   O828    1.278   .     S
C742   O780    1.300   .     A
C742   C744    1.447   .     S
C742   O830    1.289   .     S
C743   C758    1.389   .     A
C744   C757    1.389   .     A
C744   C758    1.397   .     A
C745   C1187   1.392   .     S
C745   O872    1.379   1_455 S
C746   C748    1.390   .     A
C746   H764    1.083   .     S
C747   C752    1.400   .     A
C747   C1189   1.413   .     S
C747   C1194   1.411   .     S
C748   H763    1.080   .     S
C749   N768    1.386   .     S
C749   N770    1.158   .     T
C750   N771    1.158   .     T
C750   C757    1.453   .     S
C751   C756    1.445   .     S
C751   N772    1.156   .     T
C752   C756    1.415   .     A
C753   C757    1.406   .     A
C754   C755    1.404   .     A
C754   C1184   1.407   .     S
C754   C1194   1.425   .     S
C755   O782    1.385   .     S
C755   C756    1.409   .     A
C758   H808    1.084   .     S
H759   C856    1.084   1_455 S
H760   C446    1.088   1_565 S
H761   N769    1.029   .     S
H762   C1184   1.083   .     S
H766   O782    0.990   .     S
H767   O774    0.989   .     S
N768   N769    1.292   .     D
N768   Zn784   2.023   .     S
N769   Zn783   2.023   .     S
O773   Zn783   1.947   .     S
O773   C785    1.278   .     S
O774   C794    1.379   .     S
O775   Zn784   1.973   .     S
O776   Zn783   1.938   .     S
O776   C788    1.290   .     S
O777   Zn784   1.888   .     S
O778   Zn783   1.973   .     S
O779   Zn784   1.947   .     S
O779   C839    1.278   1_455 S
O780   Zn783   1.888   .     S
O781   Zn784   1.938   .     S
O781   C840    1.289   1_455 S
C785   O824    1.290   .     A
C785   C787    1.401   .     S
C786   C788    1.466   .     S
C786   C801    1.411   .     A
C786   C794    1.424   .     A
C787   C446    1.339   1_565 S
C787   H520    1.088   1_565 S
C788   O826    1.306   .     A
C789   C790    1.403   .     S
C790   O827    1.290   .     A
C790   O877    1.278   .     S
C791   O829    1.300   .     A
C791   C793    1.447   .     S
C791   O879    1.289   .     S
C792   C807    1.389   .     A
C793   C806    1.389   .     A
C793   C807    1.397   .     A
C794   C1236   1.392   .     S
C795   C797    1.390   .     A
C795   H813    1.083   .     S
C796   C801    1.400   .     A
C796   C1238   1.413   .     S
C796   C1243   1.411   .     S
C797   H812    1.080   .     S
C798   N817    1.386   .     S
C798   N819    1.158   .     T
C799   N820    1.158   .     T
C799   C806    1.453   .     S
C800   C805    1.445   .     S
C800   N821    1.156   .     T
C801   C805    1.415   .     A
C802   C806    1.406   .     A
C803   C804    1.404   .     A
C803   C1233   1.407   .     S
C803   C1243   1.425   .     S
C804   O831    1.385   .     S
C804   C805    1.409   .     A
C807   H857    1.084   .     S
H809   C495    1.088   1_565 S
H810   N818    1.029   .     S
H811   C1233   1.083   .     S
H815   O831    0.990   .     S
H816   O823    0.989   .     S
N817   N818    1.292   .     D
N817   Zn833   2.023   .     S
N818   Zn832   2.023   .     S
O822   Zn832   1.947   .     S
O822   C834    1.278   .     S
O823   C843    1.379   .     S
O824   Zn833   1.973   .     S
O825   Zn832   1.938   .     S
O825   C837    1.290   .     S
O826   Zn833   1.888   .     S
O827   Zn832   1.973   .     S
O828   Zn833   1.947   .     S
O829   Zn832   1.888   .     S
O830   Zn833   1.938   .     S
C834   O873    1.290   .     A
C834   C836    1.401   .     S
C835   C837    1.466   .     S
C835   C850    1.411   .     A
C835   C843    1.424   .     A
C836   C495    1.339   1_565 S
C836   H569    1.088   1_565 S
C837   O875    1.306   .     A
C838   C839    1.403   .     S
C838   C591    1.339   1_655 S
C839   O876    1.290   .     A
C839   O779    1.278   1_655 S
C840   O878    1.300   .     A
C840   C842    1.447   .     S
C840   O781    1.289   1_655 S
C841   C856    1.389   .     A
C842   C855    1.389   .     A
C842   C856    1.397   .     A
C843   C1285   1.392   .     S
C844   C846    1.390   .     A
C844   H862    1.083   .     S
C845   C850    1.400   .     A
C845   C1287   1.413   .     S
C845   C1292   1.411   .     S
C846   H861    1.080   .     S
C847   N866    1.386   .     S
C847   N868    1.158   .     T
C848   N869    1.158   .     T
C848   C855    1.453   .     S
C849   C854    1.445   .     S
C849   N870    1.156   .     T
C850   C854    1.415   .     A
C851   C855    1.406   .     A
C852   C853    1.404   .     A
C852   C1282   1.407   .     S
C852   C1292   1.425   .     S
C853   O880    1.385   .     S
C853   C854    1.409   .     A
C856   H759    1.084   1_655 S
H858   C544    1.088   1_565 S
H859   N867    1.029   .     S
H860   C1282   1.083   .     S
H864   O880    0.990   .     S
H865   O872    0.989   .     S
N866   N867    1.292   .     D
N866   Zn882   2.023   .     S
N867   Zn881   2.023   .     S
O871   Zn881   1.947   .     S
O871   C736    1.278   1_655 S
O872   C745    1.379   1_655 S
O873   Zn882   1.973   .     S
O874   Zn881   1.938   .     S
O874   C739    1.290   1_655 S
O875   Zn882   1.888   .     S
O876   Zn881   1.973   .     S
O877   Zn882   1.947   .     S
O878   Zn881   1.888   .     S
O879   Zn882   1.938   .     S
C883   O922    1.290   .     A
C883   C885    1.401   .     S
C883   O1018   1.278   1_455 S
C884   C886    1.466   .     S
C884   C899    1.411   .     A
C884   C892    1.424   .     A
C885   C1132   1.339   1_455 S
C885   H1059   1.088   .     S
C886   O924    1.306   .     A
C886   O1021   1.290   1_455 S
C887   C888    1.403   .     S
C887   C1228   1.339   1_545 S
C887   H1201   1.088   1_545 S
C888   O925    1.290   .     A
C888   O975    1.278   .     S
C889   O927    1.300   .     A
C889   C891    1.447   .     S
C889   O977    1.289   .     S
C890   C905    1.389   .     A
C891   C904    1.389   .     A
C891   C905    1.397   .     A
C892   C11     1.392   1_556 S
C892   O1019   1.379   1_455 S
C893   C895    1.390   .     A
C893   H911    1.083   .     S
C894   C899    1.400   .     A
C894   C13     1.413   1_556 S
C894   C18     1.411   1_556 S
C895   H910    1.080   .     S
C896   N915    1.386   .     S
C896   N917    1.158   .     T
C897   N918    1.158   .     T
C897   C904    1.453   .     S
C898   C903    1.445   .     S
C898   N919    1.156   .     T
C899   C903    1.415   .     A
C900   C904    1.406   .     A
C901   C902    1.404   .     A
C901   C8      1.407   1_556 S
C901   C18     1.425   1_556 S
C902   O929    1.385   .     S
C902   C903    1.409   .     A
C905   H955    1.084   .     S
H906   C1003   1.084   1_455 S
H907   C1034   1.088   .     S
H908   N916    1.029   .     S
H909   C8      1.083   1_556 S
H912   C1179   1.088   1_545 S
H913   O929    0.990   .     S
H914   O921    0.989   .     S
N915   N916    1.292   .     D
N915   Zn931   2.023   .     S
N916   Zn930   2.023   .     S
O920   Zn930   1.947   .     S
O920   C932    1.278   .     S
O921   C941    1.379   .     S
O922   Zn931   1.973   .     S
O923   Zn930   1.938   .     S
O923   C935    1.290   .     S
O924   Zn931   1.888   .     S
O925   Zn930   1.973   .     S
O926   Zn931   1.947   .     S
O926   C986    1.278   1_455 S
O927   Zn930   1.888   .     S
O928   Zn931   1.938   .     S
O928   C987    1.289   1_455 S
C932   O971    1.290   .     A
C932   C934    1.401   .     S
C933   C935    1.466   .     S
C933   C948    1.411   .     A
C933   C941    1.424   .     A
C934   C1034   1.339   .     S
C934   H1108   1.088   .     S
C935   O973    1.306   .     A
C936   C937    1.403   .     S
C936   C1277   1.339   1_545 S
C936   H1250   1.088   1_545 S
C937   O974    1.290   .     A
C937   O1024   1.278   .     S
C938   O976    1.300   .     A
C938   C940    1.447   .     S
C938   O1026   1.289   .     S
C939   C954    1.389   .     A
C940   C953    1.389   .     A
C940   C954    1.397   .     A
C941   C60     1.392   1_556 S
C942   C944    1.390   .     A
C942   H960    1.083   .     S
C943   C948    1.400   .     A
C943   C62     1.413   1_556 S
C943   C67     1.411   1_556 S
C944   H959    1.080   .     S
C945   N964    1.386   .     S
C945   N966    1.158   .     T
C946   N967    1.158   .     T
C946   C953    1.453   .     S
C947   C952    1.445   .     S
C947   N968    1.156   .     T
C948   C952    1.415   .     A
C949   C953    1.406   .     A
C950   C951    1.404   .     A
C950   C57     1.407   1_556 S
C950   C67     1.425   1_556 S
C951   O978    1.385   .     S
C951   C952    1.409   .     A
C954   H1004   1.084   .     S
H956   C1083   1.088   .     S
H957   N965    1.029   .     S
H958   C57     1.083   1_556 S
H961   C1228   1.088   1_545 S
H962   O978    0.990   .     S
H963   O970    0.989   .     S
N964   N965    1.292   .     D
N964   Zn980   2.023   .     S
N965   Zn979   2.023   .     S
O969   Zn979   1.947   .     S
O969   C981    1.278   .     S
O970   C990    1.379   .     S
O971   Zn980   1.973   .     S
O972   Zn979   1.938   .     S
O972   C984    1.290   .     S
O973   Zn980   1.888   .     S
O974   Zn979   1.973   .     S
O975   Zn980   1.947   .     S
O976   Zn979   1.888   .     S
O977   Zn980   1.938   .     S
C981   O1020   1.290   .     A
C981   C983    1.401   .     S
C982   C984    1.466   .     S
C982   C997    1.411   .     A
C982   C990    1.424   .     A
C983   C1083   1.339   .     S
C983   H1157   1.088   .     S
C984   O1022   1.306   .     A
C985   C986    1.403   .     S
C985   C1179   1.339   1_645 S
C985   H1299   1.088   1_545 S
C986   O1023   1.290   .     A
C986   O926    1.278   1_655 S
C987   O1025   1.300   .     A
C987   C989    1.447   .     S
C987   O928    1.289   1_655 S
C988   C1003   1.389   .     A
C989   C1002   1.389   .     A
C989   C1003   1.397   .     A
C990   C109    1.392   1_556 S
C991   C993    1.390   .     A
C991   H1009   1.083   .     S
C992   C997    1.400   .     A
C992   C111    1.413   1_556 S
C992   C116    1.411   1_556 S
C993   H1008   1.080   .     S
C994   N1013   1.386   .     S
C994   N1015   1.158   .     T
C995   N1016   1.158   .     T
C995   C1002   1.453   .     S
C996   C1001   1.445   .     S
C996   N1017   1.156   .     T
C997   C1001   1.415   .     A
C998   C1002   1.406   .     A
C999   C1000   1.404   .     A
C999   C106    1.407   1_556 S
C999   C116    1.425   1_556 S
C1000  O1027   1.385   .     S
C1000  C1001   1.409   .     A
C1003  H906    1.084   1_655 S
H1005  C1132   1.088   .     S
H1006  N1014   1.029   .     S
H1007  C106    1.083   1_556 S
H1010  C1277   1.088   1_545 S
H1011  O1027   0.990   .     S
H1012  O1019   0.989   .     S
N1013  N1014   1.292   .     D
N1013  Zn1029  2.023   .     S
N1014  Zn1028  2.023   .     S
O1018  Zn1028  1.947   .     S
O1018  C883    1.278   1_655 S
O1019  C892    1.379   1_655 S
O1020  Zn1029  1.973   .     S
O1021  Zn1028  1.938   .     S
O1021  C886    1.290   1_655 S
O1022  Zn1029  1.888   .     S
O1023  Zn1028  1.973   .     S
O1024  Zn1029  1.947   .     S
O1025  Zn1028  1.888   .     S
O1026  Zn1029  1.938   .     S
C1030  O1069   1.290   .     A
C1030  C1032   1.401   .     S
C1030  O1165   1.278   1_455 S
C1031  C1033   1.466   .     S
C1031  C1046   1.411   .     A
C1031  C1039   1.424   .     A
C1032  C1279   1.339   1_455 S
C1032  H1206   1.088   .     S
C1033  O1071   1.306   .     A
C1033  O1168   1.290   1_455 S
C1034  C1035   1.403   .     S
C1035  O1072   1.290   .     A
C1035  O1122   1.278   .     S
C1036  O1074   1.300   .     A
C1036  C1038   1.447   .     S
C1036  O1124   1.289   .     S
C1037  C1052   1.389   .     A
C1038  C1051   1.389   .     A
C1038  C1052   1.397   .     A
C1039  C158    1.392   1_556 S
C1039  O1166   1.379   1_455 S
C1040  C1042   1.390   .     A
C1040  H1058   1.083   .     S
C1041  C1046   1.400   .     A
C1041  C160    1.413   1_556 S
C1041  C165    1.411   1_556 S
C1042  H1057   1.080   .     S
C1043  N1062   1.386   .     S
C1043  N1064   1.158   .     T
C1044  N1065   1.158   .     T
C1044  C1051   1.453   .     S
C1045  C1050   1.445   .     S
C1045  N1066   1.156   .     T
C1046  C1050   1.415   .     A
C1047  C1051   1.406   .     A
C1048  C1049   1.404   .     A
C1048  C155    1.407   1_556 S
C1048  C165    1.425   1_556 S
C1049  O1076   1.385   .     S
C1049  C1050   1.409   .     A
C1052  H1102   1.084   .     S
H1053  C1150   1.084   1_455 S
H1054  C1181   1.088   .     S
H1055  N1063   1.029   .     S
H1056  C155    1.083   1_556 S
H1060  O1076   0.990   .     S
H1061  O1068   0.989   .     S
N1062  N1063   1.292   .     D
N1062  Zn1078  2.023   .     S
N1063  Zn1077  2.023   .     S
O1067  Zn1077  1.947   .     S
O1067  C1079   1.278   .     S
O1068  C1088   1.379   .     S
O1069  Zn1078  1.973   .     S
O1070  Zn1077  1.938   .     S
O1070  C1082   1.290   .     S
O1071  Zn1078  1.888   .     S
O1072  Zn1077  1.973   .     S
O1073  Zn1078  1.947   .     S
O1073  C1133   1.278   1_455 S
O1074  Zn1077  1.888   .     S
O1075  Zn1078  1.938   .     S
O1075  C1134   1.289   1_455 S
C1079  O1118   1.290   .     A
C1079  C1081   1.401   .     S
C1080  C1082   1.466   .     S
C1080  C1095   1.411   .     A
C1080  C1088   1.424   .     A
C1081  C1181   1.339   .     S
C1081  H1255   1.088   .     S
C1082  O1120   1.306   .     A
C1083  C1084   1.403   .     S
C1084  O1121   1.290   .     A
C1084  O1171   1.278   .     S
C1085  O1123   1.300   .     A
C1085  C1087   1.447   .     S
C1085  O1173   1.289   .     S
C1086  C1101   1.389   .     A
C1087  C1100   1.389   .     A
C1087  C1101   1.397   .     A
C1088  C207    1.392   1_556 S
C1089  C1091   1.390   .     A
C1089  H1107   1.083   .     S
C1090  C1095   1.400   .     A
C1090  C209    1.413   1_556 S
C1090  C214    1.411   1_556 S
C1091  H1106   1.080   .     S
C1092  N1111   1.386   .     S
C1092  N1113   1.158   .     T
C1093  N1114   1.158   .     T
C1093  C1100   1.453   .     S
C1094  C1099   1.445   .     S
C1094  N1115   1.156   .     T
C1095  C1099   1.415   .     A
C1096  C1100   1.406   .     A
C1097  C1098   1.404   .     A
C1097  C204    1.407   1_556 S
C1097  C214    1.425   1_556 S
C1098  O1125   1.385   .     S
C1098  C1099   1.409   .     A
C1101  H1151   1.084   .     S
H1103  C1230   1.088   .     S
H1104  N1112   1.029   .     S
H1105  C204    1.083   1_556 S
H1109  O1125   0.990   .     S
H1110  O1117   0.989   .     S
N1111  N1112   1.292   .     D
N1111  Zn1127  2.023   .     S
N1112  Zn1126  2.023   .     S
O1116  Zn1126  1.947   .     S
O1116  C1128   1.278   .     S
O1117  C1137   1.379   .     S
O1118  Zn1127  1.973   .     S
O1119  Zn1126  1.938   .     S
O1119  C1131   1.290   .     S
O1120  Zn1127  1.888   .     S
O1121  Zn1126  1.973   .     S
O1122  Zn1127  1.947   .     S
O1123  Zn1126  1.888   .     S
O1124  Zn1127  1.938   .     S
C1128  O1167   1.290   .     A
C1128  C1130   1.401   .     S
C1129  C1131   1.466   .     S
C1129  C1144   1.411   .     A
C1129  C1137   1.424   .     A
C1130  C1230   1.339   .     S
C1130  H1304   1.088   .     S
C1131  O1169   1.306   .     A
C1132  C1133   1.403   .     S
C1132  C885    1.339   1_655 S
C1133  O1170   1.290   .     A
C1133  O1073   1.278   1_655 S
C1134  O1172   1.300   .     A
C1134  C1136   1.447   .     S
C1134  O1075   1.289   1_655 S
C1135  C1150   1.389   .     A
C1136  C1149   1.389   .     A
C1136  C1150   1.397   .     A
C1137  C256    1.392   1_556 S
C1138  C1140   1.390   .     A
C1138  H1156   1.083   .     S
C1139  C1144   1.400   .     A
C1139  C258    1.413   1_556 S
C1139  C263    1.411   1_556 S
C1140  H1155   1.080   .     S
C1141  N1160   1.386   .     S
C1141  N1162   1.158   .     T
C1142  N1163   1.158   .     T
C1142  C1149   1.453   .     S
C1143  C1148   1.445   .     S
C1143  N1164   1.156   .     T
C1144  C1148   1.415   .     A
C1145  C1149   1.406   .     A
C1146  C1147   1.404   .     A
C1146  C253    1.407   1_556 S
C1146  C263    1.425   1_556 S
C1147  O1174   1.385   .     S
C1147  C1148   1.409   .     A
C1150  H1053   1.084   1_655 S
H1152  C1279   1.088   .     S
H1153  N1161   1.029   .     S
H1154  C253    1.083   1_556 S
H1158  O1174   0.990   .     S
H1159  O1166   0.989   .     S
N1160  N1161   1.292   .     D
N1160  Zn1176  2.023   .     S
N1161  Zn1175  2.023   .     S
O1165  Zn1175  1.947   .     S
O1165  C1030   1.278   1_655 S
O1166  C1039   1.379   1_655 S
O1167  Zn1176  1.973   .     S
O1168  Zn1175  1.938   .     S
O1168  C1033   1.290   1_655 S
O1169  Zn1176  1.888   .     S
O1170  Zn1175  1.973   .     S
O1171  Zn1176  1.947   .     S
O1172  Zn1175  1.888   .     S
O1173  Zn1176  1.938   .     S
C1177  O1216   1.290   .     A
C1177  C1179   1.401   .     S
C1177  O1312   1.278   1_455 S
C1178  C1180   1.466   .     S
C1178  C1193   1.411   .     A
C1178  C1186   1.424   .     A
C1179  C985    1.339   1_465 S
C1179  H912    1.088   1_565 S
C1180  O1218   1.306   .     A
C1180  O1315   1.290   1_455 S
C1181  C1182   1.403   .     S
C1182  O1219   1.290   .     A
C1182  O1269   1.278   .     S
C1183  O1221   1.300   .     A
C1183  C1185   1.447   .     S
C1183  O1271   1.289   .     S
C1184  C1199   1.389   .     A
C1185  C1198   1.389   .     A
C1185  C1199   1.397   .     A
C1186  C305    1.392   1_556 S
C1186  O1313   1.379   1_455 S
C1187  C1189   1.390   .     A
C1187  H1205   1.083   .     S
C1188  C1193   1.400   .     A
C1188  C307    1.413   1_556 S
C1188  C312    1.411   1_556 S
C1189  H1204   1.080   .     S
C1190  N1209   1.386   .     S
C1190  N1211   1.158   .     T
C1191  N1212   1.158   .     T
C1191  C1198   1.453   .     S
C1192  C1197   1.445   .     S
C1192  N1213   1.156   .     T
C1193  C1197   1.415   .     A
C1194  C1198   1.406   .     A
C1195  C1196   1.404   .     A
C1195  C302    1.407   1_556 S
C1195  C312    1.425   1_556 S
C1196  O1223   1.385   .     S
C1196  C1197   1.409   .     A
C1199  H1249   1.084   .     S
H1200  C1297   1.084   1_455 S
H1201  C887    1.088   1_565 S
H1202  N1210   1.029   .     S
H1203  C302    1.083   1_556 S
H1207  O1223   0.990   .     S
H1208  O1215   0.989   .     S
N1209  N1210   1.292   .     D
N1209  Zn1225  2.023   .     S
N1210  Zn1224  2.023   .     S
O1214  Zn1224  1.947   .     S
O1214  C1226   1.278   .     S
O1215  C1235   1.379   .     S
O1216  Zn1225  1.973   .     S
O1217  Zn1224  1.938   .     S
O1217  C1229   1.290   .     S
O1218  Zn1225  1.888   .     S
O1219  Zn1224  1.973   .     S
O1220  Zn1225  1.947   .     S
O1220  C1280   1.278   1_455 S
O1221  Zn1224  1.888   .     S
O1222  Zn1225  1.938   .     S
O1222  C1281   1.289   1_455 S
C1226  O1265   1.290   .     A
C1226  C1228   1.401   .     S
C1227  C1229   1.466   .     S
C1227  C1242   1.411   .     A
C1227  C1235   1.424   .     A
C1228  C887    1.339   1_565 S
C1228  H961    1.088   1_565 S
C1229  O1267   1.306   .     A
C1230  C1231   1.403   .     S
C1231  O1268   1.290   .     A
C1231  O1318   1.278   .     S
C1232  O1270   1.300   .     A
C1232  C1234   1.447   .     S
C1232  O1320   1.289   .     S
C1233  C1248   1.389   .     A
C1234  C1247   1.389   .     A
C1234  C1248   1.397   .     A
C1235  C354    1.392   1_556 S
C1236  C1238   1.390   .     A
C1236  H1254   1.083   .     S
C1237  C1242   1.400   .     A
C1237  C356    1.413   1_556 S
C1237  C361    1.411   1_556 S
C1238  H1253   1.080   .     S
C1239  N1258   1.386   .     S
C1239  N1260   1.158   .     T
C1240  N1261   1.158   .     T
C1240  C1247   1.453   .     S
C1241  C1246   1.445   .     S
C1241  N1262   1.156   .     T
C1242  C1246   1.415   .     A
C1243  C1247   1.406   .     A
C1244  C1245   1.404   .     A
C1244  C351    1.407   1_556 S
C1244  C361    1.425   1_556 S
C1245  O1272   1.385   .     S
C1245  C1246   1.409   .     A
C1248  H1298   1.084   .     S
H1250  C936    1.088   1_565 S
H1251  N1259   1.029   .     S
H1252  C351    1.083   1_556 S
H1256  O1272   0.990   .     S
H1257  O1264   0.989   .     S
N1258  N1259   1.292   .     D
N1258  Zn1274  2.023   .     S
N1259  Zn1273  2.023   .     S
O1263  Zn1273  1.947   .     S
O1263  C1275   1.278   .     S
O1264  C1284   1.379   .     S
O1265  Zn1274  1.973   .     S
O1266  Zn1273  1.938   .     S
O1266  C1278   1.290   .     S
O1267  Zn1274  1.888   .     S
O1268  Zn1273  1.973   .     S
O1269  Zn1274  1.947   .     S
O1270  Zn1273  1.888   .     S
O1271  Zn1274  1.938   .     S
C1275  O1314   1.290   .     A
C1275  C1277   1.401   .     S
C1276  C1278   1.466   .     S
C1276  C1291   1.411   .     A
C1276  C1284   1.424   .     A
C1277  C936    1.339   1_565 S
C1277  H1010   1.088   1_565 S
C1278  O1316   1.306   .     A
C1279  C1280   1.403   .     S
C1279  C1032   1.339   1_655 S
C1280  O1317   1.290   .     A
C1280  O1220   1.278   1_655 S
C1281  O1319   1.300   .     A
C1281  C1283   1.447   .     S
C1281  O1222   1.289   1_655 S
C1282  C1297   1.389   .     A
C1283  C1296   1.389   .     A
C1283  C1297   1.397   .     A
C1284  C403    1.392   1_556 S
C1285  C1287   1.390   .     A
C1285  H1303   1.083   .     S
C1286  C1291   1.400   .     A
C1286  C405    1.413   1_556 S
C1286  C410    1.411   1_556 S
C1287  H1302   1.080   .     S
C1288  N1307   1.386   .     S
C1288  N1309   1.158   .     T
C1289  N1310   1.158   .     T
C1289  C1296   1.453   .     S
C1290  C1295   1.445   .     S
C1290  N1311   1.156   .     T
C1291  C1295   1.415   .     A
C1292  C1296   1.406   .     A
C1293  C1294   1.404   .     A
C1293  C400    1.407   1_556 S
C1293  C410    1.425   1_556 S
C1294  O1321   1.385   .     S
C1294  C1295   1.409   .     A
C1297  H1200   1.084   1_655 S
H1299  C985    1.088   1_565 S
H1300  N1308   1.029   .     S
H1301  C400    1.083   1_556 S
H1305  O1321   0.990   .     S
H1306  O1313   0.989   .     S
N1307  N1308   1.292   .     D
N1307  Zn1323  2.023   .     S
N1308  Zn1322  2.023   .     S
O1312  Zn1322  1.947   .     S
O1312  C1177   1.278   1_655 S
O1313  C1186   1.379   1_655 S
O1314  Zn1323  1.973   .     S
O1315  Zn1322  1.938   .     S
O1315  C1180   1.290   1_655 S
O1316  Zn1323  1.888   .     S
O1317  Zn1322  1.973   .     S
O1318  Zn1323  1.947   .     S
O1319  Zn1322  1.888   .     S
O1320  Zn1323  1.938   .     S
