data_str_m3_o1_o5_pcu_sym.6
_audit_creation_date              2020-01-03
_audit_creation_method            'Materials Studio'
_symmetry_space_group_name_H-M    'P1'
_symmetry_Int_Tables_number       1
_symmetry_cell_setting            triclinic
loop_
_symmetry_equiv_pos_as_xyz
  x,y,z
_cell_length_a                    32.4955
_cell_length_b                    29.6311
_cell_length_c                    26.7037
_cell_angle_alpha                 89.8497
_cell_angle_beta                  91.5362
_cell_angle_gamma                 89.1907
loop_
_atom_site_label
_atom_site_type_symbol
_atom_site_fract_x
_atom_site_fract_y
_atom_site_fract_z
_atom_site_U_iso_or_equiv
_atom_site_adp_type
_atom_site_occupancy
O1     O     0.10559   0.20487   0.16666   0.00000  Uiso   1.00
O2     O     0.22774   0.12846   0.16667   0.00000  Uiso   1.00
O3     O     0.22774   0.20487   0.16667   0.00000  Uiso   1.00
O4     O     0.10559   0.12846   0.16666   0.00000  Uiso   1.00
C5     C     0.08673   0.16702   0.17008   0.00000  Uiso   1.00
C6     C     0.24661   0.16632   0.16325   0.00000  Uiso   1.00
O7     O     0.16667   0.20488   0.09511   0.00000  Uiso   1.00
O8     O     0.16666   0.12845   0.23822   0.00000  Uiso   1.00
O9     O     0.16666   0.20488   0.23822   0.00000  Uiso   1.00
O10    O     0.16667   0.12845   0.09511   0.00000  Uiso   1.00
C11    C     0.16659   0.16670   0.07291   0.00000  Uiso   1.00
C12    C     0.16675   0.16663   0.26042   0.00000  Uiso   1.00
Zn13   Zn    0.16667   0.21771   0.16667   0.00000  Uiso   1.00
Zn14   Zn    0.16667   0.11563   0.16667   0.00000  Uiso   1.00
C15    C     0.16664   0.16672   0.02180   0.00000  Uiso   1.00
C16    C     0.16669   0.16661   0.31153   0.00000  Uiso   1.00
C17    C     0.02177   0.12622   0.17785   0.00000  Uiso   1.00
C18    C     0.31156   0.20711   0.15548   0.00000  Uiso   1.00
C19    C     0.31318   0.12479   0.16763   0.00000  Uiso   1.00
C20    C     0.02016   0.20854   0.16570   0.00000  Uiso   1.00
C21    C     0.29099   0.16568   0.15960   0.00000  Uiso   1.00
C22    C     0.04235   0.16766   0.17373   0.00000  Uiso   1.00
C23    C     0.18913   0.02357   0.20203   0.00000  Uiso   1.00
C24    C     0.14421   0.30977   0.13130   0.00000  Uiso   1.00
C25    C     0.14393   0.02449   0.13156   0.00000  Uiso   1.00
C26    C     0.18940   0.30885   0.20177   0.00000  Uiso   1.00
N27    N     0.16667   0.28573   0.16667   0.00000  Uiso   1.00
N28    N     0.16667   0.04760   0.16667   0.00000  Uiso   1.00
N29    N     0.04311   0.08545   0.19338   0.00000  Uiso   1.00
O30    O     0.06147   0.08323   0.23725   0.00000  Uiso   1.00
O31    O     0.04359   0.05032   0.16426   0.00000  Uiso   1.00
N32    N     0.29022   0.24788   0.13995   0.00000  Uiso   1.00
O33    O     0.27186   0.25010   0.09609   0.00000  Uiso   1.00
O34    O     0.28974   0.28302   0.16907   0.00000  Uiso   1.00
N35    N     0.29373   0.08156   0.16441   0.00000  Uiso   1.00
O36    O     0.27769   0.06834   0.12183   0.00000  Uiso   1.00
O37    O     0.29739   0.05292   0.20133   0.00000  Uiso   1.00
N38    N     0.03960   0.25177   0.16892   0.00000  Uiso   1.00
O39    O     0.05564   0.26500   0.21150   0.00000  Uiso   1.00
O40    O     0.03595   0.28041   0.13201   0.00000  Uiso   1.00
C41    C     0.21199   0.04726   0.24056   0.00000  Uiso   1.00
N42    N     0.23032   0.06586   0.27182   0.00000  Uiso   1.00
C43    C     0.12135   0.28607   0.09278   0.00000  Uiso   1.00
N44    N     0.10302   0.26748   0.06151   0.00000  Uiso   1.00
C45    C     0.11901   0.04924   0.09502   0.00000  Uiso   1.00
N46    N     0.09882   0.06875   0.06563   0.00000  Uiso   1.00
C47    C     0.21432   0.28409   0.23831   0.00000  Uiso   1.00
N48    N     0.23451   0.26458   0.26770   0.00000  Uiso   1.00
O49    O     0.43892   0.20487   0.16666   0.00000  Uiso   1.00
O50    O     0.56108   0.12846   0.16667   0.00000  Uiso   1.00
O51    O     0.56108   0.20487   0.16667   0.00000  Uiso   1.00
O52    O     0.43892   0.12846   0.16666   0.00000  Uiso   1.00
C53    C     0.42006   0.16702   0.17008   0.00000  Uiso   1.00
C54    C     0.57994   0.16632   0.16325   0.00000  Uiso   1.00
O55    O     0.50000   0.20488   0.09511   0.00000  Uiso   1.00
O56    O     0.50000   0.12845   0.23822   0.00000  Uiso   1.00
O57    O     0.50000   0.20488   0.23822   0.00000  Uiso   1.00
O58    O     0.50000   0.12845   0.09511   0.00000  Uiso   1.00
C59    C     0.49992   0.16670   0.07291   0.00000  Uiso   1.00
C60    C     0.50008   0.16663   0.26042   0.00000  Uiso   1.00
Zn61   Zn    0.50000   0.21771   0.16667   0.00000  Uiso   1.00
Zn62   Zn    0.50000   0.11563   0.16667   0.00000  Uiso   1.00
C63    C     0.49997   0.16672   0.02180   0.00000  Uiso   1.00
C64    C     0.50003   0.16661   0.31153   0.00000  Uiso   1.00
C65    C     0.35511   0.12622   0.17785   0.00000  Uiso   1.00
C66    C     0.64489   0.20711   0.15548   0.00000  Uiso   1.00
C67    C     0.64651   0.12479   0.16763   0.00000  Uiso   1.00
C68    C     0.35349   0.20854   0.16570   0.00000  Uiso   1.00
C69    C     0.62432   0.16568   0.15960   0.00000  Uiso   1.00
C70    C     0.37568   0.16766   0.17373   0.00000  Uiso   1.00
C71    C     0.52246   0.02357   0.20203   0.00000  Uiso   1.00
C72    C     0.47754   0.30977   0.13130   0.00000  Uiso   1.00
C73    C     0.47727   0.02449   0.13156   0.00000  Uiso   1.00
C74    C     0.52274   0.30885   0.20177   0.00000  Uiso   1.00
N75    N     0.50000   0.28573   0.16667   0.00000  Uiso   1.00
N76    N     0.50000   0.04760   0.16667   0.00000  Uiso   1.00
N77    N     0.37644   0.08545   0.19338   0.00000  Uiso   1.00
O78    O     0.39481   0.08323   0.23725   0.00000  Uiso   1.00
O79    O     0.37692   0.05032   0.16426   0.00000  Uiso   1.00
N80    N     0.62356   0.24788   0.13995   0.00000  Uiso   1.00
O81    O     0.60519   0.25010   0.09609   0.00000  Uiso   1.00
O82    O     0.62308   0.28302   0.16907   0.00000  Uiso   1.00
N83    N     0.62707   0.08156   0.16441   0.00000  Uiso   1.00
O84    O     0.61102   0.06834   0.12183   0.00000  Uiso   1.00
O85    O     0.63072   0.05292   0.20133   0.00000  Uiso   1.00
N86    N     0.37293   0.25177   0.16892   0.00000  Uiso   1.00
O87    O     0.38898   0.26500   0.21150   0.00000  Uiso   1.00
O88    O     0.36928   0.28041   0.13201   0.00000  Uiso   1.00
C89    C     0.54532   0.04726   0.24056   0.00000  Uiso   1.00
N90    N     0.56365   0.06586   0.27182   0.00000  Uiso   1.00
C91    C     0.45468   0.28607   0.09278   0.00000  Uiso   1.00
N92    N     0.43635   0.26748   0.06151   0.00000  Uiso   1.00
C93    C     0.45235   0.04924   0.09502   0.00000  Uiso   1.00
N94    N     0.43216   0.06875   0.06563   0.00000  Uiso   1.00
C95    C     0.54765   0.28409   0.23831   0.00000  Uiso   1.00
N96    N     0.56784   0.26458   0.26770   0.00000  Uiso   1.00
O97    O     0.77226   0.20487   0.16666   0.00000  Uiso   1.00
O98    O     0.89441   0.12846   0.16667   0.00000  Uiso   1.00
O99    O     0.89441   0.20487   0.16667   0.00000  Uiso   1.00
O100   O     0.77226   0.12846   0.16666   0.00000  Uiso   1.00
C101   C     0.75339   0.16702   0.17008   0.00000  Uiso   1.00
C102   C     0.91327   0.16632   0.16325   0.00000  Uiso   1.00
O103   O     0.83334   0.20488   0.09511   0.00000  Uiso   1.00
O104   O     0.83333   0.12845   0.23822   0.00000  Uiso   1.00
O105   O     0.83333   0.20488   0.23822   0.00000  Uiso   1.00
O106   O     0.83334   0.12845   0.09511   0.00000  Uiso   1.00
C107   C     0.83326   0.16670   0.07291   0.00000  Uiso   1.00
C108   C     0.83341   0.16663   0.26042   0.00000  Uiso   1.00
Zn109  Zn    0.83333   0.21771   0.16667   0.00000  Uiso   1.00
Zn110  Zn    0.83333   0.11563   0.16667   0.00000  Uiso   1.00
C111   C     0.83331   0.16672   0.02180   0.00000  Uiso   1.00
C112   C     0.83336   0.16661   0.31153   0.00000  Uiso   1.00
C113   C     0.68844   0.12622   0.17785   0.00000  Uiso   1.00
C114   C     0.97823   0.20711   0.15548   0.00000  Uiso   1.00
C115   C     0.97984   0.12479   0.16763   0.00000  Uiso   1.00
C116   C     0.68682   0.20854   0.16570   0.00000  Uiso   1.00
C117   C     0.95765   0.16568   0.15960   0.00000  Uiso   1.00
C118   C     0.70901   0.16766   0.17373   0.00000  Uiso   1.00
C119   C     0.85579   0.02357   0.20203   0.00000  Uiso   1.00
C120   C     0.81088   0.30977   0.13130   0.00000  Uiso   1.00
C121   C     0.81060   0.02449   0.13156   0.00000  Uiso   1.00
C122   C     0.85607   0.30885   0.20177   0.00000  Uiso   1.00
N123   N     0.83333   0.28573   0.16667   0.00000  Uiso   1.00
N124   N     0.83333   0.04760   0.16667   0.00000  Uiso   1.00
N125   N     0.70978   0.08545   0.19338   0.00000  Uiso   1.00
O126   O     0.72814   0.08323   0.23725   0.00000  Uiso   1.00
O127   O     0.71026   0.05032   0.16426   0.00000  Uiso   1.00
N128   N     0.95689   0.24788   0.13995   0.00000  Uiso   1.00
O129   O     0.93853   0.25010   0.09609   0.00000  Uiso   1.00
O130   O     0.95641   0.28302   0.16907   0.00000  Uiso   1.00
N131   N     0.96040   0.08156   0.16441   0.00000  Uiso   1.00
O132   O     0.94436   0.06834   0.12183   0.00000  Uiso   1.00
O133   O     0.96405   0.05292   0.20133   0.00000  Uiso   1.00
N134   N     0.70627   0.25177   0.16892   0.00000  Uiso   1.00
O135   O     0.72231   0.26500   0.21150   0.00000  Uiso   1.00
O136   O     0.70261   0.28041   0.13201   0.00000  Uiso   1.00
C137   C     0.87865   0.04726   0.24056   0.00000  Uiso   1.00
N138   N     0.89699   0.06586   0.27182   0.00000  Uiso   1.00
C139   C     0.78801   0.28607   0.09278   0.00000  Uiso   1.00
N140   N     0.76968   0.26748   0.06151   0.00000  Uiso   1.00
C141   C     0.78568   0.04924   0.09502   0.00000  Uiso   1.00
N142   N     0.76549   0.06875   0.06563   0.00000  Uiso   1.00
C143   C     0.88099   0.28409   0.23831   0.00000  Uiso   1.00
N144   N     0.90118   0.26458   0.26770   0.00000  Uiso   1.00
O145   O     0.10559   0.53821   0.16666   0.00000  Uiso   1.00
O146   O     0.22774   0.46179   0.16667   0.00000  Uiso   1.00
O147   O     0.22774   0.53821   0.16667   0.00000  Uiso   1.00
O148   O     0.10559   0.46179   0.16666   0.00000  Uiso   1.00
C149   C     0.08673   0.50035   0.17008   0.00000  Uiso   1.00
C150   C     0.24661   0.49965   0.16325   0.00000  Uiso   1.00
O151   O     0.16667   0.53821   0.09511   0.00000  Uiso   1.00
O152   O     0.16666   0.46179   0.23822   0.00000  Uiso   1.00
O153   O     0.16666   0.53821   0.23822   0.00000  Uiso   1.00
O154   O     0.16667   0.46179   0.09511   0.00000  Uiso   1.00
C155   C     0.16659   0.50004   0.07291   0.00000  Uiso   1.00
C156   C     0.16675   0.49996   0.26042   0.00000  Uiso   1.00
Zn157  Zn    0.16667   0.55104   0.16667   0.00000  Uiso   1.00
Zn158  Zn    0.16667   0.44896   0.16667   0.00000  Uiso   1.00
C159   C     0.16664   0.50005   0.02180   0.00000  Uiso   1.00
C160   C     0.16669   0.49995   0.31153   0.00000  Uiso   1.00
C161   C     0.02177   0.45955   0.17785   0.00000  Uiso   1.00
C162   C     0.31156   0.54045   0.15548   0.00000  Uiso   1.00
C163   C     0.31318   0.45813   0.16763   0.00000  Uiso   1.00
C164   C     0.02016   0.54187   0.16570   0.00000  Uiso   1.00
C165   C     0.29099   0.49901   0.15960   0.00000  Uiso   1.00
C166   C     0.04235   0.50099   0.17373   0.00000  Uiso   1.00
C167   C     0.18913   0.35690   0.20203   0.00000  Uiso   1.00
C168   C     0.14421   0.64310   0.13130   0.00000  Uiso   1.00
C169   C     0.14393   0.35782   0.13156   0.00000  Uiso   1.00
C170   C     0.18940   0.64218   0.20177   0.00000  Uiso   1.00
N171   N     0.16667   0.61907   0.16667   0.00000  Uiso   1.00
N172   N     0.16667   0.38093   0.16667   0.00000  Uiso   1.00
N173   N     0.04311   0.41879   0.19338   0.00000  Uiso   1.00
O174   O     0.06147   0.41656   0.23725   0.00000  Uiso   1.00
O175   O     0.04359   0.38365   0.16426   0.00000  Uiso   1.00
N176   N     0.29022   0.58121   0.13995   0.00000  Uiso   1.00
O177   O     0.27186   0.58344   0.09609   0.00000  Uiso   1.00
O178   O     0.28974   0.61635   0.16907   0.00000  Uiso   1.00
N179   N     0.29373   0.41489   0.16441   0.00000  Uiso   1.00
O180   O     0.27769   0.40167   0.12183   0.00000  Uiso   1.00
O181   O     0.29739   0.38626   0.20133   0.00000  Uiso   1.00
N182   N     0.03960   0.58511   0.16892   0.00000  Uiso   1.00
O183   O     0.05564   0.59833   0.21150   0.00000  Uiso   1.00
O184   O     0.03595   0.61374   0.13201   0.00000  Uiso   1.00
C185   C     0.21199   0.38060   0.24056   0.00000  Uiso   1.00
N186   N     0.23032   0.39919   0.27182   0.00000  Uiso   1.00
C187   C     0.12135   0.61940   0.09278   0.00000  Uiso   1.00
N188   N     0.10302   0.60081   0.06151   0.00000  Uiso   1.00
C189   C     0.11901   0.38257   0.09502   0.00000  Uiso   1.00
N190   N     0.09882   0.40209   0.06563   0.00000  Uiso   1.00
C191   C     0.21432   0.61743   0.23831   0.00000  Uiso   1.00
N192   N     0.23451   0.59791   0.26770   0.00000  Uiso   1.00
O193   O     0.43892   0.53821   0.16666   0.00000  Uiso   1.00
O194   O     0.56108   0.46179   0.16667   0.00000  Uiso   1.00
O195   O     0.56108   0.53821   0.16667   0.00000  Uiso   1.00
O196   O     0.43892   0.46179   0.16666   0.00000  Uiso   1.00
C197   C     0.42006   0.50035   0.17008   0.00000  Uiso   1.00
C198   C     0.57994   0.49965   0.16325   0.00000  Uiso   1.00
O199   O     0.50000   0.53821   0.09511   0.00000  Uiso   1.00
O200   O     0.50000   0.46179   0.23822   0.00000  Uiso   1.00
O201   O     0.50000   0.53821   0.23822   0.00000  Uiso   1.00
O202   O     0.50000   0.46179   0.09511   0.00000  Uiso   1.00
C203   C     0.49992   0.50004   0.07291   0.00000  Uiso   1.00
C204   C     0.50008   0.49996   0.26042   0.00000  Uiso   1.00
Zn205  Zn    0.50000   0.55104   0.16667   0.00000  Uiso   1.00
Zn206  Zn    0.50000   0.44896   0.16667   0.00000  Uiso   1.00
C207   C     0.49997   0.50005   0.02180   0.00000  Uiso   1.00
C208   C     0.50003   0.49995   0.31153   0.00000  Uiso   1.00
C209   C     0.35511   0.45955   0.17785   0.00000  Uiso   1.00
C210   C     0.64489   0.54045   0.15548   0.00000  Uiso   1.00
C211   C     0.64651   0.45813   0.16763   0.00000  Uiso   1.00
C212   C     0.35349   0.54187   0.16570   0.00000  Uiso   1.00
C213   C     0.62432   0.49901   0.15960   0.00000  Uiso   1.00
C214   C     0.37568   0.50099   0.17373   0.00000  Uiso   1.00
C215   C     0.52246   0.35690   0.20203   0.00000  Uiso   1.00
C216   C     0.47754   0.64310   0.13130   0.00000  Uiso   1.00
C217   C     0.47727   0.35782   0.13156   0.00000  Uiso   1.00
C218   C     0.52274   0.64218   0.20177   0.00000  Uiso   1.00
N219   N     0.50000   0.61907   0.16667   0.00000  Uiso   1.00
N220   N     0.50000   0.38093   0.16667   0.00000  Uiso   1.00
N221   N     0.37644   0.41879   0.19338   0.00000  Uiso   1.00
O222   O     0.39481   0.41656   0.23725   0.00000  Uiso   1.00
O223   O     0.37692   0.38365   0.16426   0.00000  Uiso   1.00
N224   N     0.62356   0.58121   0.13995   0.00000  Uiso   1.00
O225   O     0.60519   0.58344   0.09609   0.00000  Uiso   1.00
O226   O     0.62308   0.61635   0.16907   0.00000  Uiso   1.00
N227   N     0.62707   0.41489   0.16441   0.00000  Uiso   1.00
O228   O     0.61102   0.40167   0.12183   0.00000  Uiso   1.00
O229   O     0.63072   0.38626   0.20133   0.00000  Uiso   1.00
N230   N     0.37293   0.58511   0.16892   0.00000  Uiso   1.00
O231   O     0.38898   0.59833   0.21150   0.00000  Uiso   1.00
O232   O     0.36928   0.61374   0.13201   0.00000  Uiso   1.00
C233   C     0.54532   0.38060   0.24056   0.00000  Uiso   1.00
N234   N     0.56365   0.39919   0.27182   0.00000  Uiso   1.00
C235   C     0.45468   0.61940   0.09278   0.00000  Uiso   1.00
N236   N     0.43635   0.60081   0.06151   0.00000  Uiso   1.00
C237   C     0.45235   0.38257   0.09502   0.00000  Uiso   1.00
N238   N     0.43216   0.40209   0.06563   0.00000  Uiso   1.00
C239   C     0.54765   0.61743   0.23831   0.00000  Uiso   1.00
N240   N     0.56784   0.59791   0.26770   0.00000  Uiso   1.00
O241   O     0.77226   0.53821   0.16666   0.00000  Uiso   1.00
O242   O     0.89441   0.46179   0.16667   0.00000  Uiso   1.00
O243   O     0.89441   0.53821   0.16667   0.00000  Uiso   1.00
O244   O     0.77226   0.46179   0.16666   0.00000  Uiso   1.00
C245   C     0.75339   0.50035   0.17008   0.00000  Uiso   1.00
C246   C     0.91327   0.49965   0.16325   0.00000  Uiso   1.00
O247   O     0.83334   0.53821   0.09511   0.00000  Uiso   1.00
O248   O     0.83333   0.46179   0.23822   0.00000  Uiso   1.00
O249   O     0.83333   0.53821   0.23822   0.00000  Uiso   1.00
O250   O     0.83334   0.46179   0.09511   0.00000  Uiso   1.00
C251   C     0.83326   0.50004   0.07291   0.00000  Uiso   1.00
C252   C     0.83341   0.49996   0.26042   0.00000  Uiso   1.00
Zn253  Zn    0.83333   0.55104   0.16667   0.00000  Uiso   1.00
Zn254  Zn    0.83333   0.44896   0.16667   0.00000  Uiso   1.00
C255   C     0.83331   0.50005   0.02180   0.00000  Uiso   1.00
C256   C     0.83336   0.49995   0.31153   0.00000  Uiso   1.00
C257   C     0.68844   0.45955   0.17785   0.00000  Uiso   1.00
C258   C     0.97823   0.54045   0.15548   0.00000  Uiso   1.00
C259   C     0.97984   0.45813   0.16763   0.00000  Uiso   1.00
C260   C     0.68682   0.54187   0.16570   0.00000  Uiso   1.00
C261   C     0.95765   0.49901   0.15960   0.00000  Uiso   1.00
C262   C     0.70901   0.50099   0.17373   0.00000  Uiso   1.00
C263   C     0.85579   0.35690   0.20203   0.00000  Uiso   1.00
C264   C     0.81088   0.64310   0.13130   0.00000  Uiso   1.00
C265   C     0.81060   0.35782   0.13156   0.00000  Uiso   1.00
C266   C     0.85607   0.64218   0.20177   0.00000  Uiso   1.00
N267   N     0.83333   0.61907   0.16667   0.00000  Uiso   1.00
N268   N     0.83333   0.38093   0.16667   0.00000  Uiso   1.00
N269   N     0.70978   0.41879   0.19338   0.00000  Uiso   1.00
O270   O     0.72814   0.41656   0.23725   0.00000  Uiso   1.00
O271   O     0.71026   0.38365   0.16426   0.00000  Uiso   1.00
N272   N     0.95689   0.58121   0.13995   0.00000  Uiso   1.00
O273   O     0.93853   0.58344   0.09609   0.00000  Uiso   1.00
O274   O     0.95641   0.61635   0.16907   0.00000  Uiso   1.00
N275   N     0.96040   0.41489   0.16441   0.00000  Uiso   1.00
O276   O     0.94436   0.40167   0.12183   0.00000  Uiso   1.00
O277   O     0.96405   0.38626   0.20133   0.00000  Uiso   1.00
N278   N     0.70627   0.58511   0.16892   0.00000  Uiso   1.00
O279   O     0.72231   0.59833   0.21150   0.00000  Uiso   1.00
O280   O     0.70261   0.61374   0.13201   0.00000  Uiso   1.00
C281   C     0.87865   0.38060   0.24056   0.00000  Uiso   1.00
N282   N     0.89699   0.39919   0.27182   0.00000  Uiso   1.00
C283   C     0.78801   0.61940   0.09278   0.00000  Uiso   1.00
N284   N     0.76968   0.60081   0.06151   0.00000  Uiso   1.00
C285   C     0.78568   0.38257   0.09502   0.00000  Uiso   1.00
N286   N     0.76549   0.40209   0.06563   0.00000  Uiso   1.00
C287   C     0.88099   0.61743   0.23831   0.00000  Uiso   1.00
N288   N     0.90118   0.59791   0.26770   0.00000  Uiso   1.00
O289   O     0.10559   0.87154   0.16666   0.00000  Uiso   1.00
O290   O     0.22774   0.79513   0.16667   0.00000  Uiso   1.00
O291   O     0.22774   0.87154   0.16667   0.00000  Uiso   1.00
O292   O     0.10559   0.79513   0.16666   0.00000  Uiso   1.00
C293   C     0.08673   0.83368   0.17008   0.00000  Uiso   1.00
C294   C     0.24661   0.83298   0.16325   0.00000  Uiso   1.00
O295   O     0.16667   0.87155   0.09511   0.00000  Uiso   1.00
O296   O     0.16666   0.79512   0.23822   0.00000  Uiso   1.00
O297   O     0.16666   0.87155   0.23822   0.00000  Uiso   1.00
O298   O     0.16667   0.79512   0.09511   0.00000  Uiso   1.00
C299   C     0.16659   0.83337   0.07291   0.00000  Uiso   1.00
C300   C     0.16675   0.83330   0.26042   0.00000  Uiso   1.00
Zn301  Zn    0.16667   0.88437   0.16667   0.00000  Uiso   1.00
Zn302  Zn    0.16667   0.78229   0.16667   0.00000  Uiso   1.00
C303   C     0.16664   0.83339   0.02180   0.00000  Uiso   1.00
C304   C     0.16669   0.83328   0.31153   0.00000  Uiso   1.00
C305   C     0.02177   0.79289   0.17785   0.00000  Uiso   1.00
C306   C     0.31156   0.87378   0.15548   0.00000  Uiso   1.00
C307   C     0.31318   0.79146   0.16763   0.00000  Uiso   1.00
C308   C     0.02016   0.87520   0.16570   0.00000  Uiso   1.00
C309   C     0.29099   0.83234   0.15960   0.00000  Uiso   1.00
C310   C     0.04235   0.83432   0.17373   0.00000  Uiso   1.00
C311   C     0.18913   0.69023   0.20203   0.00000  Uiso   1.00
C312   C     0.14421   0.97643   0.13130   0.00000  Uiso   1.00
C313   C     0.14393   0.69115   0.13156   0.00000  Uiso   1.00
C314   C     0.18940   0.97551   0.20177   0.00000  Uiso   1.00
N315   N     0.16667   0.95240   0.16667   0.00000  Uiso   1.00
N316   N     0.16667   0.71427   0.16667   0.00000  Uiso   1.00
N317   N     0.04311   0.75212   0.19338   0.00000  Uiso   1.00
O318   O     0.06147   0.74990   0.23725   0.00000  Uiso   1.00
O319   O     0.04359   0.71698   0.16426   0.00000  Uiso   1.00
N320   N     0.29022   0.91455   0.13995   0.00000  Uiso   1.00
O321   O     0.27186   0.91677   0.09609   0.00000  Uiso   1.00
O322   O     0.28974   0.94968   0.16907   0.00000  Uiso   1.00
N323   N     0.29373   0.74823   0.16441   0.00000  Uiso   1.00
O324   O     0.27769   0.73500   0.12183   0.00000  Uiso   1.00
O325   O     0.29739   0.71959   0.20133   0.00000  Uiso   1.00
N326   N     0.03960   0.91844   0.16892   0.00000  Uiso   1.00
O327   O     0.05564   0.93166   0.21150   0.00000  Uiso   1.00
O328   O     0.03595   0.94708   0.13201   0.00000  Uiso   1.00
C329   C     0.21199   0.71393   0.24056   0.00000  Uiso   1.00
N330   N     0.23032   0.73252   0.27182   0.00000  Uiso   1.00
C331   C     0.12135   0.95274   0.09278   0.00000  Uiso   1.00
N332   N     0.10302   0.93414   0.06151   0.00000  Uiso   1.00
C333   C     0.11901   0.71591   0.09502   0.00000  Uiso   1.00
N334   N     0.09882   0.73542   0.06563   0.00000  Uiso   1.00
C335   C     0.21432   0.95076   0.23831   0.00000  Uiso   1.00
N336   N     0.23451   0.93125   0.26770   0.00000  Uiso   1.00
O337   O     0.43892   0.87154   0.16666   0.00000  Uiso   1.00
O338   O     0.56108   0.79513   0.16667   0.00000  Uiso   1.00
O339   O     0.56108   0.87154   0.16667   0.00000  Uiso   1.00
O340   O     0.43892   0.79513   0.16666   0.00000  Uiso   1.00
C341   C     0.42006   0.83368   0.17008   0.00000  Uiso   1.00
C342   C     0.57994   0.83298   0.16325   0.00000  Uiso   1.00
O343   O     0.50000   0.87155   0.09511   0.00000  Uiso   1.00
O344   O     0.50000   0.79512   0.23822   0.00000  Uiso   1.00
O345   O     0.50000   0.87155   0.23822   0.00000  Uiso   1.00
O346   O     0.50000   0.79512   0.09511   0.00000  Uiso   1.00
C347   C     0.49992   0.83337   0.07291   0.00000  Uiso   1.00
C348   C     0.50008   0.83330   0.26042   0.00000  Uiso   1.00
Zn349  Zn    0.50000   0.88437   0.16667   0.00000  Uiso   1.00
Zn350  Zn    0.50000   0.78229   0.16667   0.00000  Uiso   1.00
C351   C     0.49997   0.83339   0.02180   0.00000  Uiso   1.00
C352   C     0.50003   0.83328   0.31153   0.00000  Uiso   1.00
C353   C     0.35511   0.79289   0.17785   0.00000  Uiso   1.00
C354   C     0.64489   0.87378   0.15548   0.00000  Uiso   1.00
C355   C     0.64651   0.79146   0.16763   0.00000  Uiso   1.00
C356   C     0.35349   0.87520   0.16570   0.00000  Uiso   1.00
C357   C     0.62432   0.83234   0.15960   0.00000  Uiso   1.00
C358   C     0.37568   0.83432   0.17373   0.00000  Uiso   1.00
C359   C     0.52246   0.69023   0.20203   0.00000  Uiso   1.00
C360   C     0.47754   0.97643   0.13130   0.00000  Uiso   1.00
C361   C     0.47727   0.69115   0.13156   0.00000  Uiso   1.00
C362   C     0.52274   0.97551   0.20177   0.00000  Uiso   1.00
N363   N     0.50000   0.95240   0.16667   0.00000  Uiso   1.00
N364   N     0.50000   0.71427   0.16667   0.00000  Uiso   1.00
N365   N     0.37644   0.75212   0.19338   0.00000  Uiso   1.00
O366   O     0.39481   0.74990   0.23725   0.00000  Uiso   1.00
O367   O     0.37692   0.71698   0.16426   0.00000  Uiso   1.00
N368   N     0.62356   0.91455   0.13995   0.00000  Uiso   1.00
O369   O     0.60519   0.91677   0.09609   0.00000  Uiso   1.00
O370   O     0.62308   0.94968   0.16907   0.00000  Uiso   1.00
N371   N     0.62707   0.74823   0.16441   0.00000  Uiso   1.00
O372   O     0.61102   0.73500   0.12183   0.00000  Uiso   1.00
O373   O     0.63072   0.71959   0.20133   0.00000  Uiso   1.00
N374   N     0.37293   0.91844   0.16892   0.00000  Uiso   1.00
O375   O     0.38898   0.93166   0.21150   0.00000  Uiso   1.00
O376   O     0.36928   0.94708   0.13201   0.00000  Uiso   1.00
C377   C     0.54532   0.71393   0.24056   0.00000  Uiso   1.00
N378   N     0.56365   0.73252   0.27182   0.00000  Uiso   1.00
C379   C     0.45468   0.95274   0.09278   0.00000  Uiso   1.00
N380   N     0.43635   0.93414   0.06151   0.00000  Uiso   1.00
C381   C     0.45235   0.71591   0.09502   0.00000  Uiso   1.00
N382   N     0.43216   0.73542   0.06563   0.00000  Uiso   1.00
C383   C     0.54765   0.95076   0.23831   0.00000  Uiso   1.00
N384   N     0.56784   0.93125   0.26770   0.00000  Uiso   1.00
O385   O     0.77226   0.87154   0.16666   0.00000  Uiso   1.00
O386   O     0.89441   0.79513   0.16667   0.00000  Uiso   1.00
O387   O     0.89441   0.87154   0.16667   0.00000  Uiso   1.00
O388   O     0.77226   0.79513   0.16666   0.00000  Uiso   1.00
C389   C     0.75339   0.83368   0.17008   0.00000  Uiso   1.00
C390   C     0.91327   0.83298   0.16325   0.00000  Uiso   1.00
O391   O     0.83334   0.87155   0.09511   0.00000  Uiso   1.00
O392   O     0.83333   0.79512   0.23822   0.00000  Uiso   1.00
O393   O     0.83333   0.87155   0.23822   0.00000  Uiso   1.00
O394   O     0.83334   0.79512   0.09511   0.00000  Uiso   1.00
C395   C     0.83326   0.83337   0.07291   0.00000  Uiso   1.00
C396   C     0.83341   0.83330   0.26042   0.00000  Uiso   1.00
Zn397  Zn    0.83333   0.88437   0.16667   0.00000  Uiso   1.00
Zn398  Zn    0.83333   0.78229   0.16667   0.00000  Uiso   1.00
C399   C     0.83331   0.83339   0.02180   0.00000  Uiso   1.00
C400   C     0.83336   0.83328   0.31153   0.00000  Uiso   1.00
C401   C     0.68844   0.79289   0.17785   0.00000  Uiso   1.00
C402   C     0.97823   0.87378   0.15548   0.00000  Uiso   1.00
C403   C     0.97984   0.79146   0.16763   0.00000  Uiso   1.00
C404   C     0.68682   0.87520   0.16570   0.00000  Uiso   1.00
C405   C     0.95765   0.83234   0.15960   0.00000  Uiso   1.00
C406   C     0.70901   0.83432   0.17373   0.00000  Uiso   1.00
C407   C     0.85579   0.69023   0.20203   0.00000  Uiso   1.00
C408   C     0.81088   0.97643   0.13130   0.00000  Uiso   1.00
C409   C     0.81060   0.69115   0.13156   0.00000  Uiso   1.00
C410   C     0.85607   0.97551   0.20177   0.00000  Uiso   1.00
N411   N     0.83333   0.95240   0.16667   0.00000  Uiso   1.00
N412   N     0.83333   0.71427   0.16667   0.00000  Uiso   1.00
N413   N     0.70978   0.75212   0.19338   0.00000  Uiso   1.00
O414   O     0.72814   0.74990   0.23725   0.00000  Uiso   1.00
O415   O     0.71026   0.71698   0.16426   0.00000  Uiso   1.00
N416   N     0.95689   0.91455   0.13995   0.00000  Uiso   1.00
O417   O     0.93853   0.91677   0.09609   0.00000  Uiso   1.00
O418   O     0.95641   0.94968   0.16907   0.00000  Uiso   1.00
N419   N     0.96040   0.74823   0.16441   0.00000  Uiso   1.00
O420   O     0.94436   0.73500   0.12183   0.00000  Uiso   1.00
O421   O     0.96405   0.71959   0.20133   0.00000  Uiso   1.00
N422   N     0.70627   0.91844   0.16892   0.00000  Uiso   1.00
O423   O     0.72231   0.93166   0.21150   0.00000  Uiso   1.00
O424   O     0.70261   0.94708   0.13201   0.00000  Uiso   1.00
C425   C     0.87865   0.71393   0.24056   0.00000  Uiso   1.00
N426   N     0.89699   0.73252   0.27182   0.00000  Uiso   1.00
C427   C     0.78801   0.95274   0.09278   0.00000  Uiso   1.00
N428   N     0.76968   0.93414   0.06151   0.00000  Uiso   1.00
C429   C     0.78568   0.71591   0.09502   0.00000  Uiso   1.00
N430   N     0.76549   0.73542   0.06563   0.00000  Uiso   1.00
C431   C     0.88099   0.95076   0.23831   0.00000  Uiso   1.00
N432   N     0.90118   0.93125   0.26770   0.00000  Uiso   1.00
O433   O     0.10559   0.20487   0.50000   0.00000  Uiso   1.00
O434   O     0.22774   0.12846   0.50000   0.00000  Uiso   1.00
O435   O     0.22774   0.20487   0.50000   0.00000  Uiso   1.00
O436   O     0.10559   0.12846   0.50000   0.00000  Uiso   1.00
C437   C     0.08673   0.16702   0.50341   0.00000  Uiso   1.00
C438   C     0.24661   0.16632   0.49659   0.00000  Uiso   1.00
O439   O     0.16667   0.20488   0.42845   0.00000  Uiso   1.00
O440   O     0.16666   0.12845   0.57155   0.00000  Uiso   1.00
O441   O     0.16666   0.20488   0.57155   0.00000  Uiso   1.00
O442   O     0.16667   0.12845   0.42845   0.00000  Uiso   1.00
C443   C     0.16659   0.16670   0.40624   0.00000  Uiso   1.00
C444   C     0.16675   0.16663   0.59376   0.00000  Uiso   1.00
Zn445  Zn    0.16667   0.21771   0.50000   0.00000  Uiso   1.00
Zn446  Zn    0.16667   0.11563   0.50000   0.00000  Uiso   1.00
C447   C     0.16664   0.16672   0.35514   0.00000  Uiso   1.00
C448   C     0.16669   0.16661   0.64486   0.00000  Uiso   1.00
C449   C     0.02177   0.12622   0.51118   0.00000  Uiso   1.00
C450   C     0.31156   0.20711   0.48882   0.00000  Uiso   1.00
C451   C     0.31318   0.12479   0.50096   0.00000  Uiso   1.00
C452   C     0.02016   0.20854   0.49904   0.00000  Uiso   1.00
C453   C     0.29099   0.16568   0.49294   0.00000  Uiso   1.00
C454   C     0.04235   0.16766   0.50706   0.00000  Uiso   1.00
C455   C     0.18913   0.02357   0.53537   0.00000  Uiso   1.00
C456   C     0.14421   0.30977   0.46463   0.00000  Uiso   1.00
C457   C     0.14393   0.02449   0.46490   0.00000  Uiso   1.00
C458   C     0.18940   0.30885   0.53510   0.00000  Uiso   1.00
N459   N     0.16667   0.28573   0.50000   0.00000  Uiso   1.00
N460   N     0.16667   0.04760   0.50000   0.00000  Uiso   1.00
N461   N     0.04311   0.08545   0.52671   0.00000  Uiso   1.00
O462   O     0.06147   0.08323   0.57058   0.00000  Uiso   1.00
O463   O     0.04359   0.05032   0.49759   0.00000  Uiso   1.00
N464   N     0.29022   0.24788   0.47329   0.00000  Uiso   1.00
O465   O     0.27186   0.25010   0.42942   0.00000  Uiso   1.00
O466   O     0.28974   0.28302   0.50240   0.00000  Uiso   1.00
N467   N     0.29373   0.08156   0.49774   0.00000  Uiso   1.00
O468   O     0.27769   0.06834   0.45517   0.00000  Uiso   1.00
O469   O     0.29739   0.05292   0.53466   0.00000  Uiso   1.00
N470   N     0.03960   0.25177   0.50226   0.00000  Uiso   1.00
O471   O     0.05564   0.26500   0.54483   0.00000  Uiso   1.00
O472   O     0.03595   0.28041   0.46534   0.00000  Uiso   1.00
C473   C     0.21199   0.04726   0.57389   0.00000  Uiso   1.00
N474   N     0.23032   0.06586   0.60515   0.00000  Uiso   1.00
C475   C     0.12135   0.28607   0.42611   0.00000  Uiso   1.00
N476   N     0.10302   0.26748   0.39485   0.00000  Uiso   1.00
C477   C     0.11901   0.04924   0.42836   0.00000  Uiso   1.00
N478   N     0.09882   0.06875   0.39896   0.00000  Uiso   1.00
C479   C     0.21432   0.28409   0.57164   0.00000  Uiso   1.00
N480   N     0.23451   0.26458   0.60104   0.00000  Uiso   1.00
O481   O     0.43892   0.20487   0.50000   0.00000  Uiso   1.00
O482   O     0.56108   0.12846   0.50000   0.00000  Uiso   1.00
O483   O     0.56108   0.20487   0.50000   0.00000  Uiso   1.00
O484   O     0.43892   0.12846   0.50000   0.00000  Uiso   1.00
C485   C     0.42006   0.16702   0.50341   0.00000  Uiso   1.00
C486   C     0.57994   0.16632   0.49659   0.00000  Uiso   1.00
O487   O     0.50000   0.20488   0.42845   0.00000  Uiso   1.00
O488   O     0.50000   0.12845   0.57155   0.00000  Uiso   1.00
O489   O     0.50000   0.20488   0.57155   0.00000  Uiso   1.00
O490   O     0.50000   0.12845   0.42845   0.00000  Uiso   1.00
C491   C     0.49992   0.16670   0.40624   0.00000  Uiso   1.00
C492   C     0.50008   0.16663   0.59376   0.00000  Uiso   1.00
Zn493  Zn    0.50000   0.21771   0.50000   0.00000  Uiso   1.00
Zn494  Zn    0.50000   0.11563   0.50000   0.00000  Uiso   1.00
C495   C     0.49997   0.16672   0.35514   0.00000  Uiso   1.00
C496   C     0.50003   0.16661   0.64486   0.00000  Uiso   1.00
C497   C     0.35511   0.12622   0.51118   0.00000  Uiso   1.00
C498   C     0.64489   0.20711   0.48882   0.00000  Uiso   1.00
C499   C     0.64651   0.12479   0.50096   0.00000  Uiso   1.00
C500   C     0.35349   0.20854   0.49904   0.00000  Uiso   1.00
C501   C     0.62432   0.16568   0.49294   0.00000  Uiso   1.00
C502   C     0.37568   0.16766   0.50706   0.00000  Uiso   1.00
C503   C     0.52246   0.02357   0.53537   0.00000  Uiso   1.00
C504   C     0.47754   0.30977   0.46463   0.00000  Uiso   1.00
C505   C     0.47727   0.02449   0.46490   0.00000  Uiso   1.00
C506   C     0.52274   0.30885   0.53510   0.00000  Uiso   1.00
N507   N     0.50000   0.28573   0.50000   0.00000  Uiso   1.00
N508   N     0.50000   0.04760   0.50000   0.00000  Uiso   1.00
N509   N     0.37644   0.08545   0.52671   0.00000  Uiso   1.00
O510   O     0.39481   0.08323   0.57058   0.00000  Uiso   1.00
O511   O     0.37692   0.05032   0.49759   0.00000  Uiso   1.00
N512   N     0.62356   0.24788   0.47329   0.00000  Uiso   1.00
O513   O     0.60519   0.25010   0.42942   0.00000  Uiso   1.00
O514   O     0.62308   0.28302   0.50240   0.00000  Uiso   1.00
N515   N     0.62707   0.08156   0.49774   0.00000  Uiso   1.00
O516   O     0.61102   0.06834   0.45517   0.00000  Uiso   1.00
O517   O     0.63072   0.05292   0.53466   0.00000  Uiso   1.00
N518   N     0.37293   0.25177   0.50226   0.00000  Uiso   1.00
O519   O     0.38898   0.26500   0.54483   0.00000  Uiso   1.00
O520   O     0.36928   0.28041   0.46534   0.00000  Uiso   1.00
C521   C     0.54532   0.04726   0.57389   0.00000  Uiso   1.00
N522   N     0.56365   0.06586   0.60515   0.00000  Uiso   1.00
C523   C     0.45468   0.28607   0.42611   0.00000  Uiso   1.00
N524   N     0.43635   0.26748   0.39485   0.00000  Uiso   1.00
C525   C     0.45235   0.04924   0.42836   0.00000  Uiso   1.00
N526   N     0.43216   0.06875   0.39896   0.00000  Uiso   1.00
C527   C     0.54765   0.28409   0.57164   0.00000  Uiso   1.00
N528   N     0.56784   0.26458   0.60104   0.00000  Uiso   1.00
O529   O     0.77226   0.20487   0.50000   0.00000  Uiso   1.00
O530   O     0.89441   0.12846   0.50000   0.00000  Uiso   1.00
O531   O     0.89441   0.20487   0.50000   0.00000  Uiso   1.00
O532   O     0.77226   0.12846   0.50000   0.00000  Uiso   1.00
C533   C     0.75339   0.16702   0.50341   0.00000  Uiso   1.00
C534   C     0.91327   0.16632   0.49659   0.00000  Uiso   1.00
O535   O     0.83334   0.20488   0.42845   0.00000  Uiso   1.00
O536   O     0.83333   0.12845   0.57155   0.00000  Uiso   1.00
O537   O     0.83333   0.20488   0.57155   0.00000  Uiso   1.00
O538   O     0.83334   0.12845   0.42845   0.00000  Uiso   1.00
C539   C     0.83326   0.16670   0.40624   0.00000  Uiso   1.00
C540   C     0.83341   0.16663   0.59376   0.00000  Uiso   1.00
Zn541  Zn    0.83333   0.21771   0.50000   0.00000  Uiso   1.00
Zn542  Zn    0.83333   0.11563   0.50000   0.00000  Uiso   1.00
C543   C     0.83331   0.16672   0.35514   0.00000  Uiso   1.00
C544   C     0.83336   0.16661   0.64486   0.00000  Uiso   1.00
C545   C     0.68844   0.12622   0.51118   0.00000  Uiso   1.00
C546   C     0.97823   0.20711   0.48882   0.00000  Uiso   1.00
C547   C     0.97984   0.12479   0.50096   0.00000  Uiso   1.00
C548   C     0.68682   0.20854   0.49904   0.00000  Uiso   1.00
C549   C     0.95765   0.16568   0.49294   0.00000  Uiso   1.00
C550   C     0.70901   0.16766   0.50706   0.00000  Uiso   1.00
C551   C     0.85579   0.02357   0.53537   0.00000  Uiso   1.00
C552   C     0.81088   0.30977   0.46463   0.00000  Uiso   1.00
C553   C     0.81060   0.02449   0.46490   0.00000  Uiso   1.00
C554   C     0.85607   0.30885   0.53510   0.00000  Uiso   1.00
N555   N     0.83333   0.28573   0.50000   0.00000  Uiso   1.00
N556   N     0.83333   0.04760   0.50000   0.00000  Uiso   1.00
N557   N     0.70978   0.08545   0.52671   0.00000  Uiso   1.00
O558   O     0.72814   0.08323   0.57058   0.00000  Uiso   1.00
O559   O     0.71026   0.05032   0.49759   0.00000  Uiso   1.00
N560   N     0.95689   0.24788   0.47329   0.00000  Uiso   1.00
O561   O     0.93853   0.25010   0.42942   0.00000  Uiso   1.00
O562   O     0.95641   0.28302   0.50240   0.00000  Uiso   1.00
N563   N     0.96040   0.08156   0.49774   0.00000  Uiso   1.00
O564   O     0.94436   0.06834   0.45517   0.00000  Uiso   1.00
O565   O     0.96405   0.05292   0.53466   0.00000  Uiso   1.00
N566   N     0.70627   0.25177   0.50226   0.00000  Uiso   1.00
O567   O     0.72231   0.26500   0.54483   0.00000  Uiso   1.00
O568   O     0.70261   0.28041   0.46534   0.00000  Uiso   1.00
C569   C     0.87865   0.04726   0.57389   0.00000  Uiso   1.00
N570   N     0.89699   0.06586   0.60515   0.00000  Uiso   1.00
C571   C     0.78801   0.28607   0.42611   0.00000  Uiso   1.00
N572   N     0.76968   0.26748   0.39485   0.00000  Uiso   1.00
C573   C     0.78568   0.04924   0.42836   0.00000  Uiso   1.00
N574   N     0.76549   0.06875   0.39896   0.00000  Uiso   1.00
C575   C     0.88099   0.28409   0.57164   0.00000  Uiso   1.00
N576   N     0.90118   0.26458   0.60104   0.00000  Uiso   1.00
O577   O     0.10559   0.53821   0.50000   0.00000  Uiso   1.00
O578   O     0.22774   0.46179   0.50000   0.00000  Uiso   1.00
O579   O     0.22774   0.53821   0.50000   0.00000  Uiso   1.00
O580   O     0.10559   0.46179   0.50000   0.00000  Uiso   1.00
C581   C     0.08673   0.50035   0.50341   0.00000  Uiso   1.00
C582   C     0.24661   0.49965   0.49659   0.00000  Uiso   1.00
O583   O     0.16667   0.53821   0.42845   0.00000  Uiso   1.00
O584   O     0.16666   0.46179   0.57155   0.00000  Uiso   1.00
O585   O     0.16666   0.53821   0.57155   0.00000  Uiso   1.00
O586   O     0.16667   0.46179   0.42845   0.00000  Uiso   1.00
C587   C     0.16659   0.50004   0.40624   0.00000  Uiso   1.00
C588   C     0.16675   0.49996   0.59376   0.00000  Uiso   1.00
Zn589  Zn    0.16667   0.55104   0.50000   0.00000  Uiso   1.00
Zn590  Zn    0.16667   0.44896   0.50000   0.00000  Uiso   1.00
C591   C     0.16664   0.50005   0.35514   0.00000  Uiso   1.00
C592   C     0.16669   0.49995   0.64486   0.00000  Uiso   1.00
C593   C     0.02177   0.45955   0.51118   0.00000  Uiso   1.00
C594   C     0.31156   0.54045   0.48882   0.00000  Uiso   1.00
C595   C     0.31318   0.45813   0.50096   0.00000  Uiso   1.00
C596   C     0.02016   0.54187   0.49904   0.00000  Uiso   1.00
C597   C     0.29099   0.49901   0.49294   0.00000  Uiso   1.00
C598   C     0.04235   0.50099   0.50706   0.00000  Uiso   1.00
C599   C     0.18913   0.35690   0.53537   0.00000  Uiso   1.00
C600   C     0.14421   0.64310   0.46463   0.00000  Uiso   1.00
C601   C     0.14393   0.35782   0.46490   0.00000  Uiso   1.00
C602   C     0.18940   0.64218   0.53510   0.00000  Uiso   1.00
N603   N     0.16667   0.61907   0.50000   0.00000  Uiso   1.00
N604   N     0.16667   0.38093   0.50000   0.00000  Uiso   1.00
N605   N     0.04311   0.41879   0.52671   0.00000  Uiso   1.00
O606   O     0.06147   0.41656   0.57058   0.00000  Uiso   1.00
O607   O     0.04359   0.38365   0.49759   0.00000  Uiso   1.00
N608   N     0.29022   0.58121   0.47329   0.00000  Uiso   1.00
O609   O     0.27186   0.58344   0.42942   0.00000  Uiso   1.00
O610   O     0.28974   0.61635   0.50240   0.00000  Uiso   1.00
N611   N     0.29373   0.41489   0.49774   0.00000  Uiso   1.00
O612   O     0.27769   0.40167   0.45517   0.00000  Uiso   1.00
O613   O     0.29739   0.38626   0.53466   0.00000  Uiso   1.00
N614   N     0.03960   0.58511   0.50226   0.00000  Uiso   1.00
O615   O     0.05564   0.59833   0.54483   0.00000  Uiso   1.00
O616   O     0.03595   0.61374   0.46534   0.00000  Uiso   1.00
C617   C     0.21199   0.38060   0.57389   0.00000  Uiso   1.00
N618   N     0.23032   0.39919   0.60515   0.00000  Uiso   1.00
C619   C     0.12135   0.61940   0.42611   0.00000  Uiso   1.00
N620   N     0.10302   0.60081   0.39485   0.00000  Uiso   1.00
C621   C     0.11901   0.38257   0.42836   0.00000  Uiso   1.00
N622   N     0.09882   0.40209   0.39896   0.00000  Uiso   1.00
C623   C     0.21432   0.61743   0.57164   0.00000  Uiso   1.00
N624   N     0.23451   0.59791   0.60104   0.00000  Uiso   1.00
O625   O     0.43892   0.53821   0.50000   0.00000  Uiso   1.00
O626   O     0.56108   0.46179   0.50000   0.00000  Uiso   1.00
O627   O     0.56108   0.53821   0.50000   0.00000  Uiso   1.00
O628   O     0.43892   0.46179   0.50000   0.00000  Uiso   1.00
C629   C     0.42006   0.50035   0.50341   0.00000  Uiso   1.00
C630   C     0.57994   0.49965   0.49659   0.00000  Uiso   1.00
O631   O     0.50000   0.53821   0.42845   0.00000  Uiso   1.00
O632   O     0.50000   0.46179   0.57155   0.00000  Uiso   1.00
O633   O     0.50000   0.53821   0.57155   0.00000  Uiso   1.00
O634   O     0.50000   0.46179   0.42845   0.00000  Uiso   1.00
C635   C     0.49992   0.50004   0.40624   0.00000  Uiso   1.00
C636   C     0.50008   0.49996   0.59376   0.00000  Uiso   1.00
Zn637  Zn    0.50000   0.55104   0.50000   0.00000  Uiso   1.00
Zn638  Zn    0.50000   0.44896   0.50000   0.00000  Uiso   1.00
C639   C     0.49997   0.50005   0.35514   0.00000  Uiso   1.00
C640   C     0.50003   0.49995   0.64486   0.00000  Uiso   1.00
C641   C     0.35511   0.45955   0.51118   0.00000  Uiso   1.00
C642   C     0.64489   0.54045   0.48882   0.00000  Uiso   1.00
C643   C     0.64651   0.45813   0.50096   0.00000  Uiso   1.00
C644   C     0.35349   0.54187   0.49904   0.00000  Uiso   1.00
C645   C     0.62432   0.49901   0.49294   0.00000  Uiso   1.00
C646   C     0.37568   0.50099   0.50706   0.00000  Uiso   1.00
C647   C     0.52246   0.35690   0.53537   0.00000  Uiso   1.00
C648   C     0.47754   0.64310   0.46463   0.00000  Uiso   1.00
C649   C     0.47727   0.35782   0.46490   0.00000  Uiso   1.00
C650   C     0.52274   0.64218   0.53510   0.00000  Uiso   1.00
N651   N     0.50000   0.61907   0.50000   0.00000  Uiso   1.00
N652   N     0.50000   0.38093   0.50000   0.00000  Uiso   1.00
N653   N     0.37644   0.41879   0.52671   0.00000  Uiso   1.00
O654   O     0.39481   0.41656   0.57058   0.00000  Uiso   1.00
O655   O     0.37692   0.38365   0.49759   0.00000  Uiso   1.00
N656   N     0.62356   0.58121   0.47329   0.00000  Uiso   1.00
O657   O     0.60519   0.58344   0.42942   0.00000  Uiso   1.00
O658   O     0.62308   0.61635   0.50240   0.00000  Uiso   1.00
N659   N     0.62707   0.41489   0.49774   0.00000  Uiso   1.00
O660   O     0.61102   0.40167   0.45517   0.00000  Uiso   1.00
O661   O     0.63072   0.38626   0.53466   0.00000  Uiso   1.00
N662   N     0.37293   0.58511   0.50226   0.00000  Uiso   1.00
O663   O     0.38898   0.59833   0.54483   0.00000  Uiso   1.00
O664   O     0.36928   0.61374   0.46534   0.00000  Uiso   1.00
C665   C     0.54532   0.38060   0.57389   0.00000  Uiso   1.00
N666   N     0.56365   0.39919   0.60515   0.00000  Uiso   1.00
C667   C     0.45468   0.61940   0.42611   0.00000  Uiso   1.00
N668   N     0.43635   0.60081   0.39485   0.00000  Uiso   1.00
C669   C     0.45235   0.38257   0.42836   0.00000  Uiso   1.00
N670   N     0.43216   0.40209   0.39896   0.00000  Uiso   1.00
C671   C     0.54765   0.61743   0.57164   0.00000  Uiso   1.00
N672   N     0.56784   0.59791   0.60104   0.00000  Uiso   1.00
O673   O     0.77226   0.53821   0.50000   0.00000  Uiso   1.00
O674   O     0.89441   0.46179   0.50000   0.00000  Uiso   1.00
O675   O     0.89441   0.53821   0.50000   0.00000  Uiso   1.00
O676   O     0.77226   0.46179   0.50000   0.00000  Uiso   1.00
C677   C     0.75339   0.50035   0.50341   0.00000  Uiso   1.00
C678   C     0.91327   0.49965   0.49659   0.00000  Uiso   1.00
O679   O     0.83334   0.53821   0.42845   0.00000  Uiso   1.00
O680   O     0.83333   0.46179   0.57155   0.00000  Uiso   1.00
O681   O     0.83333   0.53821   0.57155   0.00000  Uiso   1.00
O682   O     0.83334   0.46179   0.42845   0.00000  Uiso   1.00
C683   C     0.83326   0.50004   0.40624   0.00000  Uiso   1.00
C684   C     0.83341   0.49996   0.59376   0.00000  Uiso   1.00
Zn685  Zn    0.83333   0.55104   0.50000   0.00000  Uiso   1.00
Zn686  Zn    0.83333   0.44896   0.50000   0.00000  Uiso   1.00
C687   C     0.83331   0.50005   0.35514   0.00000  Uiso   1.00
C688   C     0.83336   0.49995   0.64486   0.00000  Uiso   1.00
C689   C     0.68844   0.45955   0.51118   0.00000  Uiso   1.00
C690   C     0.97823   0.54045   0.48882   0.00000  Uiso   1.00
C691   C     0.97984   0.45813   0.50096   0.00000  Uiso   1.00
C692   C     0.68682   0.54187   0.49904   0.00000  Uiso   1.00
C693   C     0.95765   0.49901   0.49294   0.00000  Uiso   1.00
C694   C     0.70901   0.50099   0.50706   0.00000  Uiso   1.00
C695   C     0.85579   0.35690   0.53537   0.00000  Uiso   1.00
C696   C     0.81088   0.64310   0.46463   0.00000  Uiso   1.00
C697   C     0.81060   0.35782   0.46490   0.00000  Uiso   1.00
C698   C     0.85607   0.64218   0.53510   0.00000  Uiso   1.00
N699   N     0.83333   0.61907   0.50000   0.00000  Uiso   1.00
N700   N     0.83333   0.38093   0.50000   0.00000  Uiso   1.00
N701   N     0.70978   0.41879   0.52671   0.00000  Uiso   1.00
O702   O     0.72814   0.41656   0.57058   0.00000  Uiso   1.00
O703   O     0.71026   0.38365   0.49759   0.00000  Uiso   1.00
N704   N     0.95689   0.58121   0.47329   0.00000  Uiso   1.00
O705   O     0.93853   0.58344   0.42942   0.00000  Uiso   1.00
O706   O     0.95641   0.61635   0.50240   0.00000  Uiso   1.00
N707   N     0.96040   0.41489   0.49774   0.00000  Uiso   1.00
O708   O     0.94436   0.40167   0.45517   0.00000  Uiso   1.00
O709   O     0.96405   0.38626   0.53466   0.00000  Uiso   1.00
N710   N     0.70627   0.58511   0.50226   0.00000  Uiso   1.00
O711   O     0.72231   0.59833   0.54483   0.00000  Uiso   1.00
O712   O     0.70261   0.61374   0.46534   0.00000  Uiso   1.00
C713   C     0.87865   0.38060   0.57389   0.00000  Uiso   1.00
N714   N     0.89699   0.39919   0.60515   0.00000  Uiso   1.00
C715   C     0.78801   0.61940   0.42611   0.00000  Uiso   1.00
N716   N     0.76968   0.60081   0.39485   0.00000  Uiso   1.00
C717   C     0.78568   0.38257   0.42836   0.00000  Uiso   1.00
N718   N     0.76549   0.40209   0.39896   0.00000  Uiso   1.00
C719   C     0.88099   0.61743   0.57164   0.00000  Uiso   1.00
N720   N     0.90118   0.59791   0.60104   0.00000  Uiso   1.00
O721   O     0.10559   0.87154   0.50000   0.00000  Uiso   1.00
O722   O     0.22774   0.79513   0.50000   0.00000  Uiso   1.00
O723   O     0.22774   0.87154   0.50000   0.00000  Uiso   1.00
O724   O     0.10559   0.79513   0.50000   0.00000  Uiso   1.00
C725   C     0.08673   0.83368   0.50341   0.00000  Uiso   1.00
C726   C     0.24661   0.83298   0.49659   0.00000  Uiso   1.00
O727   O     0.16667   0.87155   0.42845   0.00000  Uiso   1.00
O728   O     0.16666   0.79512   0.57155   0.00000  Uiso   1.00
O729   O     0.16666   0.87155   0.57155   0.00000  Uiso   1.00
O730   O     0.16667   0.79512   0.42845   0.00000  Uiso   1.00
C731   C     0.16659   0.83337   0.40624   0.00000  Uiso   1.00
C732   C     0.16675   0.83330   0.59376   0.00000  Uiso   1.00
Zn733  Zn    0.16667   0.88437   0.50000   0.00000  Uiso   1.00
Zn734  Zn    0.16667   0.78229   0.50000   0.00000  Uiso   1.00
C735   C     0.16664   0.83339   0.35514   0.00000  Uiso   1.00
C736   C     0.16669   0.83328   0.64486   0.00000  Uiso   1.00
C737   C     0.02177   0.79289   0.51118   0.00000  Uiso   1.00
C738   C     0.31156   0.87378   0.48882   0.00000  Uiso   1.00
C739   C     0.31318   0.79146   0.50096   0.00000  Uiso   1.00
C740   C     0.02016   0.87520   0.49904   0.00000  Uiso   1.00
C741   C     0.29099   0.83234   0.49294   0.00000  Uiso   1.00
C742   C     0.04235   0.83432   0.50706   0.00000  Uiso   1.00
C743   C     0.18913   0.69023   0.53537   0.00000  Uiso   1.00
C744   C     0.14421   0.97643   0.46463   0.00000  Uiso   1.00
C745   C     0.14393   0.69115   0.46490   0.00000  Uiso   1.00
C746   C     0.18940   0.97551   0.53510   0.00000  Uiso   1.00
N747   N     0.16667   0.95240   0.50000   0.00000  Uiso   1.00
N748   N     0.16667   0.71427   0.50000   0.00000  Uiso   1.00
N749   N     0.04311   0.75212   0.52671   0.00000  Uiso   1.00
O750   O     0.06147   0.74990   0.57058   0.00000  Uiso   1.00
O751   O     0.04359   0.71698   0.49759   0.00000  Uiso   1.00
N752   N     0.29022   0.91455   0.47329   0.00000  Uiso   1.00
O753   O     0.27186   0.91677   0.42942   0.00000  Uiso   1.00
O754   O     0.28974   0.94968   0.50240   0.00000  Uiso   1.00
N755   N     0.29373   0.74823   0.49774   0.00000  Uiso   1.00
O756   O     0.27769   0.73500   0.45517   0.00000  Uiso   1.00
O757   O     0.29739   0.71959   0.53466   0.00000  Uiso   1.00
N758   N     0.03960   0.91844   0.50226   0.00000  Uiso   1.00
O759   O     0.05564   0.93166   0.54483   0.00000  Uiso   1.00
O760   O     0.03595   0.94708   0.46534   0.00000  Uiso   1.00
C761   C     0.21199   0.71393   0.57389   0.00000  Uiso   1.00
N762   N     0.23032   0.73252   0.60515   0.00000  Uiso   1.00
C763   C     0.12135   0.95274   0.42611   0.00000  Uiso   1.00
N764   N     0.10302   0.93414   0.39485   0.00000  Uiso   1.00
C765   C     0.11901   0.71591   0.42836   0.00000  Uiso   1.00
N766   N     0.09882   0.73542   0.39896   0.00000  Uiso   1.00
C767   C     0.21432   0.95076   0.57164   0.00000  Uiso   1.00
N768   N     0.23451   0.93125   0.60104   0.00000  Uiso   1.00
O769   O     0.43892   0.87154   0.50000   0.00000  Uiso   1.00
O770   O     0.56108   0.79513   0.50000   0.00000  Uiso   1.00
O771   O     0.56108   0.87154   0.50000   0.00000  Uiso   1.00
O772   O     0.43892   0.79513   0.50000   0.00000  Uiso   1.00
C773   C     0.42006   0.83368   0.50341   0.00000  Uiso   1.00
C774   C     0.57994   0.83298   0.49659   0.00000  Uiso   1.00
O775   O     0.50000   0.87155   0.42845   0.00000  Uiso   1.00
O776   O     0.50000   0.79512   0.57155   0.00000  Uiso   1.00
O777   O     0.50000   0.87155   0.57155   0.00000  Uiso   1.00
O778   O     0.50000   0.79512   0.42845   0.00000  Uiso   1.00
C779   C     0.49992   0.83337   0.40624   0.00000  Uiso   1.00
C780   C     0.50008   0.83330   0.59376   0.00000  Uiso   1.00
Zn781  Zn    0.50000   0.88437   0.50000   0.00000  Uiso   1.00
Zn782  Zn    0.50000   0.78229   0.50000   0.00000  Uiso   1.00
C783   C     0.49997   0.83339   0.35514   0.00000  Uiso   1.00
C784   C     0.50003   0.83328   0.64486   0.00000  Uiso   1.00
C785   C     0.35511   0.79289   0.51118   0.00000  Uiso   1.00
C786   C     0.64489   0.87378   0.48882   0.00000  Uiso   1.00
C787   C     0.64651   0.79146   0.50096   0.00000  Uiso   1.00
C788   C     0.35349   0.87520   0.49904   0.00000  Uiso   1.00
C789   C     0.62432   0.83234   0.49294   0.00000  Uiso   1.00
C790   C     0.37568   0.83432   0.50706   0.00000  Uiso   1.00
C791   C     0.52246   0.69023   0.53537   0.00000  Uiso   1.00
C792   C     0.47754   0.97643   0.46463   0.00000  Uiso   1.00
C793   C     0.47727   0.69115   0.46490   0.00000  Uiso   1.00
C794   C     0.52274   0.97551   0.53510   0.00000  Uiso   1.00
N795   N     0.50000   0.95240   0.50000   0.00000  Uiso   1.00
N796   N     0.50000   0.71427   0.50000   0.00000  Uiso   1.00
N797   N     0.37644   0.75212   0.52671   0.00000  Uiso   1.00
O798   O     0.39481   0.74990   0.57058   0.00000  Uiso   1.00
O799   O     0.37692   0.71698   0.49759   0.00000  Uiso   1.00
N800   N     0.62356   0.91455   0.47329   0.00000  Uiso   1.00
O801   O     0.60519   0.91677   0.42942   0.00000  Uiso   1.00
O802   O     0.62308   0.94968   0.50240   0.00000  Uiso   1.00
N803   N     0.62707   0.74823   0.49774   0.00000  Uiso   1.00
O804   O     0.61102   0.73500   0.45517   0.00000  Uiso   1.00
O805   O     0.63072   0.71959   0.53466   0.00000  Uiso   1.00
N806   N     0.37293   0.91844   0.50226   0.00000  Uiso   1.00
O807   O     0.38898   0.93166   0.54483   0.00000  Uiso   1.00
O808   O     0.36928   0.94708   0.46534   0.00000  Uiso   1.00
C809   C     0.54532   0.71393   0.57389   0.00000  Uiso   1.00
N810   N     0.56365   0.73252   0.60515   0.00000  Uiso   1.00
C811   C     0.45468   0.95274   0.42611   0.00000  Uiso   1.00
N812   N     0.43635   0.93414   0.39485   0.00000  Uiso   1.00
C813   C     0.45235   0.71591   0.42836   0.00000  Uiso   1.00
N814   N     0.43216   0.73542   0.39896   0.00000  Uiso   1.00
C815   C     0.54765   0.95076   0.57164   0.00000  Uiso   1.00
N816   N     0.56784   0.93125   0.60104   0.00000  Uiso   1.00
O817   O     0.77226   0.87154   0.50000   0.00000  Uiso   1.00
O818   O     0.89441   0.79513   0.50000   0.00000  Uiso   1.00
O819   O     0.89441   0.87154   0.50000   0.00000  Uiso   1.00
O820   O     0.77226   0.79513   0.50000   0.00000  Uiso   1.00
C821   C     0.75339   0.83368   0.50341   0.00000  Uiso   1.00
C822   C     0.91327   0.83298   0.49659   0.00000  Uiso   1.00
O823   O     0.83334   0.87155   0.42845   0.00000  Uiso   1.00
O824   O     0.83333   0.79512   0.57155   0.00000  Uiso   1.00
O825   O     0.83333   0.87155   0.57155   0.00000  Uiso   1.00
O826   O     0.83334   0.79512   0.42845   0.00000  Uiso   1.00
C827   C     0.83326   0.83337   0.40624   0.00000  Uiso   1.00
C828   C     0.83341   0.83330   0.59376   0.00000  Uiso   1.00
Zn829  Zn    0.83333   0.88437   0.50000   0.00000  Uiso   1.00
Zn830  Zn    0.83333   0.78229   0.50000   0.00000  Uiso   1.00
C831   C     0.83331   0.83339   0.35514   0.00000  Uiso   1.00
C832   C     0.83336   0.83328   0.64486   0.00000  Uiso   1.00
C833   C     0.68844   0.79289   0.51118   0.00000  Uiso   1.00
C834   C     0.97823   0.87378   0.48882   0.00000  Uiso   1.00
C835   C     0.97984   0.79146   0.50096   0.00000  Uiso   1.00
C836   C     0.68682   0.87520   0.49904   0.00000  Uiso   1.00
C837   C     0.95765   0.83234   0.49294   0.00000  Uiso   1.00
C838   C     0.70901   0.83432   0.50706   0.00000  Uiso   1.00
C839   C     0.85579   0.69023   0.53537   0.00000  Uiso   1.00
C840   C     0.81088   0.97643   0.46463   0.00000  Uiso   1.00
C841   C     0.81060   0.69115   0.46490   0.00000  Uiso   1.00
C842   C     0.85607   0.97551   0.53510   0.00000  Uiso   1.00
N843   N     0.83333   0.95240   0.50000   0.00000  Uiso   1.00
N844   N     0.83333   0.71427   0.50000   0.00000  Uiso   1.00
N845   N     0.70978   0.75212   0.52671   0.00000  Uiso   1.00
O846   O     0.72814   0.74990   0.57058   0.00000  Uiso   1.00
O847   O     0.71026   0.71698   0.49759   0.00000  Uiso   1.00
N848   N     0.95689   0.91455   0.47329   0.00000  Uiso   1.00
O849   O     0.93853   0.91677   0.42942   0.00000  Uiso   1.00
O850   O     0.95641   0.94968   0.50240   0.00000  Uiso   1.00
N851   N     0.96040   0.74823   0.49774   0.00000  Uiso   1.00
O852   O     0.94436   0.73500   0.45517   0.00000  Uiso   1.00
O853   O     0.96405   0.71959   0.53466   0.00000  Uiso   1.00
N854   N     0.70627   0.91844   0.50226   0.00000  Uiso   1.00
O855   O     0.72231   0.93166   0.54483   0.00000  Uiso   1.00
O856   O     0.70261   0.94708   0.46534   0.00000  Uiso   1.00
C857   C     0.87865   0.71393   0.57389   0.00000  Uiso   1.00
N858   N     0.89699   0.73252   0.60515   0.00000  Uiso   1.00
C859   C     0.78801   0.95274   0.42611   0.00000  Uiso   1.00
N860   N     0.76968   0.93414   0.39485   0.00000  Uiso   1.00
C861   C     0.78568   0.71591   0.42836   0.00000  Uiso   1.00
N862   N     0.76549   0.73542   0.39896   0.00000  Uiso   1.00
C863   C     0.88099   0.95076   0.57164   0.00000  Uiso   1.00
N864   N     0.90118   0.93125   0.60104   0.00000  Uiso   1.00
O865   O     0.10559   0.20487   0.83333   0.00000  Uiso   1.00
O866   O     0.22774   0.12846   0.83334   0.00000  Uiso   1.00
O867   O     0.22774   0.20487   0.83334   0.00000  Uiso   1.00
O868   O     0.10559   0.12846   0.83333   0.00000  Uiso   1.00
C869   C     0.08673   0.16702   0.83675   0.00000  Uiso   1.00
C870   C     0.24661   0.16632   0.82992   0.00000  Uiso   1.00
O871   O     0.16667   0.20488   0.76178   0.00000  Uiso   1.00
O872   O     0.16666   0.12845   0.90489   0.00000  Uiso   1.00
O873   O     0.16666   0.20488   0.90489   0.00000  Uiso   1.00
O874   O     0.16667   0.12845   0.76178   0.00000  Uiso   1.00
C875   C     0.16659   0.16670   0.73958   0.00000  Uiso   1.00
C876   C     0.16675   0.16663   0.92709   0.00000  Uiso   1.00
Zn877  Zn    0.16667   0.21771   0.83333   0.00000  Uiso   1.00
Zn878  Zn    0.16667   0.11563   0.83333   0.00000  Uiso   1.00
C879   C     0.16664   0.16672   0.68847   0.00000  Uiso   1.00
C880   C     0.16669   0.16661   0.97820   0.00000  Uiso   1.00
C881   C     0.02177   0.12622   0.84452   0.00000  Uiso   1.00
C882   C     0.31156   0.20711   0.82215   0.00000  Uiso   1.00
C883   C     0.31318   0.12479   0.83430   0.00000  Uiso   1.00
C884   C     0.02016   0.20854   0.83237   0.00000  Uiso   1.00
C885   C     0.29099   0.16568   0.82627   0.00000  Uiso   1.00
C886   C     0.04235   0.16766   0.84040   0.00000  Uiso   1.00
C887   C     0.18913   0.02357   0.86870   0.00000  Uiso   1.00
C888   C     0.14421   0.30977   0.79797   0.00000  Uiso   1.00
C889   C     0.14393   0.02449   0.79823   0.00000  Uiso   1.00
C890   C     0.18940   0.30885   0.86844   0.00000  Uiso   1.00
N891   N     0.16667   0.28573   0.83333   0.00000  Uiso   1.00
N892   N     0.16667   0.04760   0.83333   0.00000  Uiso   1.00
N893   N     0.04311   0.08545   0.86004   0.00000  Uiso   1.00
O894   O     0.06147   0.08323   0.90391   0.00000  Uiso   1.00
O895   O     0.04359   0.05032   0.83093   0.00000  Uiso   1.00
N896   N     0.29022   0.24788   0.80662   0.00000  Uiso   1.00
O897   O     0.27186   0.25010   0.76275   0.00000  Uiso   1.00
O898   O     0.28974   0.28302   0.83574   0.00000  Uiso   1.00
N899   N     0.29373   0.08156   0.83108   0.00000  Uiso   1.00
O900   O     0.27769   0.06834   0.78850   0.00000  Uiso   1.00
O901   O     0.29739   0.05292   0.86799   0.00000  Uiso   1.00
N902   N     0.03960   0.25177   0.83559   0.00000  Uiso   1.00
O903   O     0.05564   0.26500   0.87817   0.00000  Uiso   1.00
O904   O     0.03595   0.28041   0.79867   0.00000  Uiso   1.00
C905   C     0.21199   0.04726   0.90722   0.00000  Uiso   1.00
N906   N     0.23032   0.06586   0.93849   0.00000  Uiso   1.00
C907   C     0.12135   0.28607   0.75944   0.00000  Uiso   1.00
N908   N     0.10302   0.26748   0.72818   0.00000  Uiso   1.00
C909   C     0.11901   0.04924   0.76169   0.00000  Uiso   1.00
N910   N     0.09882   0.06875   0.73230   0.00000  Uiso   1.00
C911   C     0.21432   0.28409   0.90498   0.00000  Uiso   1.00
N912   N     0.23451   0.26458   0.93437   0.00000  Uiso   1.00
O913   O     0.43892   0.20487   0.83333   0.00000  Uiso   1.00
O914   O     0.56108   0.12846   0.83334   0.00000  Uiso   1.00
O915   O     0.56108   0.20487   0.83334   0.00000  Uiso   1.00
O916   O     0.43892   0.12846   0.83333   0.00000  Uiso   1.00
C917   C     0.42006   0.16702   0.83675   0.00000  Uiso   1.00
C918   C     0.57994   0.16632   0.82992   0.00000  Uiso   1.00
O919   O     0.50000   0.20488   0.76178   0.00000  Uiso   1.00
O920   O     0.50000   0.12845   0.90489   0.00000  Uiso   1.00
O921   O     0.50000   0.20488   0.90489   0.00000  Uiso   1.00
O922   O     0.50000   0.12845   0.76178   0.00000  Uiso   1.00
C923   C     0.49992   0.16670   0.73958   0.00000  Uiso   1.00
C924   C     0.50008   0.16663   0.92709   0.00000  Uiso   1.00
Zn925  Zn    0.50000   0.21771   0.83333   0.00000  Uiso   1.00
Zn926  Zn    0.50000   0.11563   0.83333   0.00000  Uiso   1.00
C927   C     0.49997   0.16672   0.68847   0.00000  Uiso   1.00
C928   C     0.50003   0.16661   0.97820   0.00000  Uiso   1.00
C929   C     0.35511   0.12622   0.84452   0.00000  Uiso   1.00
C930   C     0.64489   0.20711   0.82215   0.00000  Uiso   1.00
C931   C     0.64651   0.12479   0.83430   0.00000  Uiso   1.00
C932   C     0.35349   0.20854   0.83237   0.00000  Uiso   1.00
C933   C     0.62432   0.16568   0.82627   0.00000  Uiso   1.00
C934   C     0.37568   0.16766   0.84040   0.00000  Uiso   1.00
C935   C     0.52246   0.02357   0.86870   0.00000  Uiso   1.00
C936   C     0.47754   0.30977   0.79797   0.00000  Uiso   1.00
C937   C     0.47727   0.02449   0.79823   0.00000  Uiso   1.00
C938   C     0.52274   0.30885   0.86844   0.00000  Uiso   1.00
N939   N     0.50000   0.28573   0.83333   0.00000  Uiso   1.00
N940   N     0.50000   0.04760   0.83333   0.00000  Uiso   1.00
N941   N     0.37644   0.08545   0.86004   0.00000  Uiso   1.00
O942   O     0.39481   0.08323   0.90391   0.00000  Uiso   1.00
O943   O     0.37692   0.05032   0.83093   0.00000  Uiso   1.00
N944   N     0.62356   0.24788   0.80662   0.00000  Uiso   1.00
O945   O     0.60519   0.25010   0.76275   0.00000  Uiso   1.00
O946   O     0.62308   0.28302   0.83574   0.00000  Uiso   1.00
N947   N     0.62707   0.08156   0.83108   0.00000  Uiso   1.00
O948   O     0.61102   0.06834   0.78850   0.00000  Uiso   1.00
O949   O     0.63072   0.05292   0.86799   0.00000  Uiso   1.00
N950   N     0.37293   0.25177   0.83559   0.00000  Uiso   1.00
O951   O     0.38898   0.26500   0.87817   0.00000  Uiso   1.00
O952   O     0.36928   0.28041   0.79867   0.00000  Uiso   1.00
C953   C     0.54532   0.04726   0.90722   0.00000  Uiso   1.00
N954   N     0.56365   0.06586   0.93849   0.00000  Uiso   1.00
C955   C     0.45468   0.28607   0.75944   0.00000  Uiso   1.00
N956   N     0.43635   0.26748   0.72818   0.00000  Uiso   1.00
C957   C     0.45235   0.04924   0.76169   0.00000  Uiso   1.00
N958   N     0.43216   0.06875   0.73230   0.00000  Uiso   1.00
C959   C     0.54765   0.28409   0.90498   0.00000  Uiso   1.00
N960   N     0.56784   0.26458   0.93437   0.00000  Uiso   1.00
O961   O     0.77226   0.20487   0.83333   0.00000  Uiso   1.00
O962   O     0.89441   0.12846   0.83334   0.00000  Uiso   1.00
O963   O     0.89441   0.20487   0.83334   0.00000  Uiso   1.00
O964   O     0.77226   0.12846   0.83333   0.00000  Uiso   1.00
C965   C     0.75339   0.16702   0.83675   0.00000  Uiso   1.00
C966   C     0.91327   0.16632   0.82992   0.00000  Uiso   1.00
O967   O     0.83334   0.20488   0.76178   0.00000  Uiso   1.00
O968   O     0.83333   0.12845   0.90489   0.00000  Uiso   1.00
O969   O     0.83333   0.20488   0.90489   0.00000  Uiso   1.00
O970   O     0.83334   0.12845   0.76178   0.00000  Uiso   1.00
C971   C     0.83326   0.16670   0.73958   0.00000  Uiso   1.00
C972   C     0.83341   0.16663   0.92709   0.00000  Uiso   1.00
Zn973  Zn    0.83333   0.21771   0.83333   0.00000  Uiso   1.00
Zn974  Zn    0.83333   0.11563   0.83333   0.00000  Uiso   1.00
C975   C     0.83331   0.16672   0.68847   0.00000  Uiso   1.00
C976   C     0.83336   0.16661   0.97820   0.00000  Uiso   1.00
C977   C     0.68844   0.12622   0.84452   0.00000  Uiso   1.00
C978   C     0.97823   0.20711   0.82215   0.00000  Uiso   1.00
C979   C     0.97984   0.12479   0.83430   0.00000  Uiso   1.00
C980   C     0.68682   0.20854   0.83237   0.00000  Uiso   1.00
C981   C     0.95765   0.16568   0.82627   0.00000  Uiso   1.00
C982   C     0.70901   0.16766   0.84040   0.00000  Uiso   1.00
C983   C     0.85579   0.02357   0.86870   0.00000  Uiso   1.00
C984   C     0.81088   0.30977   0.79797   0.00000  Uiso   1.00
C985   C     0.81060   0.02449   0.79823   0.00000  Uiso   1.00
C986   C     0.85607   0.30885   0.86844   0.00000  Uiso   1.00
N987   N     0.83333   0.28573   0.83333   0.00000  Uiso   1.00
N988   N     0.83333   0.04760   0.83333   0.00000  Uiso   1.00
N989   N     0.70978   0.08545   0.86004   0.00000  Uiso   1.00
O990   O     0.72814   0.08323   0.90391   0.00000  Uiso   1.00
O991   O     0.71026   0.05032   0.83093   0.00000  Uiso   1.00
N992   N     0.95689   0.24788   0.80662   0.00000  Uiso   1.00
O993   O     0.93853   0.25010   0.76275   0.00000  Uiso   1.00
O994   O     0.95641   0.28302   0.83574   0.00000  Uiso   1.00
N995   N     0.96040   0.08156   0.83108   0.00000  Uiso   1.00
O996   O     0.94436   0.06834   0.78850   0.00000  Uiso   1.00
O997   O     0.96405   0.05292   0.86799   0.00000  Uiso   1.00
N998   N     0.70627   0.25177   0.83559   0.00000  Uiso   1.00
O999   O     0.72231   0.26500   0.87817   0.00000  Uiso   1.00
O1000  O     0.70261   0.28041   0.79867   0.00000  Uiso   1.00
C1001  C     0.87865   0.04726   0.90722   0.00000  Uiso   1.00
N1002  N     0.89699   0.06586   0.93849   0.00000  Uiso   1.00
C1003  C     0.78801   0.28607   0.75944   0.00000  Uiso   1.00
N1004  N     0.76968   0.26748   0.72818   0.00000  Uiso   1.00
C1005  C     0.78568   0.04924   0.76169   0.00000  Uiso   1.00
N1006  N     0.76549   0.06875   0.73230   0.00000  Uiso   1.00
C1007  C     0.88099   0.28409   0.90498   0.00000  Uiso   1.00
N1008  N     0.90118   0.26458   0.93437   0.00000  Uiso   1.00
O1009  O     0.10559   0.53821   0.83333   0.00000  Uiso   1.00
O1010  O     0.22774   0.46179   0.83334   0.00000  Uiso   1.00
O1011  O     0.22774   0.53821   0.83334   0.00000  Uiso   1.00
O1012  O     0.10559   0.46179   0.83333   0.00000  Uiso   1.00
C1013  C     0.08673   0.50035   0.83675   0.00000  Uiso   1.00
C1014  C     0.24661   0.49965   0.82992   0.00000  Uiso   1.00
O1015  O     0.16667   0.53821   0.76178   0.00000  Uiso   1.00
O1016  O     0.16666   0.46179   0.90489   0.00000  Uiso   1.00
O1017  O     0.16666   0.53821   0.90489   0.00000  Uiso   1.00
O1018  O     0.16667   0.46179   0.76178   0.00000  Uiso   1.00
C1019  C     0.16659   0.50004   0.73958   0.00000  Uiso   1.00
C1020  C     0.16675   0.49996   0.92709   0.00000  Uiso   1.00
Zn1021 Zn    0.16667   0.55104   0.83333   0.00000  Uiso   1.00
Zn1022 Zn    0.16667   0.44896   0.83333   0.00000  Uiso   1.00
C1023  C     0.16664   0.50005   0.68847   0.00000  Uiso   1.00
C1024  C     0.16669   0.49995   0.97820   0.00000  Uiso   1.00
C1025  C     0.02177   0.45955   0.84452   0.00000  Uiso   1.00
C1026  C     0.31156   0.54045   0.82215   0.00000  Uiso   1.00
C1027  C     0.31318   0.45813   0.83430   0.00000  Uiso   1.00
C1028  C     0.02016   0.54187   0.83237   0.00000  Uiso   1.00
C1029  C     0.29099   0.49901   0.82627   0.00000  Uiso   1.00
C1030  C     0.04235   0.50099   0.84040   0.00000  Uiso   1.00
C1031  C     0.18913   0.35690   0.86870   0.00000  Uiso   1.00
C1032  C     0.14421   0.64310   0.79797   0.00000  Uiso   1.00
C1033  C     0.14393   0.35782   0.79823   0.00000  Uiso   1.00
C1034  C     0.18940   0.64218   0.86844   0.00000  Uiso   1.00
N1035  N     0.16667   0.61907   0.83333   0.00000  Uiso   1.00
N1036  N     0.16667   0.38093   0.83333   0.00000  Uiso   1.00
N1037  N     0.04311   0.41879   0.86004   0.00000  Uiso   1.00
O1038  O     0.06147   0.41656   0.90391   0.00000  Uiso   1.00
O1039  O     0.04359   0.38365   0.83093   0.00000  Uiso   1.00
N1040  N     0.29022   0.58121   0.80662   0.00000  Uiso   1.00
O1041  O     0.27186   0.58344   0.76275   0.00000  Uiso   1.00
O1042  O     0.28974   0.61635   0.83574   0.00000  Uiso   1.00
N1043  N     0.29373   0.41489   0.83108   0.00000  Uiso   1.00
O1044  O     0.27769   0.40167   0.78850   0.00000  Uiso   1.00
O1045  O     0.29739   0.38626   0.86799   0.00000  Uiso   1.00
N1046  N     0.03960   0.58511   0.83559   0.00000  Uiso   1.00
O1047  O     0.05564   0.59833   0.87817   0.00000  Uiso   1.00
O1048  O     0.03595   0.61374   0.79867   0.00000  Uiso   1.00
C1049  C     0.21199   0.38060   0.90722   0.00000  Uiso   1.00
N1050  N     0.23032   0.39919   0.93849   0.00000  Uiso   1.00
C1051  C     0.12135   0.61940   0.75944   0.00000  Uiso   1.00
N1052  N     0.10302   0.60081   0.72818   0.00000  Uiso   1.00
C1053  C     0.11901   0.38257   0.76169   0.00000  Uiso   1.00
N1054  N     0.09882   0.40209   0.73230   0.00000  Uiso   1.00
C1055  C     0.21432   0.61743   0.90498   0.00000  Uiso   1.00
N1056  N     0.23451   0.59791   0.93437   0.00000  Uiso   1.00
O1057  O     0.43892   0.53821   0.83333   0.00000  Uiso   1.00
O1058  O     0.56108   0.46179   0.83334   0.00000  Uiso   1.00
O1059  O     0.56108   0.53821   0.83334   0.00000  Uiso   1.00
O1060  O     0.43892   0.46179   0.83333   0.00000  Uiso   1.00
C1061  C     0.42006   0.50035   0.83675   0.00000  Uiso   1.00
C1062  C     0.57994   0.49965   0.82992   0.00000  Uiso   1.00
O1063  O     0.50000   0.53821   0.76178   0.00000  Uiso   1.00
O1064  O     0.50000   0.46179   0.90489   0.00000  Uiso   1.00
O1065  O     0.50000   0.53821   0.90489   0.00000  Uiso   1.00
O1066  O     0.50000   0.46179   0.76178   0.00000  Uiso   1.00
C1067  C     0.49992   0.50004   0.73958   0.00000  Uiso   1.00
C1068  C     0.50008   0.49996   0.92709   0.00000  Uiso   1.00
Zn1069 Zn    0.50000   0.55104   0.83333   0.00000  Uiso   1.00
Zn1070 Zn    0.50000   0.44896   0.83333   0.00000  Uiso   1.00
C1071  C     0.49997   0.50005   0.68847   0.00000  Uiso   1.00
C1072  C     0.50003   0.49995   0.97820   0.00000  Uiso   1.00
C1073  C     0.35511   0.45955   0.84452   0.00000  Uiso   1.00
C1074  C     0.64489   0.54045   0.82215   0.00000  Uiso   1.00
C1075  C     0.64651   0.45813   0.83430   0.00000  Uiso   1.00
C1076  C     0.35349   0.54187   0.83237   0.00000  Uiso   1.00
C1077  C     0.62432   0.49901   0.82627   0.00000  Uiso   1.00
C1078  C     0.37568   0.50099   0.84040   0.00000  Uiso   1.00
C1079  C     0.52246   0.35690   0.86870   0.00000  Uiso   1.00
C1080  C     0.47754   0.64310   0.79797   0.00000  Uiso   1.00
C1081  C     0.47727   0.35782   0.79823   0.00000  Uiso   1.00
C1082  C     0.52274   0.64218   0.86844   0.00000  Uiso   1.00
N1083  N     0.50000   0.61907   0.83333   0.00000  Uiso   1.00
N1084  N     0.50000   0.38093   0.83333   0.00000  Uiso   1.00
N1085  N     0.37644   0.41879   0.86004   0.00000  Uiso   1.00
O1086  O     0.39481   0.41656   0.90391   0.00000  Uiso   1.00
O1087  O     0.37692   0.38365   0.83093   0.00000  Uiso   1.00
N1088  N     0.62356   0.58121   0.80662   0.00000  Uiso   1.00
O1089  O     0.60519   0.58344   0.76275   0.00000  Uiso   1.00
O1090  O     0.62308   0.61635   0.83574   0.00000  Uiso   1.00
N1091  N     0.62707   0.41489   0.83108   0.00000  Uiso   1.00
O1092  O     0.61102   0.40167   0.78850   0.00000  Uiso   1.00
O1093  O     0.63072   0.38626   0.86799   0.00000  Uiso   1.00
N1094  N     0.37293   0.58511   0.83559   0.00000  Uiso   1.00
O1095  O     0.38898   0.59833   0.87817   0.00000  Uiso   1.00
O1096  O     0.36928   0.61374   0.79867   0.00000  Uiso   1.00
C1097  C     0.54532   0.38060   0.90722   0.00000  Uiso   1.00
N1098  N     0.56365   0.39919   0.93849   0.00000  Uiso   1.00
C1099  C     0.45468   0.61940   0.75944   0.00000  Uiso   1.00
N1100  N     0.43635   0.60081   0.72818   0.00000  Uiso   1.00
C1101  C     0.45235   0.38257   0.76169   0.00000  Uiso   1.00
N1102  N     0.43216   0.40209   0.73230   0.00000  Uiso   1.00
C1103  C     0.54765   0.61743   0.90498   0.00000  Uiso   1.00
N1104  N     0.56784   0.59791   0.93437   0.00000  Uiso   1.00
O1105  O     0.77226   0.53821   0.83333   0.00000  Uiso   1.00
O1106  O     0.89441   0.46179   0.83334   0.00000  Uiso   1.00
O1107  O     0.89441   0.53821   0.83334   0.00000  Uiso   1.00
O1108  O     0.77226   0.46179   0.83333   0.00000  Uiso   1.00
C1109  C     0.75339   0.50035   0.83675   0.00000  Uiso   1.00
C1110  C     0.91327   0.49965   0.82992   0.00000  Uiso   1.00
O1111  O     0.83334   0.53821   0.76178   0.00000  Uiso   1.00
O1112  O     0.83333   0.46179   0.90489   0.00000  Uiso   1.00
O1113  O     0.83333   0.53821   0.90489   0.00000  Uiso   1.00
O1114  O     0.83334   0.46179   0.76178   0.00000  Uiso   1.00
C1115  C     0.83326   0.50004   0.73958   0.00000  Uiso   1.00
C1116  C     0.83341   0.49996   0.92709   0.00000  Uiso   1.00
Zn1117 Zn    0.83333   0.55104   0.83333   0.00000  Uiso   1.00
Zn1118 Zn    0.83333   0.44896   0.83333   0.00000  Uiso   1.00
C1119  C     0.83331   0.50005   0.68847   0.00000  Uiso   1.00
C1120  C     0.83336   0.49995   0.97820   0.00000  Uiso   1.00
C1121  C     0.68844   0.45955   0.84452   0.00000  Uiso   1.00
C1122  C     0.97823   0.54045   0.82215   0.00000  Uiso   1.00
C1123  C     0.97984   0.45813   0.83430   0.00000  Uiso   1.00
C1124  C     0.68682   0.54187   0.83237   0.00000  Uiso   1.00
C1125  C     0.95765   0.49901   0.82627   0.00000  Uiso   1.00
C1126  C     0.70901   0.50099   0.84040   0.00000  Uiso   1.00
C1127  C     0.85579   0.35690   0.86870   0.00000  Uiso   1.00
C1128  C     0.81088   0.64310   0.79797   0.00000  Uiso   1.00
C1129  C     0.81060   0.35782   0.79823   0.00000  Uiso   1.00
C1130  C     0.85607   0.64218   0.86844   0.00000  Uiso   1.00
N1131  N     0.83333   0.61907   0.83333   0.00000  Uiso   1.00
N1132  N     0.83333   0.38093   0.83333   0.00000  Uiso   1.00
N1133  N     0.70978   0.41879   0.86004   0.00000  Uiso   1.00
O1134  O     0.72814   0.41656   0.90391   0.00000  Uiso   1.00
O1135  O     0.71026   0.38365   0.83093   0.00000  Uiso   1.00
N1136  N     0.95689   0.58121   0.80662   0.00000  Uiso   1.00
O1137  O     0.93853   0.58344   0.76275   0.00000  Uiso   1.00
O1138  O     0.95641   0.61635   0.83574   0.00000  Uiso   1.00
N1139  N     0.96040   0.41489   0.83108   0.00000  Uiso   1.00
O1140  O     0.94436   0.40167   0.78850   0.00000  Uiso   1.00
O1141  O     0.96405   0.38626   0.86799   0.00000  Uiso   1.00
N1142  N     0.70627   0.58511   0.83559   0.00000  Uiso   1.00
O1143  O     0.72231   0.59833   0.87817   0.00000  Uiso   1.00
O1144  O     0.70261   0.61374   0.79867   0.00000  Uiso   1.00
C1145  C     0.87865   0.38060   0.90722   0.00000  Uiso   1.00
N1146  N     0.89699   0.39919   0.93849   0.00000  Uiso   1.00
C1147  C     0.78801   0.61940   0.75944   0.00000  Uiso   1.00
N1148  N     0.76968   0.60081   0.72818   0.00000  Uiso   1.00
C1149  C     0.78568   0.38257   0.76169   0.00000  Uiso   1.00
N1150  N     0.76549   0.40209   0.73230   0.00000  Uiso   1.00
C1151  C     0.88099   0.61743   0.90498   0.00000  Uiso   1.00
N1152  N     0.90118   0.59791   0.93437   0.00000  Uiso   1.00
O1153  O     0.10559   0.87154   0.83333   0.00000  Uiso   1.00
O1154  O     0.22774   0.79513   0.83334   0.00000  Uiso   1.00
O1155  O     0.22774   0.87154   0.83334   0.00000  Uiso   1.00
O1156  O     0.10559   0.79513   0.83333   0.00000  Uiso   1.00
C1157  C     0.08673   0.83368   0.83675   0.00000  Uiso   1.00
C1158  C     0.24661   0.83298   0.82992   0.00000  Uiso   1.00
O1159  O     0.16667   0.87155   0.76178   0.00000  Uiso   1.00
O1160  O     0.16666   0.79512   0.90489   0.00000  Uiso   1.00
O1161  O     0.16666   0.87155   0.90489   0.00000  Uiso   1.00
O1162  O     0.16667   0.79512   0.76178   0.00000  Uiso   1.00
C1163  C     0.16659   0.83337   0.73958   0.00000  Uiso   1.00
C1164  C     0.16675   0.83330   0.92709   0.00000  Uiso   1.00
Zn1165 Zn    0.16667   0.88437   0.83333   0.00000  Uiso   1.00
Zn1166 Zn    0.16667   0.78229   0.83333   0.00000  Uiso   1.00
C1167  C     0.16664   0.83339   0.68847   0.00000  Uiso   1.00
C1168  C     0.16669   0.83328   0.97820   0.00000  Uiso   1.00
C1169  C     0.02177   0.79289   0.84452   0.00000  Uiso   1.00
C1170  C     0.31156   0.87378   0.82215   0.00000  Uiso   1.00
C1171  C     0.31318   0.79146   0.83430   0.00000  Uiso   1.00
C1172  C     0.02016   0.87520   0.83237   0.00000  Uiso   1.00
C1173  C     0.29099   0.83234   0.82627   0.00000  Uiso   1.00
C1174  C     0.04235   0.83432   0.84040   0.00000  Uiso   1.00
C1175  C     0.18913   0.69023   0.86870   0.00000  Uiso   1.00
C1176  C     0.14421   0.97643   0.79797   0.00000  Uiso   1.00
C1177  C     0.14393   0.69115   0.79823   0.00000  Uiso   1.00
C1178  C     0.18940   0.97551   0.86844   0.00000  Uiso   1.00
N1179  N     0.16667   0.95240   0.83333   0.00000  Uiso   1.00
N1180  N     0.16667   0.71427   0.83333   0.00000  Uiso   1.00
N1181  N     0.04311   0.75212   0.86004   0.00000  Uiso   1.00
O1182  O     0.06147   0.74990   0.90391   0.00000  Uiso   1.00
O1183  O     0.04359   0.71698   0.83093   0.00000  Uiso   1.00
N1184  N     0.29022   0.91455   0.80662   0.00000  Uiso   1.00
O1185  O     0.27186   0.91677   0.76275   0.00000  Uiso   1.00
O1186  O     0.28974   0.94968   0.83574   0.00000  Uiso   1.00
N1187  N     0.29373   0.74823   0.83108   0.00000  Uiso   1.00
O1188  O     0.27769   0.73500   0.78850   0.00000  Uiso   1.00
O1189  O     0.29739   0.71959   0.86799   0.00000  Uiso   1.00
N1190  N     0.03960   0.91844   0.83559   0.00000  Uiso   1.00
O1191  O     0.05564   0.93166   0.87817   0.00000  Uiso   1.00
O1192  O     0.03595   0.94708   0.79867   0.00000  Uiso   1.00
C1193  C     0.21199   0.71393   0.90722   0.00000  Uiso   1.00
N1194  N     0.23032   0.73252   0.93849   0.00000  Uiso   1.00
C1195  C     0.12135   0.95274   0.75944   0.00000  Uiso   1.00
N1196  N     0.10302   0.93414   0.72818   0.00000  Uiso   1.00
C1197  C     0.11901   0.71591   0.76169   0.00000  Uiso   1.00
N1198  N     0.09882   0.73542   0.73230   0.00000  Uiso   1.00
C1199  C     0.21432   0.95076   0.90498   0.00000  Uiso   1.00
N1200  N     0.23451   0.93125   0.93437   0.00000  Uiso   1.00
O1201  O     0.43892   0.87154   0.83333   0.00000  Uiso   1.00
O1202  O     0.56108   0.79513   0.83334   0.00000  Uiso   1.00
O1203  O     0.56108   0.87154   0.83334   0.00000  Uiso   1.00
O1204  O     0.43892   0.79513   0.83333   0.00000  Uiso   1.00
C1205  C     0.42006   0.83368   0.83675   0.00000  Uiso   1.00
C1206  C     0.57994   0.83298   0.82992   0.00000  Uiso   1.00
O1207  O     0.50000   0.87155   0.76178   0.00000  Uiso   1.00
O1208  O     0.50000   0.79512   0.90489   0.00000  Uiso   1.00
O1209  O     0.50000   0.87155   0.90489   0.00000  Uiso   1.00
O1210  O     0.50000   0.79512   0.76178   0.00000  Uiso   1.00
C1211  C     0.49992   0.83337   0.73958   0.00000  Uiso   1.00
C1212  C     0.50008   0.83330   0.92709   0.00000  Uiso   1.00
Zn1213 Zn    0.50000   0.88437   0.83333   0.00000  Uiso   1.00
Zn1214 Zn    0.50000   0.78229   0.83333   0.00000  Uiso   1.00
C1215  C     0.49997   0.83339   0.68847   0.00000  Uiso   1.00
C1216  C     0.50003   0.83328   0.97820   0.00000  Uiso   1.00
C1217  C     0.35511   0.79289   0.84452   0.00000  Uiso   1.00
C1218  C     0.64489   0.87378   0.82215   0.00000  Uiso   1.00
C1219  C     0.64651   0.79146   0.83430   0.00000  Uiso   1.00
C1220  C     0.35349   0.87520   0.83237   0.00000  Uiso   1.00
C1221  C     0.62432   0.83234   0.82627   0.00000  Uiso   1.00
C1222  C     0.37568   0.83432   0.84040   0.00000  Uiso   1.00
C1223  C     0.52246   0.69023   0.86870   0.00000  Uiso   1.00
C1224  C     0.47754   0.97643   0.79797   0.00000  Uiso   1.00
C1225  C     0.47727   0.69115   0.79823   0.00000  Uiso   1.00
C1226  C     0.52274   0.97551   0.86844   0.00000  Uiso   1.00
N1227  N     0.50000   0.95240   0.83333   0.00000  Uiso   1.00
N1228  N     0.50000   0.71427   0.83333   0.00000  Uiso   1.00
N1229  N     0.37644   0.75212   0.86004   0.00000  Uiso   1.00
O1230  O     0.39481   0.74990   0.90391   0.00000  Uiso   1.00
O1231  O     0.37692   0.71698   0.83093   0.00000  Uiso   1.00
N1232  N     0.62356   0.91455   0.80662   0.00000  Uiso   1.00
O1233  O     0.60519   0.91677   0.76275   0.00000  Uiso   1.00
O1234  O     0.62308   0.94968   0.83574   0.00000  Uiso   1.00
N1235  N     0.62707   0.74823   0.83108   0.00000  Uiso   1.00
O1236  O     0.61102   0.73500   0.78850   0.00000  Uiso   1.00
O1237  O     0.63072   0.71959   0.86799   0.00000  Uiso   1.00
N1238  N     0.37293   0.91844   0.83559   0.00000  Uiso   1.00
O1239  O     0.38898   0.93166   0.87817   0.00000  Uiso   1.00
O1240  O     0.36928   0.94708   0.79867   0.00000  Uiso   1.00
C1241  C     0.54532   0.71393   0.90722   0.00000  Uiso   1.00
N1242  N     0.56365   0.73252   0.93849   0.00000  Uiso   1.00
C1243  C     0.45468   0.95274   0.75944   0.00000  Uiso   1.00
N1244  N     0.43635   0.93414   0.72818   0.00000  Uiso   1.00
C1245  C     0.45235   0.71591   0.76169   0.00000  Uiso   1.00
N1246  N     0.43216   0.73542   0.73230   0.00000  Uiso   1.00
C1247  C     0.54765   0.95076   0.90498   0.00000  Uiso   1.00
N1248  N     0.56784   0.93125   0.93437   0.00000  Uiso   1.00
O1249  O     0.77226   0.87154   0.83333   0.00000  Uiso   1.00
O1250  O     0.89441   0.79513   0.83334   0.00000  Uiso   1.00
O1251  O     0.89441   0.87154   0.83334   0.00000  Uiso   1.00
O1252  O     0.77226   0.79513   0.83333   0.00000  Uiso   1.00
C1253  C     0.75339   0.83368   0.83675   0.00000  Uiso   1.00
C1254  C     0.91327   0.83298   0.82992   0.00000  Uiso   1.00
O1255  O     0.83334   0.87155   0.76178   0.00000  Uiso   1.00
O1256  O     0.83333   0.79512   0.90489   0.00000  Uiso   1.00
O1257  O     0.83333   0.87155   0.90489   0.00000  Uiso   1.00
O1258  O     0.83334   0.79512   0.76178   0.00000  Uiso   1.00
C1259  C     0.83326   0.83337   0.73958   0.00000  Uiso   1.00
C1260  C     0.83341   0.83330   0.92709   0.00000  Uiso   1.00
Zn1261 Zn    0.83333   0.88437   0.83333   0.00000  Uiso   1.00
Zn1262 Zn    0.83333   0.78229   0.83333   0.00000  Uiso   1.00
C1263  C     0.83331   0.83339   0.68847   0.00000  Uiso   1.00
C1264  C     0.83336   0.83328   0.97820   0.00000  Uiso   1.00
C1265  C     0.68844   0.79289   0.84452   0.00000  Uiso   1.00
C1266  C     0.97823   0.87378   0.82215   0.00000  Uiso   1.00
C1267  C     0.97984   0.79146   0.83430   0.00000  Uiso   1.00
C1268  C     0.68682   0.87520   0.83237   0.00000  Uiso   1.00
C1269  C     0.95765   0.83234   0.82627   0.00000  Uiso   1.00
C1270  C     0.70901   0.83432   0.84040   0.00000  Uiso   1.00
C1271  C     0.85579   0.69023   0.86870   0.00000  Uiso   1.00
C1272  C     0.81088   0.97643   0.79797   0.00000  Uiso   1.00
C1273  C     0.81060   0.69115   0.79823   0.00000  Uiso   1.00
C1274  C     0.85607   0.97551   0.86844   0.00000  Uiso   1.00
N1275  N     0.83333   0.95240   0.83333   0.00000  Uiso   1.00
N1276  N     0.83333   0.71427   0.83333   0.00000  Uiso   1.00
N1277  N     0.70978   0.75212   0.86004   0.00000  Uiso   1.00
O1278  O     0.72814   0.74990   0.90391   0.00000  Uiso   1.00
O1279  O     0.71026   0.71698   0.83093   0.00000  Uiso   1.00
N1280  N     0.95689   0.91455   0.80662   0.00000  Uiso   1.00
O1281  O     0.93853   0.91677   0.76275   0.00000  Uiso   1.00
O1282  O     0.95641   0.94968   0.83574   0.00000  Uiso   1.00
N1283  N     0.96040   0.74823   0.83108   0.00000  Uiso   1.00
O1284  O     0.94436   0.73500   0.78850   0.00000  Uiso   1.00
O1285  O     0.96405   0.71959   0.86799   0.00000  Uiso   1.00
N1286  N     0.70627   0.91844   0.83559   0.00000  Uiso   1.00
O1287  O     0.72231   0.93166   0.87817   0.00000  Uiso   1.00
O1288  O     0.70261   0.94708   0.79867   0.00000  Uiso   1.00
C1289  C     0.87865   0.71393   0.90722   0.00000  Uiso   1.00
N1290  N     0.89699   0.73252   0.93849   0.00000  Uiso   1.00
C1291  C     0.78801   0.95274   0.75944   0.00000  Uiso   1.00
N1292  N     0.76968   0.93414   0.72818   0.00000  Uiso   1.00
C1293  C     0.78568   0.71591   0.76169   0.00000  Uiso   1.00
N1294  N     0.76549   0.73542   0.73230   0.00000  Uiso   1.00
C1295  C     0.88099   0.95076   0.90498   0.00000  Uiso   1.00
N1296  N     0.90118   0.93125   0.93437   0.00000  Uiso   1.00
loop_
_geom_bond_atom_site_label_1
_geom_bond_atom_site_label_2
_geom_bond_distance
_geom_bond_site_symmetry_2
_ccdc_geom_bond_type
O1     C5      1.290   .     A
O1     Zn13    2.026   .     S
O2     C6      1.290   .     A
O2     Zn14    2.026   .     S
O3     Zn13    2.016   .     S
O3     C6      1.293   .     A
O4     Zn14    2.016   .     S
O4     C5      1.293   .     A
C5     C22     1.448   .     S
C6     C21     1.448   .     S
O7     C11     1.279   .     A
O7     Zn13    1.949   .     S
O8     C12     1.279   .     A
O8     Zn14    1.949   .     S
O9     C12     1.278   .     A
O9     Zn13    1.947   .     S
O10    C11     1.278   .     A
O10    Zn14    1.947   .     S
C11    C15     1.365   .     S
C12    C16     1.365   .     S
Zn13   N27     2.016   .     S
Zn14   N28     2.016   .     S
C15    C880    1.165   1_554 S
C16    C447    1.165   .     S
C17    C22     1.412   .     A
C17    N29     1.439   .     S
C17    C115    1.384   1_455 S
C18    C21     1.412   .     A
C18    N32     1.439   .     S
C18    C68     1.384   .     S
C19    N35     1.438   .     S
C19    C21     1.414   .     A
C19    C65     1.384   .     S
C20    N38     1.438   .     S
C20    C22     1.414   .     A
C20    C114    1.384   1_455 S
C23    N28     1.370   .     A
C23    C41     1.442   .     S
C23    C314    1.424   1_545 S
C24    N27     1.370   .     A
C24    C43     1.442   .     S
C24    C169    1.424   .     S
C25    N28     1.369   .     A
C25    C45     1.443   .     S
C25    C312    1.424   1_545 S
C26    N27     1.369   .     A
C26    C47     1.443   .     S
C26    C167    1.424   .     S
N29    O30     1.301   .     A
N29    O31     1.301   .     A
N32    O33     1.301   .     A
N32    O34     1.301   .     A
N35    O37     1.301   .     A
N35    O36     1.302   .     A
N38    O40     1.301   .     A
N38    O39     1.302   .     A
C41    N42     1.158   .     T
C43    N44     1.158   .     T
C45    N46     1.158   .     T
C47    N48     1.158   .     T
O49    C53     1.290   .     A
O49    Zn61    2.026   .     S
O50    C54     1.290   .     A
O50    Zn62    2.026   .     S
O51    Zn61    2.016   .     S
O51    C54     1.293   .     A
O52    Zn62    2.016   .     S
O52    C53     1.293   .     A
C53    C70     1.448   .     S
C54    C69     1.448   .     S
O55    C59     1.279   .     A
O55    Zn61    1.949   .     S
O56    C60     1.279   .     A
O56    Zn62    1.949   .     S
O57    C60     1.278   .     A
O57    Zn61    1.947   .     S
O58    C59     1.278   .     A
O58    Zn62    1.947   .     S
C59    C63     1.365   .     S
C60    C64     1.365   .     S
Zn61   N75     2.016   .     S
Zn62   N76     2.016   .     S
C63    C928    1.165   1_554 S
C64    C495    1.165   .     S
C65    C70     1.412   .     A
C65    N77     1.439   .     S
C66    C69     1.412   .     A
C66    N80     1.439   .     S
C66    C116    1.384   .     S
C67    N83     1.438   .     S
C67    C69     1.414   .     A
C67    C113    1.384   .     S
C68    N86     1.438   .     S
C68    C70     1.414   .     A
C71    N76     1.370   .     A
C71    C89     1.442   .     S
C71    C362    1.424   1_545 S
C72    N75     1.370   .     A
C72    C91     1.442   .     S
C72    C217    1.424   .     S
C73    N76     1.369   .     A
C73    C93     1.443   .     S
C73    C360    1.424   1_545 S
C74    N75     1.369   .     A
C74    C95     1.443   .     S
C74    C215    1.424   .     S
N77    O78     1.301   .     A
N77    O79     1.301   .     A
N80    O81     1.301   .     A
N80    O82     1.301   .     A
N83    O85     1.301   .     A
N83    O84     1.302   .     A
N86    O88     1.301   .     A
N86    O87     1.302   .     A
C89    N90     1.158   .     T
C91    N92     1.158   .     T
C93    N94     1.158   .     T
C95    N96     1.158   .     T
O97    C101    1.290   .     A
O97    Zn109   2.026   .     S
O98    C102    1.290   .     A
O98    Zn110   2.026   .     S
O99    Zn109   2.016   .     S
O99    C102    1.293   .     A
O100   Zn110   2.016   .     S
O100   C101    1.293   .     A
C101   C118    1.448   .     S
C102   C117    1.448   .     S
O103   C107    1.279   .     A
O103   Zn109   1.949   .     S
O104   C108    1.279   .     A
O104   Zn110   1.949   .     S
O105   C108    1.278   .     A
O105   Zn109   1.947   .     S
O106   C107    1.278   .     A
O106   Zn110   1.947   .     S
C107   C111    1.365   .     S
C108   C112    1.365   .     S
Zn109  N123    2.016   .     S
Zn110  N124    2.016   .     S
C111   C976    1.165   1_554 S
C112   C543    1.165   .     S
C113   C118    1.412   .     A
C113   N125    1.439   .     S
C114   C117    1.412   .     A
C114   N128    1.439   .     S
C114   C20     1.384   1_655 S
C115   N131    1.438   .     S
C115   C117    1.414   .     A
C115   C17     1.384   1_655 S
C116   N134    1.438   .     S
C116   C118    1.414   .     A
C119   N124    1.370   .     A
C119   C137    1.442   .     S
C119   C410    1.424   1_545 S
C120   N123    1.370   .     A
C120   C139    1.442   .     S
C120   C265    1.424   .     S
C121   N124    1.369   .     A
C121   C141    1.443   .     S
C121   C408    1.424   1_545 S
C122   N123    1.369   .     A
C122   C143    1.443   .     S
C122   C263    1.424   .     S
N125   O126    1.301   .     A
N125   O127    1.301   .     A
N128   O129    1.301   .     A
N128   O130    1.301   .     A
N131   O133    1.301   .     A
N131   O132    1.302   .     A
N134   O136    1.301   .     A
N134   O135    1.302   .     A
C137   N138    1.158   .     T
C139   N140    1.158   .     T
C141   N142    1.158   .     T
C143   N144    1.158   .     T
O145   C149    1.290   .     A
O145   Zn157   2.026   .     S
O146   C150    1.290   .     A
O146   Zn158   2.026   .     S
O147   Zn157   2.016   .     S
O147   C150    1.293   .     A
O148   Zn158   2.016   .     S
O148   C149    1.293   .     A
C149   C166    1.448   .     S
C150   C165    1.448   .     S
O151   C155    1.279   .     A
O151   Zn157   1.949   .     S
O152   C156    1.279   .     A
O152   Zn158   1.949   .     S
O153   C156    1.278   .     A
O153   Zn157   1.947   .     S
O154   C155    1.278   .     A
O154   Zn158   1.947   .     S
C155   C159    1.365   .     S
C156   C160    1.365   .     S
Zn157  N171    2.016   .     S
Zn158  N172    2.016   .     S
C159   C1024   1.165   1_554 S
C160   C591    1.165   .     S
C161   C166    1.412   .     A
C161   N173    1.439   .     S
C161   C259    1.384   1_455 S
C162   C165    1.412   .     A
C162   N176    1.439   .     S
C162   C212    1.384   .     S
C163   N179    1.438   .     S
C163   C165    1.414   .     A
C163   C209    1.384   .     S
C164   N182    1.438   .     S
C164   C166    1.414   .     A
C164   C258    1.384   1_455 S
C167   N172    1.370   .     A
C167   C185    1.442   .     S
C168   N171    1.370   .     A
C168   C187    1.442   .     S
C168   C313    1.424   .     S
C169   N172    1.369   .     A
C169   C189    1.443   .     S
C170   N171    1.369   .     A
C170   C191    1.443   .     S
C170   C311    1.424   .     S
N173   O174    1.301   .     A
N173   O175    1.301   .     A
N176   O177    1.301   .     A
N176   O178    1.301   .     A
N179   O181    1.301   .     A
N179   O180    1.302   .     A
N182   O184    1.301   .     A
N182   O183    1.302   .     A
C185   N186    1.158   .     T
C187   N188    1.158   .     T
C189   N190    1.158   .     T
C191   N192    1.158   .     T
O193   C197    1.290   .     A
O193   Zn205   2.026   .     S
O194   C198    1.290   .     A
O194   Zn206   2.026   .     S
O195   Zn205   2.016   .     S
O195   C198    1.293   .     A
O196   Zn206   2.016   .     S
O196   C197    1.293   .     A
C197   C214    1.448   .     S
C198   C213    1.448   .     S
O199   C203    1.279   .     A
O199   Zn205   1.949   .     S
O200   C204    1.279   .     A
O200   Zn206   1.949   .     S
O201   C204    1.278   .     A
O201   Zn205   1.947   .     S
O202   C203    1.278   .     A
O202   Zn206   1.947   .     S
C203   C207    1.365   .     S
C204   C208    1.365   .     S
Zn205  N219    2.016   .     S
Zn206  N220    2.016   .     S
C207   C1072   1.165   1_554 S
C208   C639    1.165   .     S
C209   C214    1.412   .     A
C209   N221    1.439   .     S
C210   C213    1.412   .     A
C210   N224    1.439   .     S
C210   C260    1.384   .     S
C211   N227    1.438   .     S
C211   C213    1.414   .     A
C211   C257    1.384   .     S
C212   N230    1.438   .     S
C212   C214    1.414   .     A
C215   N220    1.370   .     A
C215   C233    1.442   .     S
C216   N219    1.370   .     A
C216   C235    1.442   .     S
C216   C361    1.424   .     S
C217   N220    1.369   .     A
C217   C237    1.443   .     S
C218   N219    1.369   .     A
C218   C239    1.443   .     S
C218   C359    1.424   .     S
N221   O222    1.301   .     A
N221   O223    1.301   .     A
N224   O225    1.301   .     A
N224   O226    1.301   .     A
N227   O229    1.301   .     A
N227   O228    1.302   .     A
N230   O232    1.301   .     A
N230   O231    1.302   .     A
C233   N234    1.158   .     T
C235   N236    1.158   .     T
C237   N238    1.158   .     T
C239   N240    1.158   .     T
O241   C245    1.290   .     A
O241   Zn253   2.026   .     S
O242   C246    1.290   .     A
O242   Zn254   2.026   .     S
O243   Zn253   2.016   .     S
O243   C246    1.293   .     A
O244   Zn254   2.016   .     S
O244   C245    1.293   .     A
C245   C262    1.448   .     S
C246   C261    1.448   .     S
O247   C251    1.279   .     A
O247   Zn253   1.949   .     S
O248   C252    1.279   .     A
O248   Zn254   1.949   .     S
O249   C252    1.278   .     A
O249   Zn253   1.947   .     S
O250   C251    1.278   .     A
O250   Zn254   1.947   .     S
C251   C255    1.365   .     S
C252   C256    1.365   .     S
Zn253  N267    2.016   .     S
Zn254  N268    2.016   .     S
C255   C1120   1.165   1_554 S
C256   C687    1.165   .     S
C257   C262    1.412   .     A
C257   N269    1.439   .     S
C258   C261    1.412   .     A
C258   N272    1.439   .     S
C258   C164    1.384   1_655 S
C259   N275    1.438   .     S
C259   C261    1.414   .     A
C259   C161    1.384   1_655 S
C260   N278    1.438   .     S
C260   C262    1.414   .     A
C263   N268    1.370   .     A
C263   C281    1.442   .     S
C264   N267    1.370   .     A
C264   C283    1.442   .     S
C264   C409    1.424   .     S
C265   N268    1.369   .     A
C265   C285    1.443   .     S
C266   N267    1.369   .     A
C266   C287    1.443   .     S
C266   C407    1.424   .     S
N269   O270    1.301   .     A
N269   O271    1.301   .     A
N272   O273    1.301   .     A
N272   O274    1.301   .     A
N275   O277    1.301   .     A
N275   O276    1.302   .     A
N278   O280    1.301   .     A
N278   O279    1.302   .     A
C281   N282    1.158   .     T
C283   N284    1.158   .     T
C285   N286    1.158   .     T
C287   N288    1.158   .     T
O289   C293    1.290   .     A
O289   Zn301   2.026   .     S
O290   C294    1.290   .     A
O290   Zn302   2.026   .     S
O291   Zn301   2.016   .     S
O291   C294    1.293   .     A
O292   Zn302   2.016   .     S
O292   C293    1.293   .     A
C293   C310    1.448   .     S
C294   C309    1.448   .     S
O295   C299    1.279   .     A
O295   Zn301   1.949   .     S
O296   C300    1.279   .     A
O296   Zn302   1.949   .     S
O297   C300    1.278   .     A
O297   Zn301   1.947   .     S
O298   C299    1.278   .     A
O298   Zn302   1.947   .     S
C299   C303    1.365   .     S
C300   C304    1.365   .     S
Zn301  N315    2.016   .     S
Zn302  N316    2.016   .     S
C303   C1168   1.165   1_554 S
C304   C735    1.165   .     S
C305   C310    1.412   .     A
C305   N317    1.439   .     S
C305   C403    1.384   1_455 S
C306   C309    1.412   .     A
C306   N320    1.439   .     S
C306   C356    1.384   .     S
C307   N323    1.438   .     S
C307   C309    1.414   .     A
C307   C353    1.384   .     S
C308   N326    1.438   .     S
C308   C310    1.414   .     A
C308   C402    1.384   1_455 S
C311   N316    1.370   .     A
C311   C329    1.442   .     S
C312   N315    1.370   .     A
C312   C331    1.442   .     S
C312   C25     1.424   1_565 S
C313   N316    1.369   .     A
C313   C333    1.443   .     S
C314   N315    1.369   .     A
C314   C335    1.443   .     S
C314   C23     1.424   1_565 S
N317   O318    1.301   .     A
N317   O319    1.301   .     A
N320   O321    1.301   .     A
N320   O322    1.301   .     A
N323   O325    1.301   .     A
N323   O324    1.302   .     A
N326   O328    1.301   .     A
N326   O327    1.302   .     A
C329   N330    1.158   .     T
C331   N332    1.158   .     T
C333   N334    1.158   .     T
C335   N336    1.158   .     T
O337   C341    1.290   .     A
O337   Zn349   2.026   .     S
O338   C342    1.290   .     A
O338   Zn350   2.026   .     S
O339   Zn349   2.016   .     S
O339   C342    1.293   .     A
O340   Zn350   2.016   .     S
O340   C341    1.293   .     A
C341   C358    1.448   .     S
C342   C357    1.448   .     S
O343   C347    1.279   .     A
O343   Zn349   1.949   .     S
O344   C348    1.279   .     A
O344   Zn350   1.949   .     S
O345   C348    1.278   .     A
O345   Zn349   1.947   .     S
O346   C347    1.278   .     A
O346   Zn350   1.947   .     S
C347   C351    1.365   .     S
C348   C352    1.365   .     S
Zn349  N363    2.016   .     S
Zn350  N364    2.016   .     S
C351   C1216   1.165   1_554 S
C352   C783    1.165   .     S
C353   C358    1.412   .     A
C353   N365    1.439   .     S
C354   C357    1.412   .     A
C354   N368    1.439   .     S
C354   C404    1.384   .     S
C355   N371    1.438   .     S
C355   C357    1.414   .     A
C355   C401    1.384   .     S
C356   N374    1.438   .     S
C356   C358    1.414   .     A
C359   N364    1.370   .     A
C359   C377    1.442   .     S
C360   N363    1.370   .     A
C360   C379    1.442   .     S
C360   C73     1.424   1_565 S
C361   N364    1.369   .     A
C361   C381    1.443   .     S
C362   N363    1.369   .     A
C362   C383    1.443   .     S
C362   C71     1.424   1_565 S
N365   O366    1.301   .     A
N365   O367    1.301   .     A
N368   O369    1.301   .     A
N368   O370    1.301   .     A
N371   O373    1.301   .     A
N371   O372    1.302   .     A
N374   O376    1.301   .     A
N374   O375    1.302   .     A
C377   N378    1.158   .     T
C379   N380    1.158   .     T
C381   N382    1.158   .     T
C383   N384    1.158   .     T
O385   C389    1.290   .     A
O385   Zn397   2.026   .     S
O386   C390    1.290   .     A
O386   Zn398   2.026   .     S
O387   Zn397   2.016   .     S
O387   C390    1.293   .     A
O388   Zn398   2.016   .     S
O388   C389    1.293   .     A
C389   C406    1.448   .     S
C390   C405    1.448   .     S
O391   C395    1.279   .     A
O391   Zn397   1.949   .     S
O392   C396    1.279   .     A
O392   Zn398   1.949   .     S
O393   C396    1.278   .     A
O393   Zn397   1.947   .     S
O394   C395    1.278   .     A
O394   Zn398   1.947   .     S
C395   C399    1.365   .     S
C396   C400    1.365   .     S
Zn397  N411    2.016   .     S
Zn398  N412    2.016   .     S
C399   C1264   1.165   1_554 S
C400   C831    1.165   .     S
C401   C406    1.412   .     A
C401   N413    1.439   .     S
C402   C405    1.412   .     A
C402   N416    1.439   .     S
C402   C308    1.384   1_655 S
C403   N419    1.438   .     S
C403   C405    1.414   .     A
C403   C305    1.384   1_655 S
C404   N422    1.438   .     S
C404   C406    1.414   .     A
C407   N412    1.370   .     A
C407   C425    1.442   .     S
C408   N411    1.370   .     A
C408   C427    1.442   .     S
C408   C121    1.424   1_565 S
C409   N412    1.369   .     A
C409   C429    1.443   .     S
C410   N411    1.369   .     A
C410   C431    1.443   .     S
C410   C119    1.424   1_565 S
N413   O414    1.301   .     A
N413   O415    1.301   .     A
N416   O417    1.301   .     A
N416   O418    1.301   .     A
N419   O421    1.301   .     A
N419   O420    1.302   .     A
N422   O424    1.301   .     A
N422   O423    1.302   .     A
C425   N426    1.158   .     T
C427   N428    1.158   .     T
C429   N430    1.158   .     T
C431   N432    1.158   .     T
O433   C437    1.290   .     A
O433   Zn445   2.026   .     S
O434   C438    1.290   .     A
O434   Zn446   2.026   .     S
O435   Zn445   2.016   .     S
O435   C438    1.293   .     A
O436   Zn446   2.016   .     S
O436   C437    1.293   .     A
C437   C454    1.448   .     S
C438   C453    1.448   .     S
O439   C443    1.279   .     A
O439   Zn445   1.949   .     S
O440   C444    1.279   .     A
O440   Zn446   1.949   .     S
O441   C444    1.278   .     A
O441   Zn445   1.947   .     S
O442   C443    1.278   .     A
O442   Zn446   1.947   .     S
C443   C447    1.365   .     S
C444   C448    1.365   .     S
Zn445  N459    2.016   .     S
Zn446  N460    2.016   .     S
C448   C879    1.165   .     S
C449   C454    1.412   .     A
C449   N461    1.439   .     S
C449   C547    1.384   1_455 S
C450   C453    1.412   .     A
C450   N464    1.439   .     S
C450   C500    1.384   .     S
C451   N467    1.438   .     S
C451   C453    1.414   .     A
C451   C497    1.384   .     S
C452   N470    1.438   .     S
C452   C454    1.414   .     A
C452   C546    1.384   1_455 S
C455   N460    1.370   .     A
C455   C473    1.442   .     S
C455   C746    1.424   1_545 S
C456   N459    1.370   .     A
C456   C475    1.442   .     S
C456   C601    1.424   .     S
C457   N460    1.369   .     A
C457   C477    1.443   .     S
C457   C744    1.424   1_545 S
C458   N459    1.369   .     A
C458   C479    1.443   .     S
C458   C599    1.424   .     S
N461   O462    1.301   .     A
N461   O463    1.301   .     A
N464   O465    1.301   .     A
N464   O466    1.301   .     A
N467   O469    1.301   .     A
N467   O468    1.302   .     A
N470   O472    1.301   .     A
N470   O471    1.302   .     A
C473   N474    1.158   .     T
C475   N476    1.158   .     T
C477   N478    1.158   .     T
C479   N480    1.158   .     T
O481   C485    1.290   .     A
O481   Zn493   2.026   .     S
O482   C486    1.290   .     A
O482   Zn494   2.026   .     S
O483   Zn493   2.016   .     S
O483   C486    1.293   .     A
O484   Zn494   2.016   .     S
O484   C485    1.293   .     A
C485   C502    1.448   .     S
C486   C501    1.448   .     S
O487   C491    1.279   .     A
O487   Zn493   1.949   .     S
O488   C492    1.279   .     A
O488   Zn494   1.949   .     S
O489   C492    1.278   .     A
O489   Zn493   1.947   .     S
O490   C491    1.278   .     A
O490   Zn494   1.947   .     S
C491   C495    1.365   .     S
C492   C496    1.365   .     S
Zn493  N507    2.016   .     S
Zn494  N508    2.016   .     S
C496   C927    1.165   .     S
C497   C502    1.412   .     A
C497   N509    1.439   .     S
C498   C501    1.412   .     A
C498   N512    1.439   .     S
C498   C548    1.384   .     S
C499   N515    1.438   .     S
C499   C501    1.414   .     A
C499   C545    1.384   .     S
C500   N518    1.438   .     S
C500   C502    1.414   .     A
C503   N508    1.370   .     A
C503   C521    1.442   .     S
C503   C794    1.424   1_545 S
C504   N507    1.370   .     A
C504   C523    1.442   .     S
C504   C649    1.424   .     S
C505   N508    1.369   .     A
C505   C525    1.443   .     S
C505   C792    1.424   1_545 S
C506   N507    1.369   .     A
C506   C527    1.443   .     S
C506   C647    1.424   .     S
N509   O510    1.301   .     A
N509   O511    1.301   .     A
N512   O513    1.301   .     A
N512   O514    1.301   .     A
N515   O517    1.301   .     A
N515   O516    1.302   .     A
N518   O520    1.301   .     A
N518   O519    1.302   .     A
C521   N522    1.158   .     T
C523   N524    1.158   .     T
C525   N526    1.158   .     T
C527   N528    1.158   .     T
O529   C533    1.290   .     A
O529   Zn541   2.026   .     S
O530   C534    1.290   .     A
O530   Zn542   2.026   .     S
O531   Zn541   2.016   .     S
O531   C534    1.293   .     A
O532   Zn542   2.016   .     S
O532   C533    1.293   .     A
C533   C550    1.448   .     S
C534   C549    1.448   .     S
O535   C539    1.279   .     A
O535   Zn541   1.949   .     S
O536   C540    1.279   .     A
O536   Zn542   1.949   .     S
O537   C540    1.278   .     A
O537   Zn541   1.947   .     S
O538   C539    1.278   .     A
O538   Zn542   1.947   .     S
C539   C543    1.365   .     S
C540   C544    1.365   .     S
Zn541  N555    2.016   .     S
Zn542  N556    2.016   .     S
C544   C975    1.165   .     S
C545   C550    1.412   .     A
C545   N557    1.439   .     S
C546   C549    1.412   .     A
C546   N560    1.439   .     S
C546   C452    1.384   1_655 S
C547   N563    1.438   .     S
C547   C549    1.414   .     A
C547   C449    1.384   1_655 S
C548   N566    1.438   .     S
C548   C550    1.414   .     A
C551   N556    1.370   .     A
C551   C569    1.442   .     S
C551   C842    1.424   1_545 S
C552   N555    1.370   .     A
C552   C571    1.442   .     S
C552   C697    1.424   .     S
C553   N556    1.369   .     A
C553   C573    1.443   .     S
C553   C840    1.424   1_545 S
C554   N555    1.369   .     A
C554   C575    1.443   .     S
C554   C695    1.424   .     S
N557   O558    1.301   .     A
N557   O559    1.301   .     A
N560   O561    1.301   .     A
N560   O562    1.301   .     A
N563   O565    1.301   .     A
N563   O564    1.302   .     A
N566   O568    1.301   .     A
N566   O567    1.302   .     A
C569   N570    1.158   .     T
C571   N572    1.158   .     T
C573   N574    1.158   .     T
C575   N576    1.158   .     T
O577   C581    1.290   .     A
O577   Zn589   2.026   .     S
O578   C582    1.290   .     A
O578   Zn590   2.026   .     S
O579   Zn589   2.016   .     S
O579   C582    1.293   .     A
O580   Zn590   2.016   .     S
O580   C581    1.293   .     A
C581   C598    1.448   .     S
C582   C597    1.448   .     S
O583   C587    1.279   .     A
O583   Zn589   1.949   .     S
O584   C588    1.279   .     A
O584   Zn590   1.949   .     S
O585   C588    1.278   .     A
O585   Zn589   1.947   .     S
O586   C587    1.278   .     A
O586   Zn590   1.947   .     S
C587   C591    1.365   .     S
C588   C592    1.365   .     S
Zn589  N603    2.016   .     S
Zn590  N604    2.016   .     S
C592   C1023   1.165   .     S
C593   C598    1.412   .     A
C593   N605    1.439   .     S
C593   C691    1.384   1_455 S
C594   C597    1.412   .     A
C594   N608    1.439   .     S
C594   C644    1.384   .     S
C595   N611    1.438   .     S
C595   C597    1.414   .     A
C595   C641    1.384   .     S
C596   N614    1.438   .     S
C596   C598    1.414   .     A
C596   C690    1.384   1_455 S
C599   N604    1.370   .     A
C599   C617    1.442   .     S
C600   N603    1.370   .     A
C600   C619    1.442   .     S
C600   C745    1.424   .     S
C601   N604    1.369   .     A
C601   C621    1.443   .     S
C602   N603    1.369   .     A
C602   C623    1.443   .     S
C602   C743    1.424   .     S
N605   O606    1.301   .     A
N605   O607    1.301   .     A
N608   O609    1.301   .     A
N608   O610    1.301   .     A
N611   O613    1.301   .     A
N611   O612    1.302   .     A
N614   O616    1.301   .     A
N614   O615    1.302   .     A
C617   N618    1.158   .     T
C619   N620    1.158   .     T
C621   N622    1.158   .     T
C623   N624    1.158   .     T
O625   C629    1.290   .     A
O625   Zn637   2.026   .     S
O626   C630    1.290   .     A
O626   Zn638   2.026   .     S
O627   Zn637   2.016   .     S
O627   C630    1.293   .     A
O628   Zn638   2.016   .     S
O628   C629    1.293   .     A
C629   C646    1.448   .     S
C630   C645    1.448   .     S
O631   C635    1.279   .     A
O631   Zn637   1.949   .     S
O632   C636    1.279   .     A
O632   Zn638   1.949   .     S
O633   C636    1.278   .     A
O633   Zn637   1.947   .     S
O634   C635    1.278   .     A
O634   Zn638   1.947   .     S
C635   C639    1.365   .     S
C636   C640    1.365   .     S
Zn637  N651    2.016   .     S
Zn638  N652    2.016   .     S
C640   C1071   1.165   .     S
C641   C646    1.412   .     A
C641   N653    1.439   .     S
C642   C645    1.412   .     A
C642   N656    1.439   .     S
C642   C692    1.384   .     S
C643   N659    1.438   .     S
C643   C645    1.414   .     A
C643   C689    1.384   .     S
C644   N662    1.438   .     S
C644   C646    1.414   .     A
C647   N652    1.370   .     A
C647   C665    1.442   .     S
C648   N651    1.370   .     A
C648   C667    1.442   .     S
C648   C793    1.424   .     S
C649   N652    1.369   .     A
C649   C669    1.443   .     S
C650   N651    1.369   .     A
C650   C671    1.443   .     S
C650   C791    1.424   .     S
N653   O654    1.301   .     A
N653   O655    1.301   .     A
N656   O657    1.301   .     A
N656   O658    1.301   .     A
N659   O661    1.301   .     A
N659   O660    1.302   .     A
N662   O664    1.301   .     A
N662   O663    1.302   .     A
C665   N666    1.158   .     T
C667   N668    1.158   .     T
C669   N670    1.158   .     T
C671   N672    1.158   .     T
O673   C677    1.290   .     A
O673   Zn685   2.026   .     S
O674   C678    1.290   .     A
O674   Zn686   2.026   .     S
O675   Zn685   2.016   .     S
O675   C678    1.293   .     A
O676   Zn686   2.016   .     S
O676   C677    1.293   .     A
C677   C694    1.448   .     S
C678   C693    1.448   .     S
O679   C683    1.279   .     A
O679   Zn685   1.949   .     S
O680   C684    1.279   .     A
O680   Zn686   1.949   .     S
O681   C684    1.278   .     A
O681   Zn685   1.947   .     S
O682   C683    1.278   .     A
O682   Zn686   1.947   .     S
C683   C687    1.365   .     S
C684   C688    1.365   .     S
Zn685  N699    2.016   .     S
Zn686  N700    2.016   .     S
C688   C1119   1.165   .     S
C689   C694    1.412   .     A
C689   N701    1.439   .     S
C690   C693    1.412   .     A
C690   N704    1.439   .     S
C690   C596    1.384   1_655 S
C691   N707    1.438   .     S
C691   C693    1.414   .     A
C691   C593    1.384   1_655 S
C692   N710    1.438   .     S
C692   C694    1.414   .     A
C695   N700    1.370   .     A
C695   C713    1.442   .     S
C696   N699    1.370   .     A
C696   C715    1.442   .     S
C696   C841    1.424   .     S
C697   N700    1.369   .     A
C697   C717    1.443   .     S
C698   N699    1.369   .     A
C698   C719    1.443   .     S
C698   C839    1.424   .     S
N701   O702    1.301   .     A
N701   O703    1.301   .     A
N704   O705    1.301   .     A
N704   O706    1.301   .     A
N707   O709    1.301   .     A
N707   O708    1.302   .     A
N710   O712    1.301   .     A
N710   O711    1.302   .     A
C713   N714    1.158   .     T
C715   N716    1.158   .     T
C717   N718    1.158   .     T
C719   N720    1.158   .     T
O721   C725    1.290   .     A
O721   Zn733   2.026   .     S
O722   C726    1.290   .     A
O722   Zn734   2.026   .     S
O723   Zn733   2.016   .     S
O723   C726    1.293   .     A
O724   Zn734   2.016   .     S
O724   C725    1.293   .     A
C725   C742    1.448   .     S
C726   C741    1.448   .     S
O727   C731    1.279   .     A
O727   Zn733   1.949   .     S
O728   C732    1.279   .     A
O728   Zn734   1.949   .     S
O729   C732    1.278   .     A
O729   Zn733   1.947   .     S
O730   C731    1.278   .     A
O730   Zn734   1.947   .     S
C731   C735    1.365   .     S
C732   C736    1.365   .     S
Zn733  N747    2.016   .     S
Zn734  N748    2.016   .     S
C736   C1167   1.165   .     S
C737   C742    1.412   .     A
C737   N749    1.439   .     S
C737   C835    1.384   1_455 S
C738   C741    1.412   .     A
C738   N752    1.439   .     S
C738   C788    1.384   .     S
C739   N755    1.438   .     S
C739   C741    1.414   .     A
C739   C785    1.384   .     S
C740   N758    1.438   .     S
C740   C742    1.414   .     A
C740   C834    1.384   1_455 S
C743   N748    1.370   .     A
C743   C761    1.442   .     S
C744   N747    1.370   .     A
C744   C763    1.442   .     S
C744   C457    1.424   1_565 S
C745   N748    1.369   .     A
C745   C765    1.443   .     S
C746   N747    1.369   .     A
C746   C767    1.443   .     S
C746   C455    1.424   1_565 S
N749   O750    1.301   .     A
N749   O751    1.301   .     A
N752   O753    1.301   .     A
N752   O754    1.301   .     A
N755   O757    1.301   .     A
N755   O756    1.302   .     A
N758   O760    1.301   .     A
N758   O759    1.302   .     A
C761   N762    1.158   .     T
C763   N764    1.158   .     T
C765   N766    1.158   .     T
C767   N768    1.158   .     T
O769   C773    1.290   .     A
O769   Zn781   2.026   .     S
O770   C774    1.290   .     A
O770   Zn782   2.026   .     S
O771   Zn781   2.016   .     S
O771   C774    1.293   .     A
O772   Zn782   2.016   .     S
O772   C773    1.293   .     A
C773   C790    1.448   .     S
C774   C789    1.448   .     S
O775   C779    1.279   .     A
O775   Zn781   1.949   .     S
O776   C780    1.279   .     A
O776   Zn782   1.949   .     S
O777   C780    1.278   .     A
O777   Zn781   1.947   .     S
O778   C779    1.278   .     A
O778   Zn782   1.947   .     S
C779   C783    1.365   .     S
C780   C784    1.365   .     S
Zn781  N795    2.016   .     S
Zn782  N796    2.016   .     S
C784   C1215   1.165   .     S
C785   C790    1.412   .     A
C785   N797    1.439   .     S
C786   C789    1.412   .     A
C786   N800    1.439   .     S
C786   C836    1.384   .     S
C787   N803    1.438   .     S
C787   C789    1.414   .     A
C787   C833    1.384   .     S
C788   N806    1.438   .     S
C788   C790    1.414   .     A
C791   N796    1.370   .     A
C791   C809    1.442   .     S
C792   N795    1.370   .     A
C792   C811    1.442   .     S
C792   C505    1.424   1_565 S
C793   N796    1.369   .     A
C793   C813    1.443   .     S
C794   N795    1.369   .     A
C794   C815    1.443   .     S
C794   C503    1.424   1_565 S
N797   O798    1.301   .     A
N797   O799    1.301   .     A
N800   O801    1.301   .     A
N800   O802    1.301   .     A
N803   O805    1.301   .     A
N803   O804    1.302   .     A
N806   O808    1.301   .     A
N806   O807    1.302   .     A
C809   N810    1.158   .     T
C811   N812    1.158   .     T
C813   N814    1.158   .     T
C815   N816    1.158   .     T
O817   C821    1.290   .     A
O817   Zn829   2.026   .     S
O818   C822    1.290   .     A
O818   Zn830   2.026   .     S
O819   Zn829   2.016   .     S
O819   C822    1.293   .     A
O820   Zn830   2.016   .     S
O820   C821    1.293   .     A
C821   C838    1.448   .     S
C822   C837    1.448   .     S
O823   C827    1.279   .     A
O823   Zn829   1.949   .     S
O824   C828    1.279   .     A
O824   Zn830   1.949   .     S
O825   C828    1.278   .     A
O825   Zn829   1.947   .     S
O826   C827    1.278   .     A
O826   Zn830   1.947   .     S
C827   C831    1.365   .     S
C828   C832    1.365   .     S
Zn829  N843    2.016   .     S
Zn830  N844    2.016   .     S
C832   C1263   1.165   .     S
C833   C838    1.412   .     A
C833   N845    1.439   .     S
C834   C837    1.412   .     A
C834   N848    1.439   .     S
C834   C740    1.384   1_655 S
C835   N851    1.438   .     S
C835   C837    1.414   .     A
C835   C737    1.384   1_655 S
C836   N854    1.438   .     S
C836   C838    1.414   .     A
C839   N844    1.370   .     A
C839   C857    1.442   .     S
C840   N843    1.370   .     A
C840   C859    1.442   .     S
C840   C553    1.424   1_565 S
C841   N844    1.369   .     A
C841   C861    1.443   .     S
C842   N843    1.369   .     A
C842   C863    1.443   .     S
C842   C551    1.424   1_565 S
N845   O846    1.301   .     A
N845   O847    1.301   .     A
N848   O849    1.301   .     A
N848   O850    1.301   .     A
N851   O853    1.301   .     A
N851   O852    1.302   .     A
N854   O856    1.301   .     A
N854   O855    1.302   .     A
C857   N858    1.158   .     T
C859   N860    1.158   .     T
C861   N862    1.158   .     T
C863   N864    1.158   .     T
O865   C869    1.290   .     A
O865   Zn877   2.026   .     S
O866   C870    1.290   .     A
O866   Zn878   2.026   .     S
O867   Zn877   2.016   .     S
O867   C870    1.293   .     A
O868   Zn878   2.016   .     S
O868   C869    1.293   .     A
C869   C886    1.448   .     S
C870   C885    1.448   .     S
O871   C875    1.279   .     A
O871   Zn877   1.949   .     S
O872   C876    1.279   .     A
O872   Zn878   1.949   .     S
O873   C876    1.278   .     A
O873   Zn877   1.947   .     S
O874   C875    1.278   .     A
O874   Zn878   1.947   .     S
C875   C879    1.365   .     S
C876   C880    1.365   .     S
Zn877  N891    2.016   .     S
Zn878  N892    2.016   .     S
C880   C15     1.165   1_556 S
C881   C886    1.412   .     A
C881   N893    1.439   .     S
C881   C979    1.384   1_455 S
C882   C885    1.412   .     A
C882   N896    1.439   .     S
C882   C932    1.384   .     S
C883   N899    1.438   .     S
C883   C885    1.414   .     A
C883   C929    1.384   .     S
C884   N902    1.438   .     S
C884   C886    1.414   .     A
C884   C978    1.384   1_455 S
C887   N892    1.370   .     A
C887   C905    1.442   .     S
C887   C1178   1.424   1_545 S
C888   N891    1.370   .     A
C888   C907    1.442   .     S
C888   C1033   1.424   .     S
C889   N892    1.369   .     A
C889   C909    1.443   .     S
C889   C1176   1.424   1_545 S
C890   N891    1.369   .     A
C890   C911    1.443   .     S
C890   C1031   1.424   .     S
N893   O894    1.301   .     A
N893   O895    1.301   .     A
N896   O897    1.301   .     A
N896   O898    1.301   .     A
N899   O901    1.301   .     A
N899   O900    1.302   .     A
N902   O904    1.301   .     A
N902   O903    1.302   .     A
C905   N906    1.158   .     T
C907   N908    1.158   .     T
C909   N910    1.158   .     T
C911   N912    1.158   .     T
O913   C917    1.290   .     A
O913   Zn925   2.026   .     S
O914   C918    1.290   .     A
O914   Zn926   2.026   .     S
O915   Zn925   2.016   .     S
O915   C918    1.293   .     A
O916   Zn926   2.016   .     S
O916   C917    1.293   .     A
C917   C934    1.448   .     S
C918   C933    1.448   .     S
O919   C923    1.279   .     A
O919   Zn925   1.949   .     S
O920   C924    1.279   .     A
O920   Zn926   1.949   .     S
O921   C924    1.278   .     A
O921   Zn925   1.947   .     S
O922   C923    1.278   .     A
O922   Zn926   1.947   .     S
C923   C927    1.365   .     S
C924   C928    1.365   .     S
Zn925  N939    2.016   .     S
Zn926  N940    2.016   .     S
C928   C63     1.165   1_556 S
C929   C934    1.412   .     A
C929   N941    1.439   .     S
C930   C933    1.412   .     A
C930   N944    1.439   .     S
C930   C980    1.384   .     S
C931   N947    1.438   .     S
C931   C933    1.414   .     A
C931   C977    1.384   .     S
C932   N950    1.438   .     S
C932   C934    1.414   .     A
C935   N940    1.370   .     A
C935   C953    1.442   .     S
C935   C1226   1.424   1_545 S
C936   N939    1.370   .     A
C936   C955    1.442   .     S
C936   C1081   1.424   .     S
C937   N940    1.369   .     A
C937   C957    1.443   .     S
C937   C1224   1.424   1_545 S
C938   N939    1.369   .     A
C938   C959    1.443   .     S
C938   C1079   1.424   .     S
N941   O942    1.301   .     A
N941   O943    1.301   .     A
N944   O945    1.301   .     A
N944   O946    1.301   .     A
N947   O949    1.301   .     A
N947   O948    1.302   .     A
N950   O952    1.301   .     A
N950   O951    1.302   .     A
C953   N954    1.158   .     T
C955   N956    1.158   .     T
C957   N958    1.158   .     T
C959   N960    1.158   .     T
O961   C965    1.290   .     A
O961   Zn973   2.026   .     S
O962   C966    1.290   .     A
O962   Zn974   2.026   .     S
O963   Zn973   2.016   .     S
O963   C966    1.293   .     A
O964   Zn974   2.016   .     S
O964   C965    1.293   .     A
C965   C982    1.448   .     S
C966   C981    1.448   .     S
O967   C971    1.279   .     A
O967   Zn973   1.949   .     S
O968   C972    1.279   .     A
O968   Zn974   1.949   .     S
O969   C972    1.278   .     A
O969   Zn973   1.947   .     S
O970   C971    1.278   .     A
O970   Zn974   1.947   .     S
C971   C975    1.365   .     S
C972   C976    1.365   .     S
Zn973  N987    2.016   .     S
Zn974  N988    2.016   .     S
C976   C111    1.165   1_556 S
C977   C982    1.412   .     A
C977   N989    1.439   .     S
C978   C981    1.412   .     A
C978   N992    1.439   .     S
C978   C884    1.384   1_655 S
C979   N995    1.438   .     S
C979   C981    1.414   .     A
C979   C881    1.384   1_655 S
C980   N998    1.438   .     S
C980   C982    1.414   .     A
C983   N988    1.370   .     A
C983   C1001   1.442   .     S
C983   C1274   1.424   1_545 S
C984   N987    1.370   .     A
C984   C1003   1.442   .     S
C984   C1129   1.424   .     S
C985   N988    1.369   .     A
C985   C1005   1.443   .     S
C985   C1272   1.424   1_545 S
C986   N987    1.369   .     A
C986   C1007   1.443   .     S
C986   C1127   1.424   .     S
N989   O990    1.301   .     A
N989   O991    1.301   .     A
N992   O993    1.301   .     A
N992   O994    1.301   .     A
N995   O997    1.301   .     A
N995   O996    1.302   .     A
N998   O1000   1.301   .     A
N998   O999    1.302   .     A
C1001  N1002   1.158   .     T
C1003  N1004   1.158   .     T
C1005  N1006   1.158   .     T
C1007  N1008   1.158   .     T
O1009  C1013   1.290   .     A
O1009  Zn1021  2.026   .     S
O1010  C1014   1.290   .     A
O1010  Zn1022  2.026   .     S
O1011  Zn1021  2.016   .     S
O1011  C1014   1.293   .     A
O1012  Zn1022  2.016   .     S
O1012  C1013   1.293   .     A
C1013  C1030   1.448   .     S
C1014  C1029   1.448   .     S
O1015  C1019   1.279   .     A
O1015  Zn1021  1.949   .     S
O1016  C1020   1.279   .     A
O1016  Zn1022  1.949   .     S
O1017  C1020   1.278   .     A
O1017  Zn1021  1.947   .     S
O1018  C1019   1.278   .     A
O1018  Zn1022  1.947   .     S
C1019  C1023   1.365   .     S
C1020  C1024   1.365   .     S
Zn1021 N1035   2.016   .     S
Zn1022 N1036   2.016   .     S
C1024  C159    1.165   1_556 S
C1025  C1030   1.412   .     A
C1025  N1037   1.439   .     S
C1025  C1123   1.384   1_455 S
C1026  C1029   1.412   .     A
C1026  N1040   1.439   .     S
C1026  C1076   1.384   .     S
C1027  N1043   1.438   .     S
C1027  C1029   1.414   .     A
C1027  C1073   1.384   .     S
C1028  N1046   1.438   .     S
C1028  C1030   1.414   .     A
C1028  C1122   1.384   1_455 S
C1031  N1036   1.370   .     A
C1031  C1049   1.442   .     S
C1032  N1035   1.370   .     A
C1032  C1051   1.442   .     S
C1032  C1177   1.424   .     S
C1033  N1036   1.369   .     A
C1033  C1053   1.443   .     S
C1034  N1035   1.369   .     A
C1034  C1055   1.443   .     S
C1034  C1175   1.424   .     S
N1037  O1038   1.301   .     A
N1037  O1039   1.301   .     A
N1040  O1041   1.301   .     A
N1040  O1042   1.301   .     A
N1043  O1045   1.301   .     A
N1043  O1044   1.302   .     A
N1046  O1048   1.301   .     A
N1046  O1047   1.302   .     A
C1049  N1050   1.158   .     T
C1051  N1052   1.158   .     T
C1053  N1054   1.158   .     T
C1055  N1056   1.158   .     T
O1057  C1061   1.290   .     A
O1057  Zn1069  2.026   .     S
O1058  C1062   1.290   .     A
O1058  Zn1070  2.026   .     S
O1059  Zn1069  2.016   .     S
O1059  C1062   1.293   .     A
O1060  Zn1070  2.016   .     S
O1060  C1061   1.293   .     A
C1061  C1078   1.448   .     S
C1062  C1077   1.448   .     S
O1063  C1067   1.279   .     A
O1063  Zn1069  1.949   .     S
O1064  C1068   1.279   .     A
O1064  Zn1070  1.949   .     S
O1065  C1068   1.278   .     A
O1065  Zn1069  1.947   .     S
O1066  C1067   1.278   .     A
O1066  Zn1070  1.947   .     S
C1067  C1071   1.365   .     S
C1068  C1072   1.365   .     S
Zn1069 N1083   2.016   .     S
Zn1070 N1084   2.016   .     S
C1072  C207    1.165   1_556 S
C1073  C1078   1.412   .     A
C1073  N1085   1.439   .     S
C1074  C1077   1.412   .     A
C1074  N1088   1.439   .     S
C1074  C1124   1.384   .     S
C1075  N1091   1.438   .     S
C1075  C1077   1.414   .     A
C1075  C1121   1.384   .     S
C1076  N1094   1.438   .     S
C1076  C1078   1.414   .     A
C1079  N1084   1.370   .     A
C1079  C1097   1.442   .     S
C1080  N1083   1.370   .     A
C1080  C1099   1.442   .     S
C1080  C1225   1.424   .     S
C1081  N1084   1.369   .     A
C1081  C1101   1.443   .     S
C1082  N1083   1.369   .     A
C1082  C1103   1.443   .     S
C1082  C1223   1.424   .     S
N1085  O1086   1.301   .     A
N1085  O1087   1.301   .     A
N1088  O1089   1.301   .     A
N1088  O1090   1.301   .     A
N1091  O1093   1.301   .     A
N1091  O1092   1.302   .     A
N1094  O1096   1.301   .     A
N1094  O1095   1.302   .     A
C1097  N1098   1.158   .     T
C1099  N1100   1.158   .     T
C1101  N1102   1.158   .     T
C1103  N1104   1.158   .     T
O1105  C1109   1.290   .     A
O1105  Zn1117  2.026   .     S
O1106  C1110   1.290   .     A
O1106  Zn1118  2.026   .     S
O1107  Zn1117  2.016   .     S
O1107  C1110   1.293   .     A
O1108  Zn1118  2.016   .     S
O1108  C1109   1.293   .     A
C1109  C1126   1.448   .     S
C1110  C1125   1.448   .     S
O1111  C1115   1.279   .     A
O1111  Zn1117  1.949   .     S
O1112  C1116   1.279   .     A
O1112  Zn1118  1.949   .     S
O1113  C1116   1.278   .     A
O1113  Zn1117  1.947   .     S
O1114  C1115   1.278   .     A
O1114  Zn1118  1.947   .     S
C1115  C1119   1.365   .     S
C1116  C1120   1.365   .     S
Zn1117 N1131   2.016   .     S
Zn1118 N1132   2.016   .     S
C1120  C255    1.165   1_556 S
C1121  C1126   1.412   .     A
C1121  N1133   1.439   .     S
C1122  C1125   1.412   .     A
C1122  N1136   1.439   .     S
C1122  C1028   1.384   1_655 S
C1123  N1139   1.438   .     S
C1123  C1125   1.414   .     A
C1123  C1025   1.384   1_655 S
C1124  N1142   1.438   .     S
C1124  C1126   1.414   .     A
C1127  N1132   1.370   .     A
C1127  C1145   1.442   .     S
C1128  N1131   1.370   .     A
C1128  C1147   1.442   .     S
C1128  C1273   1.424   .     S
C1129  N1132   1.369   .     A
C1129  C1149   1.443   .     S
C1130  N1131   1.369   .     A
C1130  C1151   1.443   .     S
C1130  C1271   1.424   .     S
N1133  O1134   1.301   .     A
N1133  O1135   1.301   .     A
N1136  O1137   1.301   .     A
N1136  O1138   1.301   .     A
N1139  O1141   1.301   .     A
N1139  O1140   1.302   .     A
N1142  O1144   1.301   .     A
N1142  O1143   1.302   .     A
C1145  N1146   1.158   .     T
C1147  N1148   1.158   .     T
C1149  N1150   1.158   .     T
C1151  N1152   1.158   .     T
O1153  C1157   1.290   .     A
O1153  Zn1165  2.026   .     S
O1154  C1158   1.290   .     A
O1154  Zn1166  2.026   .     S
O1155  Zn1165  2.016   .     S
O1155  C1158   1.293   .     A
O1156  Zn1166  2.016   .     S
O1156  C1157   1.293   .     A
C1157  C1174   1.448   .     S
C1158  C1173   1.448   .     S
O1159  C1163   1.279   .     A
O1159  Zn1165  1.949   .     S
O1160  C1164   1.279   .     A
O1160  Zn1166  1.949   .     S
O1161  C1164   1.278   .     A
O1161  Zn1165  1.947   .     S
O1162  C1163   1.278   .     A
O1162  Zn1166  1.947   .     S
C1163  C1167   1.365   .     S
C1164  C1168   1.365   .     S
Zn1165 N1179   2.016   .     S
Zn1166 N1180   2.016   .     S
C1168  C303    1.165   1_556 S
C1169  C1174   1.412   .     A
C1169  N1181   1.439   .     S
C1169  C1267   1.384   1_455 S
C1170  C1173   1.412   .     A
C1170  N1184   1.439   .     S
C1170  C1220   1.384   .     S
C1171  N1187   1.438   .     S
C1171  C1173   1.414   .     A
C1171  C1217   1.384   .     S
C1172  N1190   1.438   .     S
C1172  C1174   1.414   .     A
C1172  C1266   1.384   1_455 S
C1175  N1180   1.370   .     A
C1175  C1193   1.442   .     S
C1176  N1179   1.370   .     A
C1176  C1195   1.442   .     S
C1176  C889    1.424   1_565 S
C1177  N1180   1.369   .     A
C1177  C1197   1.443   .     S
C1178  N1179   1.369   .     A
C1178  C1199   1.443   .     S
C1178  C887    1.424   1_565 S
N1181  O1182   1.301   .     A
N1181  O1183   1.301   .     A
N1184  O1185   1.301   .     A
N1184  O1186   1.301   .     A
N1187  O1189   1.301   .     A
N1187  O1188   1.302   .     A
N1190  O1192   1.301   .     A
N1190  O1191   1.302   .     A
C1193  N1194   1.158   .     T
C1195  N1196   1.158   .     T
C1197  N1198   1.158   .     T
C1199  N1200   1.158   .     T
O1201  C1205   1.290   .     A
O1201  Zn1213  2.026   .     S
O1202  C1206   1.290   .     A
O1202  Zn1214  2.026   .     S
O1203  Zn1213  2.016   .     S
O1203  C1206   1.293   .     A
O1204  Zn1214  2.016   .     S
O1204  C1205   1.293   .     A
C1205  C1222   1.448   .     S
C1206  C1221   1.448   .     S
O1207  C1211   1.279   .     A
O1207  Zn1213  1.949   .     S
O1208  C1212   1.279   .     A
O1208  Zn1214  1.949   .     S
O1209  C1212   1.278   .     A
O1209  Zn1213  1.947   .     S
O1210  C1211   1.278   .     A
O1210  Zn1214  1.947   .     S
C1211  C1215   1.365   .     S
C1212  C1216   1.365   .     S
Zn1213 N1227   2.016   .     S
Zn1214 N1228   2.016   .     S
C1216  C351    1.165   1_556 S
C1217  C1222   1.412   .     A
C1217  N1229   1.439   .     S
C1218  C1221   1.412   .     A
C1218  N1232   1.439   .     S
C1218  C1268   1.384   .     S
C1219  N1235   1.438   .     S
C1219  C1221   1.414   .     A
C1219  C1265   1.384   .     S
C1220  N1238   1.438   .     S
C1220  C1222   1.414   .     A
C1223  N1228   1.370   .     A
C1223  C1241   1.442   .     S
C1224  N1227   1.370   .     A
C1224  C1243   1.442   .     S
C1224  C937    1.424   1_565 S
C1225  N1228   1.369   .     A
C1225  C1245   1.443   .     S
C1226  N1227   1.369   .     A
C1226  C1247   1.443   .     S
C1226  C935    1.424   1_565 S
N1229  O1230   1.301   .     A
N1229  O1231   1.301   .     A
N1232  O1233   1.301   .     A
N1232  O1234   1.301   .     A
N1235  O1237   1.301   .     A
N1235  O1236   1.302   .     A
N1238  O1240   1.301   .     A
N1238  O1239   1.302   .     A
C1241  N1242   1.158   .     T
C1243  N1244   1.158   .     T
C1245  N1246   1.158   .     T
C1247  N1248   1.158   .     T
O1249  C1253   1.290   .     A
O1249  Zn1261  2.026   .     S
O1250  C1254   1.290   .     A
O1250  Zn1262  2.026   .     S
O1251  Zn1261  2.016   .     S
O1251  C1254   1.293   .     A
O1252  Zn1262  2.016   .     S
O1252  C1253   1.293   .     A
C1253  C1270   1.448   .     S
C1254  C1269   1.448   .     S
O1255  C1259   1.279   .     A
O1255  Zn1261  1.949   .     S
O1256  C1260   1.279   .     A
O1256  Zn1262  1.949   .     S
O1257  C1260   1.278   .     A
O1257  Zn1261  1.947   .     S
O1258  C1259   1.278   .     A
O1258  Zn1262  1.947   .     S
C1259  C1263   1.365   .     S
C1260  C1264   1.365   .     S
Zn1261 N1275   2.016   .     S
Zn1262 N1276   2.016   .     S
C1264  C399    1.165   1_556 S
C1265  C1270   1.412   .     A
C1265  N1277   1.439   .     S
C1266  C1269   1.412   .     A
C1266  N1280   1.439   .     S
C1266  C1172   1.384   1_655 S
C1267  N1283   1.438   .     S
C1267  C1269   1.414   .     A
C1267  C1169   1.384   1_655 S
C1268  N1286   1.438   .     S
C1268  C1270   1.414   .     A
C1271  N1276   1.370   .     A
C1271  C1289   1.442   .     S
C1272  N1275   1.370   .     A
C1272  C1291   1.442   .     S
C1272  C985    1.424   1_565 S
C1273  N1276   1.369   .     A
C1273  C1293   1.443   .     S
C1274  N1275   1.369   .     A
C1274  C1295   1.443   .     S
C1274  C983    1.424   1_565 S
N1277  O1278   1.301   .     A
N1277  O1279   1.301   .     A
N1280  O1281   1.301   .     A
N1280  O1282   1.301   .     A
N1283  O1285   1.301   .     A
N1283  O1284   1.302   .     A
N1286  O1288   1.301   .     A
N1286  O1287   1.302   .     A
C1289  N1290   1.158   .     T
C1291  N1292   1.158   .     T
C1293  N1294   1.158   .     T
C1295  N1296   1.158   .     T
