data_str_m3_o1_o16_pcu_sym.187
_audit_creation_date              2020-01-03
_audit_creation_method            'Materials Studio'
_symmetry_space_group_name_H-M    'P1'
_symmetry_Int_Tables_number       1
_symmetry_cell_setting            triclinic
loop_
_symmetry_equiv_pos_as_xyz
  x,y,z
_cell_length_a                    29.6645
_cell_length_b                    32.0603
_cell_length_c                    26.6608
_cell_angle_alpha                 91.3927
_cell_angle_beta                  70.8174
_cell_angle_gamma                 88.7672
loop_
_atom_site_label
_atom_site_type_symbol
_atom_site_fract_x
_atom_site_fract_y
_atom_site_fract_z
_atom_site_U_iso_or_equiv
_atom_site_adp_type
_atom_site_occupancy
O1     O     0.12846   0.22775   0.25001   0.00000  Uiso   1.00
O2     O     0.20490   0.22774   0.25001   0.00000  Uiso   1.00
C3     C     0.16641   0.24701   0.25041   0.00000  Uiso   1.00
O4     O     0.10947   0.16666   0.32681   0.00000  Uiso   1.00
O5     O     0.18591   0.16665   0.32681   0.00000  Uiso   1.00
C6     C     0.14041   0.16561   0.35241   0.00000  Uiso   1.00
Zn7    Zn    0.11562   0.16667   0.25000   0.00000  Uiso   1.00
Zn8    Zn    0.21771   0.16666   0.25000   0.00000  Uiso   1.00
O9     O     0.12843   0.10559   0.25000   0.00000  Uiso   1.00
O10    O     0.20488   0.10558   0.25000   0.00000  Uiso   1.00
O11    O     0.14742   0.16668   0.17319   0.00000  Uiso   1.00
O12    O     0.22387   0.16667   0.17319   0.00000  Uiso   1.00
C13    C     0.16479   0.08738   0.25788   0.00000  Uiso   1.00
C14    C     0.19279   0.16526   0.14878   0.00000  Uiso   1.00
C15    C     0.23461   0.09779   0.02705   0.00000  Uiso   1.00
C16    C     0.20752   0.15421   0.09304   0.00000  Uiso   1.00
C17    C     0.07732   0.17880   0.44351   0.00000  Uiso   1.00
C18    C     0.06590   0.18631   0.49876   0.00000  Uiso   1.00
C19    C     0.10070   0.18056   0.02275   0.00000  Uiso   1.00
C20    C     0.14621   0.16400   0.49325   0.00000  Uiso   1.00
C21    C     0.15781   0.15452   0.43845   0.00000  Uiso   1.00
C22    C     0.17980   0.15243   0.01793   0.00000  Uiso   1.00
C23    C     0.20962   0.11676   0.49697   0.00000  Uiso   1.00
C24    C     0.21610   0.10360   0.44470   0.00000  Uiso   1.00
C25    C     0.20206   0.13228   0.41352   0.00000  Uiso   1.00
C26    C     0.18495   0.17485   0.06150   0.00000  Uiso   1.00
C27    C     0.23103   0.11523   0.07641   0.00000  Uiso   1.00
C28    C     0.12475   0.16580   0.41184   0.00000  Uiso   1.00
C29    C     0.20601   0.31208   0.25912   0.00000  Uiso   1.00
C30    C     0.20372   0.02124   0.26982   0.00000  Uiso   1.00
C31    C     0.16195   0.04379   0.27141   0.00000  Uiso   1.00
C32    C     0.11898   0.02289   0.27920   0.00000  Uiso   1.00
C33    C     0.12167   0.31365   0.26849   0.00000  Uiso   1.00
H34    H     0.08956   0.29745   0.27132   0.00000  Uiso   1.00
C35    C     0.16519   0.29178   0.25675   0.00000  Uiso   1.00
C36    C     0.31899   0.13807   0.21943   0.00000  Uiso   1.00
C37    C     0.03327   0.13712   0.22080   0.00000  Uiso   1.00
N38    N     0.04760   0.16668   0.25002   0.00000  Uiso   1.00
C39    C     0.01501   0.19859   0.27497   0.00000  Uiso   1.00
C40    C     0.30079   0.19804   0.27465   0.00000  Uiso   1.00
H41    H     0.27556   0.22292   0.29436   0.00000  Uiso   1.00
N42    N     0.28573   0.16665   0.25001   0.00000  Uiso   1.00
F43    F     0.24812   0.09290   0.10919   0.00000  Uiso   1.00
N44    N     0.24133   0.04040   0.28434   0.00000  Uiso   1.00
O45    O     0.23028   0.06770   0.32361   0.00000  Uiso   1.00
O46    O     0.28482   0.02500   0.26666   0.00000  Uiso   1.00
N47    N     0.07295   0.04370   0.30227   0.00000  Uiso   1.00
O48    O     0.06754   0.07407   0.33724   0.00000  Uiso   1.00
O49    O     0.03493   0.02706   0.29745   0.00000  Uiso   1.00
N50    N     0.30873   0.11493   0.17832   0.00000  Uiso   1.00
O51    O     0.31949   0.13107   0.13173   0.00000  Uiso   1.00
O52    O     0.30270   0.07500   0.18219   0.00000  Uiso   1.00
N53    N     0.06719   0.10734   0.18746   0.00000  Uiso   1.00
O54    O     0.09101   0.11689   0.13904   0.00000  Uiso   1.00
O55    O     0.06343   0.06816   0.19905   0.00000  Uiso   1.00
N56    N     0.02822   0.23445   0.29945   0.00000  Uiso   1.00
O57    O     0.05351   0.23027   0.33049   0.00000  Uiso   1.00
O58    O     0.00650   0.27029   0.30009   0.00000  Uiso   1.00
F59    F     0.24923   0.07311   0.42069   0.00000  Uiso   1.00
F60    F     0.26042   0.06160   0.01023   0.00000  Uiso   1.00
N61    N     0.17204   0.21902   0.06982   0.00000  Uiso   1.00
O62    O     0.16663   0.23840   0.11497   0.00000  Uiso   1.00
O63    O     0.17285   0.24146   0.02950   0.00000  Uiso   1.00
N64    N     0.03994   0.18340   0.42079   0.00000  Uiso   1.00
O65    O     0.01212   0.21672   0.43237   0.00000  Uiso   1.00
O66    O     0.02613   0.15065   0.40073   0.00000  Uiso   1.00
F67    F     0.08758   0.18543   0.07645   0.00000  Uiso   1.00
N68    N     0.01792   0.19767   0.03160   0.00000  Uiso   1.00
O69    O     0.01020   0.22615   0.06936   0.00000  Uiso   1.00
O70    O     0.31556   0.17653   0.02768   0.00000  Uiso   1.00
N71    N     0.24132   0.15453   0.37965   0.00000  Uiso   1.00
O72    O     0.24220   0.19478   0.38689   0.00000  Uiso   1.00
O73    O     0.28090   0.13436   0.35327   0.00000  Uiso   1.00
F74    F     0.24760   0.29065   0.25306   0.00000  Uiso   1.00
O75    O     0.46179   0.22775   0.25001   0.00000  Uiso   1.00
O76    O     0.53823   0.22774   0.25001   0.00000  Uiso   1.00
C77    C     0.49974   0.24701   0.25041   0.00000  Uiso   1.00
O78    O     0.44280   0.16666   0.32681   0.00000  Uiso   1.00
O79    O     0.51924   0.16665   0.32681   0.00000  Uiso   1.00
C80    C     0.47375   0.16561   0.35241   0.00000  Uiso   1.00
Zn81   Zn    0.44896   0.16667   0.25000   0.00000  Uiso   1.00
Zn82   Zn    0.55104   0.16666   0.25000   0.00000  Uiso   1.00
O83    O     0.46177   0.10559   0.25000   0.00000  Uiso   1.00
O84    O     0.53821   0.10558   0.25000   0.00000  Uiso   1.00
O85    O     0.48076   0.16668   0.17319   0.00000  Uiso   1.00
O86    O     0.55720   0.16667   0.17319   0.00000  Uiso   1.00
C87    C     0.49812   0.08738   0.25788   0.00000  Uiso   1.00
C88    C     0.52612   0.16526   0.14878   0.00000  Uiso   1.00
C89    C     0.56795   0.09779   0.02705   0.00000  Uiso   1.00
C90    C     0.54086   0.15421   0.09304   0.00000  Uiso   1.00
C91    C     0.41065   0.17880   0.44351   0.00000  Uiso   1.00
C92    C     0.39923   0.18631   0.49876   0.00000  Uiso   1.00
C93    C     0.43404   0.18056   0.02275   0.00000  Uiso   1.00
C94    C     0.47954   0.16400   0.49325   0.00000  Uiso   1.00
C95    C     0.49114   0.15452   0.43845   0.00000  Uiso   1.00
C96    C     0.51313   0.15243   0.01793   0.00000  Uiso   1.00
C97    C     0.54296   0.11676   0.49697   0.00000  Uiso   1.00
C98    C     0.54943   0.10360   0.44470   0.00000  Uiso   1.00
C99    C     0.53540   0.13228   0.41352   0.00000  Uiso   1.00
C100   C     0.51828   0.17485   0.06150   0.00000  Uiso   1.00
C101   C     0.56437   0.11523   0.07641   0.00000  Uiso   1.00
C102   C     0.45808   0.16580   0.41184   0.00000  Uiso   1.00
C103   C     0.53935   0.31208   0.25912   0.00000  Uiso   1.00
C104   C     0.53706   0.02124   0.26982   0.00000  Uiso   1.00
C105   C     0.49528   0.04379   0.27141   0.00000  Uiso   1.00
C106   C     0.45232   0.02289   0.27920   0.00000  Uiso   1.00
C107   C     0.45500   0.31365   0.26849   0.00000  Uiso   1.00
H108   H     0.42290   0.29745   0.27132   0.00000  Uiso   1.00
C109   C     0.49852   0.29178   0.25675   0.00000  Uiso   1.00
C110   C     0.65232   0.13807   0.21943   0.00000  Uiso   1.00
C111   C     0.36660   0.13712   0.22080   0.00000  Uiso   1.00
N112   N     0.38093   0.16668   0.25002   0.00000  Uiso   1.00
C113   C     0.34834   0.19859   0.27497   0.00000  Uiso   1.00
C114   C     0.63412   0.19804   0.27465   0.00000  Uiso   1.00
H115   H     0.60890   0.22292   0.29436   0.00000  Uiso   1.00
N116   N     0.61906   0.16665   0.25001   0.00000  Uiso   1.00
F117   F     0.58145   0.09290   0.10919   0.00000  Uiso   1.00
N118   N     0.57467   0.04040   0.28434   0.00000  Uiso   1.00
O119   O     0.56361   0.06770   0.32361   0.00000  Uiso   1.00
O120   O     0.61815   0.02500   0.26666   0.00000  Uiso   1.00
N121   N     0.40629   0.04370   0.30227   0.00000  Uiso   1.00
O122   O     0.40087   0.07407   0.33724   0.00000  Uiso   1.00
O123   O     0.36826   0.02706   0.29745   0.00000  Uiso   1.00
N124   N     0.64206   0.11493   0.17832   0.00000  Uiso   1.00
O125   O     0.65282   0.13107   0.13173   0.00000  Uiso   1.00
O126   O     0.63603   0.07500   0.18219   0.00000  Uiso   1.00
N127   N     0.40053   0.10734   0.18746   0.00000  Uiso   1.00
O128   O     0.42435   0.11689   0.13904   0.00000  Uiso   1.00
O129   O     0.39676   0.06816   0.19905   0.00000  Uiso   1.00
N130   N     0.36155   0.23445   0.29945   0.00000  Uiso   1.00
O131   O     0.38684   0.23027   0.33049   0.00000  Uiso   1.00
O132   O     0.33984   0.27029   0.30009   0.00000  Uiso   1.00
F133   F     0.58257   0.07311   0.42069   0.00000  Uiso   1.00
F134   F     0.59376   0.06160   0.01023   0.00000  Uiso   1.00
N135   N     0.50537   0.21902   0.06982   0.00000  Uiso   1.00
O136   O     0.49997   0.23840   0.11497   0.00000  Uiso   1.00
O137   O     0.50618   0.24146   0.02950   0.00000  Uiso   1.00
N138   N     0.37327   0.18340   0.42079   0.00000  Uiso   1.00
O139   O     0.34546   0.21672   0.43237   0.00000  Uiso   1.00
O140   O     0.35946   0.15065   0.40073   0.00000  Uiso   1.00
F141   F     0.42092   0.18543   0.07645   0.00000  Uiso   1.00
N142   N     0.35126   0.19767   0.03160   0.00000  Uiso   1.00
O143   O     0.34353   0.22615   0.06936   0.00000  Uiso   1.00
O144   O     0.64889   0.17653   0.02768   0.00000  Uiso   1.00
N145   N     0.57465   0.15453   0.37965   0.00000  Uiso   1.00
O146   O     0.57554   0.19478   0.38689   0.00000  Uiso   1.00
O147   O     0.61424   0.13436   0.35327   0.00000  Uiso   1.00
F148   F     0.58094   0.29065   0.25306   0.00000  Uiso   1.00
O149   O     0.79512   0.22775   0.25001   0.00000  Uiso   1.00
O150   O     0.87157   0.22774   0.25001   0.00000  Uiso   1.00
C151   C     0.83308   0.24701   0.25041   0.00000  Uiso   1.00
O152   O     0.77613   0.16666   0.32681   0.00000  Uiso   1.00
O153   O     0.85258   0.16665   0.32681   0.00000  Uiso   1.00
C154   C     0.80708   0.16561   0.35241   0.00000  Uiso   1.00
Zn155  Zn    0.78229   0.16667   0.25000   0.00000  Uiso   1.00
Zn156  Zn    0.88438   0.16666   0.25000   0.00000  Uiso   1.00
O157   O     0.79510   0.10559   0.25000   0.00000  Uiso   1.00
O158   O     0.87154   0.10558   0.25000   0.00000  Uiso   1.00
O159   O     0.81409   0.16668   0.17319   0.00000  Uiso   1.00
O160   O     0.89053   0.16667   0.17319   0.00000  Uiso   1.00
C161   C     0.83145   0.08738   0.25788   0.00000  Uiso   1.00
C162   C     0.85946   0.16526   0.14878   0.00000  Uiso   1.00
C163   C     0.90128   0.09779   0.02705   0.00000  Uiso   1.00
C164   C     0.87419   0.15421   0.09304   0.00000  Uiso   1.00
C165   C     0.74398   0.17880   0.44351   0.00000  Uiso   1.00
C166   C     0.73256   0.18631   0.49876   0.00000  Uiso   1.00
C167   C     0.76737   0.18056   0.02275   0.00000  Uiso   1.00
C168   C     0.81288   0.16400   0.49325   0.00000  Uiso   1.00
C169   C     0.82447   0.15452   0.43845   0.00000  Uiso   1.00
C170   C     0.84646   0.15243   0.01793   0.00000  Uiso   1.00
C171   C     0.87629   0.11676   0.49697   0.00000  Uiso   1.00
C172   C     0.88276   0.10360   0.44470   0.00000  Uiso   1.00
C173   C     0.86873   0.13228   0.41352   0.00000  Uiso   1.00
C174   C     0.85161   0.17485   0.06150   0.00000  Uiso   1.00
C175   C     0.89770   0.11523   0.07641   0.00000  Uiso   1.00
C176   C     0.79141   0.16580   0.41184   0.00000  Uiso   1.00
C177   C     0.87268   0.31208   0.25912   0.00000  Uiso   1.00
C178   C     0.87039   0.02124   0.26982   0.00000  Uiso   1.00
C179   C     0.82862   0.04379   0.27141   0.00000  Uiso   1.00
C180   C     0.78565   0.02289   0.27920   0.00000  Uiso   1.00
C181   C     0.78833   0.31365   0.26849   0.00000  Uiso   1.00
H182   H     0.75623   0.29745   0.27132   0.00000  Uiso   1.00
C183   C     0.83185   0.29178   0.25675   0.00000  Uiso   1.00
C184   C     0.98566   0.13807   0.21943   0.00000  Uiso   1.00
C185   C     0.69993   0.13712   0.22080   0.00000  Uiso   1.00
N186   N     0.71426   0.16668   0.25002   0.00000  Uiso   1.00
C187   C     0.68168   0.19859   0.27497   0.00000  Uiso   1.00
C188   C     0.96745   0.19804   0.27465   0.00000  Uiso   1.00
H189   H     0.94223   0.22292   0.29436   0.00000  Uiso   1.00
N190   N     0.95239   0.16665   0.25001   0.00000  Uiso   1.00
F191   F     0.91479   0.09290   0.10919   0.00000  Uiso   1.00
N192   N     0.90800   0.04040   0.28434   0.00000  Uiso   1.00
O193   O     0.89695   0.06770   0.32361   0.00000  Uiso   1.00
O194   O     0.95149   0.02500   0.26666   0.00000  Uiso   1.00
N195   N     0.73962   0.04370   0.30227   0.00000  Uiso   1.00
O196   O     0.73421   0.07407   0.33724   0.00000  Uiso   1.00
O197   O     0.70159   0.02706   0.29745   0.00000  Uiso   1.00
N198   N     0.97539   0.11493   0.17832   0.00000  Uiso   1.00
O199   O     0.98616   0.13107   0.13173   0.00000  Uiso   1.00
O200   O     0.96937   0.07500   0.18219   0.00000  Uiso   1.00
N201   N     0.73386   0.10734   0.18746   0.00000  Uiso   1.00
O202   O     0.75768   0.11689   0.13904   0.00000  Uiso   1.00
O203   O     0.73010   0.06816   0.19905   0.00000  Uiso   1.00
N204   N     0.69488   0.23445   0.29945   0.00000  Uiso   1.00
O205   O     0.72017   0.23027   0.33049   0.00000  Uiso   1.00
O206   O     0.67317   0.27029   0.30009   0.00000  Uiso   1.00
F207   F     0.91590   0.07311   0.42069   0.00000  Uiso   1.00
F208   F     0.92709   0.06160   0.01023   0.00000  Uiso   1.00
N209   N     0.83871   0.21902   0.06982   0.00000  Uiso   1.00
O210   O     0.83330   0.23840   0.11497   0.00000  Uiso   1.00
O211   O     0.83951   0.24146   0.02950   0.00000  Uiso   1.00
N212   N     0.70660   0.18340   0.42079   0.00000  Uiso   1.00
O213   O     0.67879   0.21672   0.43237   0.00000  Uiso   1.00
O214   O     0.69279   0.15065   0.40073   0.00000  Uiso   1.00
F215   F     0.75425   0.18543   0.07645   0.00000  Uiso   1.00
N216   N     0.68459   0.19767   0.03160   0.00000  Uiso   1.00
O217   O     0.67687   0.22615   0.06936   0.00000  Uiso   1.00
O218   O     0.98222   0.17653   0.02768   0.00000  Uiso   1.00
N219   N     0.90798   0.15453   0.37965   0.00000  Uiso   1.00
O220   O     0.90887   0.19478   0.38689   0.00000  Uiso   1.00
O221   O     0.94757   0.13436   0.35327   0.00000  Uiso   1.00
F222   F     0.91427   0.29065   0.25306   0.00000  Uiso   1.00
O223   O     0.12846   0.56108   0.25001   0.00000  Uiso   1.00
O224   O     0.20490   0.56107   0.25001   0.00000  Uiso   1.00
C225   C     0.16641   0.58035   0.25041   0.00000  Uiso   1.00
O226   O     0.10947   0.50000   0.32681   0.00000  Uiso   1.00
O227   O     0.18591   0.49999   0.32681   0.00000  Uiso   1.00
C228   C     0.14041   0.49894   0.35241   0.00000  Uiso   1.00
Zn229  Zn    0.11562   0.50001   0.25000   0.00000  Uiso   1.00
Zn230  Zn    0.21771   0.49999   0.25000   0.00000  Uiso   1.00
O231   O     0.12843   0.43893   0.25000   0.00000  Uiso   1.00
O232   O     0.20488   0.43892   0.25000   0.00000  Uiso   1.00
O233   O     0.14742   0.50001   0.17319   0.00000  Uiso   1.00
O234   O     0.22387   0.50000   0.17319   0.00000  Uiso   1.00
C235   C     0.16479   0.42072   0.25788   0.00000  Uiso   1.00
C236   C     0.19279   0.49859   0.14878   0.00000  Uiso   1.00
C237   C     0.23461   0.43112   0.02705   0.00000  Uiso   1.00
C238   C     0.20752   0.48755   0.09304   0.00000  Uiso   1.00
C239   C     0.07732   0.51213   0.44351   0.00000  Uiso   1.00
C240   C     0.06590   0.51964   0.49876   0.00000  Uiso   1.00
C241   C     0.10070   0.51389   0.02275   0.00000  Uiso   1.00
C242   C     0.14621   0.49733   0.49325   0.00000  Uiso   1.00
C243   C     0.15781   0.48786   0.43845   0.00000  Uiso   1.00
C244   C     0.17980   0.48576   0.01793   0.00000  Uiso   1.00
C245   C     0.20962   0.45010   0.49697   0.00000  Uiso   1.00
C246   C     0.21610   0.43693   0.44470   0.00000  Uiso   1.00
C247   C     0.20206   0.46561   0.41352   0.00000  Uiso   1.00
C248   C     0.18495   0.50818   0.06150   0.00000  Uiso   1.00
C249   C     0.23103   0.44856   0.07641   0.00000  Uiso   1.00
C250   C     0.12475   0.49914   0.41184   0.00000  Uiso   1.00
C251   C     0.20601   0.64541   0.25912   0.00000  Uiso   1.00
C252   C     0.20372   0.35458   0.26982   0.00000  Uiso   1.00
C253   C     0.16195   0.37712   0.27141   0.00000  Uiso   1.00
C254   C     0.11898   0.35623   0.27920   0.00000  Uiso   1.00
C255   C     0.12167   0.64699   0.26849   0.00000  Uiso   1.00
H256   H     0.08956   0.63079   0.27132   0.00000  Uiso   1.00
C257   C     0.16519   0.62511   0.25675   0.00000  Uiso   1.00
C258   C     0.31899   0.47140   0.21943   0.00000  Uiso   1.00
C259   C     0.03327   0.47046   0.22080   0.00000  Uiso   1.00
N260   N     0.04760   0.50001   0.25002   0.00000  Uiso   1.00
C261   C     0.01501   0.53192   0.27497   0.00000  Uiso   1.00
C262   C     0.30079   0.53137   0.27465   0.00000  Uiso   1.00
H263   H     0.27556   0.55625   0.29436   0.00000  Uiso   1.00
N264   N     0.28573   0.49998   0.25001   0.00000  Uiso   1.00
F265   F     0.24812   0.42624   0.10919   0.00000  Uiso   1.00
N266   N     0.24133   0.37374   0.28434   0.00000  Uiso   1.00
O267   O     0.23028   0.40103   0.32361   0.00000  Uiso   1.00
O268   O     0.28482   0.35833   0.26666   0.00000  Uiso   1.00
N269   N     0.07295   0.37704   0.30227   0.00000  Uiso   1.00
O270   O     0.06754   0.40740   0.33724   0.00000  Uiso   1.00
O271   O     0.03493   0.36040   0.29745   0.00000  Uiso   1.00
N272   N     0.30873   0.44826   0.17832   0.00000  Uiso   1.00
O273   O     0.31949   0.46440   0.13173   0.00000  Uiso   1.00
O274   O     0.30270   0.40833   0.18219   0.00000  Uiso   1.00
N275   N     0.06719   0.44068   0.18746   0.00000  Uiso   1.00
O276   O     0.09101   0.45023   0.13904   0.00000  Uiso   1.00
O277   O     0.06343   0.40149   0.19905   0.00000  Uiso   1.00
N278   N     0.02822   0.56778   0.29945   0.00000  Uiso   1.00
O279   O     0.05351   0.56360   0.33049   0.00000  Uiso   1.00
O280   O     0.00650   0.60362   0.30009   0.00000  Uiso   1.00
F281   F     0.24923   0.40644   0.42069   0.00000  Uiso   1.00
F282   F     0.26042   0.39494   0.01023   0.00000  Uiso   1.00
N283   N     0.17204   0.55235   0.06982   0.00000  Uiso   1.00
O284   O     0.16663   0.57174   0.11497   0.00000  Uiso   1.00
O285   O     0.17285   0.57480   0.02950   0.00000  Uiso   1.00
N286   N     0.03994   0.51674   0.42079   0.00000  Uiso   1.00
O287   O     0.01212   0.55005   0.43237   0.00000  Uiso   1.00
O288   O     0.02613   0.48398   0.40073   0.00000  Uiso   1.00
F289   F     0.08758   0.51876   0.07645   0.00000  Uiso   1.00
N290   N     0.01792   0.53100   0.03160   0.00000  Uiso   1.00
O291   O     0.01020   0.55948   0.06936   0.00000  Uiso   1.00
O292   O     0.31556   0.50986   0.02768   0.00000  Uiso   1.00
N293   N     0.24132   0.48787   0.37965   0.00000  Uiso   1.00
O294   O     0.24220   0.52812   0.38689   0.00000  Uiso   1.00
O295   O     0.28090   0.46769   0.35327   0.00000  Uiso   1.00
F296   F     0.24760   0.62398   0.25306   0.00000  Uiso   1.00
O297   O     0.46179   0.56108   0.25001   0.00000  Uiso   1.00
O298   O     0.53823   0.56107   0.25001   0.00000  Uiso   1.00
C299   C     0.49974   0.58035   0.25041   0.00000  Uiso   1.00
O300   O     0.44280   0.50000   0.32681   0.00000  Uiso   1.00
O301   O     0.51924   0.49999   0.32681   0.00000  Uiso   1.00
C302   C     0.47375   0.49894   0.35241   0.00000  Uiso   1.00
Zn303  Zn    0.44896   0.50001   0.25000   0.00000  Uiso   1.00
Zn304  Zn    0.55104   0.49999   0.25000   0.00000  Uiso   1.00
O305   O     0.46177   0.43893   0.25000   0.00000  Uiso   1.00
O306   O     0.53821   0.43892   0.25000   0.00000  Uiso   1.00
O307   O     0.48076   0.50001   0.17319   0.00000  Uiso   1.00
O308   O     0.55720   0.50000   0.17319   0.00000  Uiso   1.00
C309   C     0.49812   0.42072   0.25788   0.00000  Uiso   1.00
C310   C     0.52612   0.49859   0.14878   0.00000  Uiso   1.00
C311   C     0.56795   0.43112   0.02705   0.00000  Uiso   1.00
C312   C     0.54086   0.48755   0.09304   0.00000  Uiso   1.00
C313   C     0.41065   0.51213   0.44351   0.00000  Uiso   1.00
C314   C     0.39923   0.51964   0.49876   0.00000  Uiso   1.00
C315   C     0.43404   0.51389   0.02275   0.00000  Uiso   1.00
C316   C     0.47954   0.49733   0.49325   0.00000  Uiso   1.00
C317   C     0.49114   0.48786   0.43845   0.00000  Uiso   1.00
C318   C     0.51313   0.48576   0.01793   0.00000  Uiso   1.00
C319   C     0.54296   0.45010   0.49697   0.00000  Uiso   1.00
C320   C     0.54943   0.43693   0.44470   0.00000  Uiso   1.00
C321   C     0.53540   0.46561   0.41352   0.00000  Uiso   1.00
C322   C     0.51828   0.50818   0.06150   0.00000  Uiso   1.00
C323   C     0.56437   0.44856   0.07641   0.00000  Uiso   1.00
C324   C     0.45808   0.49914   0.41184   0.00000  Uiso   1.00
C325   C     0.53935   0.64541   0.25912   0.00000  Uiso   1.00
C326   C     0.53706   0.35458   0.26982   0.00000  Uiso   1.00
C327   C     0.49528   0.37712   0.27141   0.00000  Uiso   1.00
C328   C     0.45232   0.35623   0.27920   0.00000  Uiso   1.00
C329   C     0.45500   0.64699   0.26849   0.00000  Uiso   1.00
H330   H     0.42290   0.63079   0.27132   0.00000  Uiso   1.00
C331   C     0.49852   0.62511   0.25675   0.00000  Uiso   1.00
C332   C     0.65232   0.47140   0.21943   0.00000  Uiso   1.00
C333   C     0.36660   0.47046   0.22080   0.00000  Uiso   1.00
N334   N     0.38093   0.50001   0.25002   0.00000  Uiso   1.00
C335   C     0.34834   0.53192   0.27497   0.00000  Uiso   1.00
C336   C     0.63412   0.53137   0.27465   0.00000  Uiso   1.00
H337   H     0.60890   0.55625   0.29436   0.00000  Uiso   1.00
N338   N     0.61906   0.49998   0.25001   0.00000  Uiso   1.00
F339   F     0.58145   0.42624   0.10919   0.00000  Uiso   1.00
N340   N     0.57467   0.37374   0.28434   0.00000  Uiso   1.00
O341   O     0.56361   0.40103   0.32361   0.00000  Uiso   1.00
O342   O     0.61815   0.35833   0.26666   0.00000  Uiso   1.00
N343   N     0.40629   0.37704   0.30227   0.00000  Uiso   1.00
O344   O     0.40087   0.40740   0.33724   0.00000  Uiso   1.00
O345   O     0.36826   0.36040   0.29745   0.00000  Uiso   1.00
N346   N     0.64206   0.44826   0.17832   0.00000  Uiso   1.00
O347   O     0.65282   0.46440   0.13173   0.00000  Uiso   1.00
O348   O     0.63603   0.40833   0.18219   0.00000  Uiso   1.00
N349   N     0.40053   0.44068   0.18746   0.00000  Uiso   1.00
O350   O     0.42435   0.45023   0.13904   0.00000  Uiso   1.00
O351   O     0.39676   0.40149   0.19905   0.00000  Uiso   1.00
N352   N     0.36155   0.56778   0.29945   0.00000  Uiso   1.00
O353   O     0.38684   0.56360   0.33049   0.00000  Uiso   1.00
O354   O     0.33984   0.60362   0.30009   0.00000  Uiso   1.00
F355   F     0.58257   0.40644   0.42069   0.00000  Uiso   1.00
F356   F     0.59376   0.39494   0.01023   0.00000  Uiso   1.00
N357   N     0.50537   0.55235   0.06982   0.00000  Uiso   1.00
O358   O     0.49997   0.57174   0.11497   0.00000  Uiso   1.00
O359   O     0.50618   0.57480   0.02950   0.00000  Uiso   1.00
N360   N     0.37327   0.51674   0.42079   0.00000  Uiso   1.00
O361   O     0.34546   0.55005   0.43237   0.00000  Uiso   1.00
O362   O     0.35946   0.48398   0.40073   0.00000  Uiso   1.00
F363   F     0.42092   0.51876   0.07645   0.00000  Uiso   1.00
N364   N     0.35126   0.53100   0.03160   0.00000  Uiso   1.00
O365   O     0.34353   0.55948   0.06936   0.00000  Uiso   1.00
O366   O     0.64889   0.50986   0.02768   0.00000  Uiso   1.00
N367   N     0.57465   0.48787   0.37965   0.00000  Uiso   1.00
O368   O     0.57554   0.52812   0.38689   0.00000  Uiso   1.00
O369   O     0.61424   0.46769   0.35327   0.00000  Uiso   1.00
F370   F     0.58094   0.62398   0.25306   0.00000  Uiso   1.00
O371   O     0.79512   0.56108   0.25001   0.00000  Uiso   1.00
O372   O     0.87157   0.56107   0.25001   0.00000  Uiso   1.00
C373   C     0.83308   0.58035   0.25041   0.00000  Uiso   1.00
O374   O     0.77613   0.50000   0.32681   0.00000  Uiso   1.00
O375   O     0.85258   0.49999   0.32681   0.00000  Uiso   1.00
C376   C     0.80708   0.49894   0.35241   0.00000  Uiso   1.00
Zn377  Zn    0.78229   0.50001   0.25000   0.00000  Uiso   1.00
Zn378  Zn    0.88438   0.49999   0.25000   0.00000  Uiso   1.00
O379   O     0.79510   0.43893   0.25000   0.00000  Uiso   1.00
O380   O     0.87154   0.43892   0.25000   0.00000  Uiso   1.00
O381   O     0.81409   0.50001   0.17319   0.00000  Uiso   1.00
O382   O     0.89053   0.50000   0.17319   0.00000  Uiso   1.00
C383   C     0.83145   0.42072   0.25788   0.00000  Uiso   1.00
C384   C     0.85946   0.49859   0.14878   0.00000  Uiso   1.00
C385   C     0.90128   0.43112   0.02705   0.00000  Uiso   1.00
C386   C     0.87419   0.48755   0.09304   0.00000  Uiso   1.00
C387   C     0.74398   0.51213   0.44351   0.00000  Uiso   1.00
C388   C     0.73256   0.51964   0.49876   0.00000  Uiso   1.00
C389   C     0.76737   0.51389   0.02275   0.00000  Uiso   1.00
C390   C     0.81288   0.49733   0.49325   0.00000  Uiso   1.00
C391   C     0.82447   0.48786   0.43845   0.00000  Uiso   1.00
C392   C     0.84646   0.48576   0.01793   0.00000  Uiso   1.00
C393   C     0.87629   0.45010   0.49697   0.00000  Uiso   1.00
C394   C     0.88276   0.43693   0.44470   0.00000  Uiso   1.00
C395   C     0.86873   0.46561   0.41352   0.00000  Uiso   1.00
C396   C     0.85161   0.50818   0.06150   0.00000  Uiso   1.00
C397   C     0.89770   0.44856   0.07641   0.00000  Uiso   1.00
C398   C     0.79141   0.49914   0.41184   0.00000  Uiso   1.00
C399   C     0.87268   0.64541   0.25912   0.00000  Uiso   1.00
C400   C     0.87039   0.35458   0.26982   0.00000  Uiso   1.00
C401   C     0.82862   0.37712   0.27141   0.00000  Uiso   1.00
C402   C     0.78565   0.35623   0.27920   0.00000  Uiso   1.00
C403   C     0.78833   0.64699   0.26849   0.00000  Uiso   1.00
H404   H     0.75623   0.63079   0.27132   0.00000  Uiso   1.00
C405   C     0.83185   0.62511   0.25675   0.00000  Uiso   1.00
C406   C     0.98566   0.47140   0.21943   0.00000  Uiso   1.00
C407   C     0.69993   0.47046   0.22080   0.00000  Uiso   1.00
N408   N     0.71426   0.50001   0.25002   0.00000  Uiso   1.00
C409   C     0.68168   0.53192   0.27497   0.00000  Uiso   1.00
C410   C     0.96745   0.53137   0.27465   0.00000  Uiso   1.00
H411   H     0.94223   0.55625   0.29436   0.00000  Uiso   1.00
N412   N     0.95239   0.49998   0.25001   0.00000  Uiso   1.00
F413   F     0.91479   0.42624   0.10919   0.00000  Uiso   1.00
N414   N     0.90800   0.37374   0.28434   0.00000  Uiso   1.00
O415   O     0.89695   0.40103   0.32361   0.00000  Uiso   1.00
O416   O     0.95149   0.35833   0.26666   0.00000  Uiso   1.00
N417   N     0.73962   0.37704   0.30227   0.00000  Uiso   1.00
O418   O     0.73421   0.40740   0.33724   0.00000  Uiso   1.00
O419   O     0.70159   0.36040   0.29745   0.00000  Uiso   1.00
N420   N     0.97539   0.44826   0.17832   0.00000  Uiso   1.00
O421   O     0.98616   0.46440   0.13173   0.00000  Uiso   1.00
O422   O     0.96937   0.40833   0.18219   0.00000  Uiso   1.00
N423   N     0.73386   0.44068   0.18746   0.00000  Uiso   1.00
O424   O     0.75768   0.45023   0.13904   0.00000  Uiso   1.00
O425   O     0.73010   0.40149   0.19905   0.00000  Uiso   1.00
N426   N     0.69488   0.56778   0.29945   0.00000  Uiso   1.00
O427   O     0.72017   0.56360   0.33049   0.00000  Uiso   1.00
O428   O     0.67317   0.60362   0.30009   0.00000  Uiso   1.00
F429   F     0.91590   0.40644   0.42069   0.00000  Uiso   1.00
F430   F     0.92709   0.39494   0.01023   0.00000  Uiso   1.00
N431   N     0.83871   0.55235   0.06982   0.00000  Uiso   1.00
O432   O     0.83330   0.57174   0.11497   0.00000  Uiso   1.00
O433   O     0.83951   0.57480   0.02950   0.00000  Uiso   1.00
N434   N     0.70660   0.51674   0.42079   0.00000  Uiso   1.00
O435   O     0.67879   0.55005   0.43237   0.00000  Uiso   1.00
O436   O     0.69279   0.48398   0.40073   0.00000  Uiso   1.00
F437   F     0.75425   0.51876   0.07645   0.00000  Uiso   1.00
N438   N     0.68459   0.53100   0.03160   0.00000  Uiso   1.00
O439   O     0.67687   0.55948   0.06936   0.00000  Uiso   1.00
O440   O     0.98222   0.50986   0.02768   0.00000  Uiso   1.00
N441   N     0.90798   0.48787   0.37965   0.00000  Uiso   1.00
O442   O     0.90887   0.52812   0.38689   0.00000  Uiso   1.00
O443   O     0.94757   0.46769   0.35327   0.00000  Uiso   1.00
F444   F     0.91427   0.62398   0.25306   0.00000  Uiso   1.00
O445   O     0.12846   0.89442   0.25001   0.00000  Uiso   1.00
O446   O     0.20490   0.89441   0.25001   0.00000  Uiso   1.00
C447   C     0.16641   0.91368   0.25041   0.00000  Uiso   1.00
O448   O     0.10947   0.83333   0.32681   0.00000  Uiso   1.00
O449   O     0.18591   0.83332   0.32681   0.00000  Uiso   1.00
C450   C     0.14041   0.83228   0.35241   0.00000  Uiso   1.00
Zn451  Zn    0.11562   0.83334   0.25000   0.00000  Uiso   1.00
Zn452  Zn    0.21771   0.83333   0.25000   0.00000  Uiso   1.00
O453   O     0.12843   0.77226   0.25000   0.00000  Uiso   1.00
O454   O     0.20488   0.77225   0.25000   0.00000  Uiso   1.00
O455   O     0.14742   0.83335   0.17319   0.00000  Uiso   1.00
O456   O     0.22387   0.83334   0.17319   0.00000  Uiso   1.00
C457   C     0.16479   0.75405   0.25788   0.00000  Uiso   1.00
C458   C     0.19279   0.83192   0.14878   0.00000  Uiso   1.00
C459   C     0.23461   0.76446   0.02705   0.00000  Uiso   1.00
C460   C     0.20752   0.82088   0.09304   0.00000  Uiso   1.00
C461   C     0.07732   0.84547   0.44351   0.00000  Uiso   1.00
C462   C     0.06590   0.85298   0.49876   0.00000  Uiso   1.00
C463   C     0.10070   0.84722   0.02275   0.00000  Uiso   1.00
C464   C     0.14621   0.83066   0.49325   0.00000  Uiso   1.00
C465   C     0.15781   0.82119   0.43845   0.00000  Uiso   1.00
C466   C     0.17980   0.81910   0.01793   0.00000  Uiso   1.00
C467   C     0.20962   0.78343   0.49697   0.00000  Uiso   1.00
C468   C     0.21610   0.77026   0.44470   0.00000  Uiso   1.00
C469   C     0.20206   0.79894   0.41352   0.00000  Uiso   1.00
C470   C     0.18495   0.84151   0.06150   0.00000  Uiso   1.00
C471   C     0.23103   0.78190   0.07641   0.00000  Uiso   1.00
C472   C     0.12475   0.83247   0.41184   0.00000  Uiso   1.00
C473   C     0.20601   0.97875   0.25912   0.00000  Uiso   1.00
C474   C     0.20372   0.68791   0.26982   0.00000  Uiso   1.00
C475   C     0.16195   0.71045   0.27141   0.00000  Uiso   1.00
C476   C     0.11898   0.68956   0.27920   0.00000  Uiso   1.00
C477   C     0.12167   0.98032   0.26849   0.00000  Uiso   1.00
H478   H     0.08956   0.96412   0.27132   0.00000  Uiso   1.00
C479   C     0.16519   0.95844   0.25675   0.00000  Uiso   1.00
C480   C     0.31899   0.80474   0.21943   0.00000  Uiso   1.00
C481   C     0.03327   0.80379   0.22080   0.00000  Uiso   1.00
N482   N     0.04760   0.83334   0.25002   0.00000  Uiso   1.00
C483   C     0.01501   0.86526   0.27497   0.00000  Uiso   1.00
C484   C     0.30079   0.86470   0.27465   0.00000  Uiso   1.00
H485   H     0.27556   0.88958   0.29436   0.00000  Uiso   1.00
N486   N     0.28573   0.83331   0.25001   0.00000  Uiso   1.00
F487   F     0.24812   0.75957   0.10919   0.00000  Uiso   1.00
N488   N     0.24133   0.70707   0.28434   0.00000  Uiso   1.00
O489   O     0.23028   0.73436   0.32361   0.00000  Uiso   1.00
O490   O     0.28482   0.69166   0.26666   0.00000  Uiso   1.00
N491   N     0.07295   0.71037   0.30227   0.00000  Uiso   1.00
O492   O     0.06754   0.74073   0.33724   0.00000  Uiso   1.00
O493   O     0.03493   0.69373   0.29745   0.00000  Uiso   1.00
N494   N     0.30873   0.78159   0.17832   0.00000  Uiso   1.00
O495   O     0.31949   0.79773   0.13173   0.00000  Uiso   1.00
O496   O     0.30270   0.74166   0.18219   0.00000  Uiso   1.00
N497   N     0.06719   0.77401   0.18746   0.00000  Uiso   1.00
O498   O     0.09101   0.78356   0.13904   0.00000  Uiso   1.00
O499   O     0.06343   0.73483   0.19905   0.00000  Uiso   1.00
N500   N     0.02822   0.90112   0.29945   0.00000  Uiso   1.00
O501   O     0.05351   0.89693   0.33049   0.00000  Uiso   1.00
O502   O     0.00650   0.93695   0.30009   0.00000  Uiso   1.00
F503   F     0.24923   0.73977   0.42069   0.00000  Uiso   1.00
F504   F     0.26042   0.72827   0.01023   0.00000  Uiso   1.00
N505   N     0.17204   0.88569   0.06982   0.00000  Uiso   1.00
O506   O     0.16663   0.90507   0.11497   0.00000  Uiso   1.00
O507   O     0.17285   0.90813   0.02950   0.00000  Uiso   1.00
N508   N     0.03994   0.85007   0.42079   0.00000  Uiso   1.00
O509   O     0.01212   0.88339   0.43237   0.00000  Uiso   1.00
O510   O     0.02613   0.81732   0.40073   0.00000  Uiso   1.00
F511   F     0.08758   0.85209   0.07645   0.00000  Uiso   1.00
N512   N     0.01792   0.86434   0.03160   0.00000  Uiso   1.00
O513   O     0.01020   0.89281   0.06936   0.00000  Uiso   1.00
O514   O     0.31556   0.84320   0.02768   0.00000  Uiso   1.00
N515   N     0.24132   0.82120   0.37965   0.00000  Uiso   1.00
O516   O     0.24220   0.86145   0.38689   0.00000  Uiso   1.00
O517   O     0.28090   0.80102   0.35327   0.00000  Uiso   1.00
F518   F     0.24760   0.95731   0.25306   0.00000  Uiso   1.00
O519   O     0.46179   0.89442   0.25001   0.00000  Uiso   1.00
O520   O     0.53823   0.89441   0.25001   0.00000  Uiso   1.00
C521   C     0.49974   0.91368   0.25041   0.00000  Uiso   1.00
O522   O     0.44280   0.83333   0.32681   0.00000  Uiso   1.00
O523   O     0.51924   0.83332   0.32681   0.00000  Uiso   1.00
C524   C     0.47375   0.83228   0.35241   0.00000  Uiso   1.00
Zn525  Zn    0.44896   0.83334   0.25000   0.00000  Uiso   1.00
Zn526  Zn    0.55104   0.83333   0.25000   0.00000  Uiso   1.00
O527   O     0.46177   0.77226   0.25000   0.00000  Uiso   1.00
O528   O     0.53821   0.77225   0.25000   0.00000  Uiso   1.00
O529   O     0.48076   0.83335   0.17319   0.00000  Uiso   1.00
O530   O     0.55720   0.83334   0.17319   0.00000  Uiso   1.00
C531   C     0.49812   0.75405   0.25788   0.00000  Uiso   1.00
C532   C     0.52612   0.83192   0.14878   0.00000  Uiso   1.00
C533   C     0.56795   0.76446   0.02705   0.00000  Uiso   1.00
C534   C     0.54086   0.82088   0.09304   0.00000  Uiso   1.00
C535   C     0.41065   0.84547   0.44351   0.00000  Uiso   1.00
C536   C     0.39923   0.85298   0.49876   0.00000  Uiso   1.00
C537   C     0.43404   0.84722   0.02275   0.00000  Uiso   1.00
C538   C     0.47954   0.83066   0.49325   0.00000  Uiso   1.00
C539   C     0.49114   0.82119   0.43845   0.00000  Uiso   1.00
C540   C     0.51313   0.81910   0.01793   0.00000  Uiso   1.00
C541   C     0.54296   0.78343   0.49697   0.00000  Uiso   1.00
C542   C     0.54943   0.77026   0.44470   0.00000  Uiso   1.00
C543   C     0.53540   0.79894   0.41352   0.00000  Uiso   1.00
C544   C     0.51828   0.84151   0.06150   0.00000  Uiso   1.00
C545   C     0.56437   0.78190   0.07641   0.00000  Uiso   1.00
C546   C     0.45808   0.83247   0.41184   0.00000  Uiso   1.00
C547   C     0.53935   0.97875   0.25912   0.00000  Uiso   1.00
C548   C     0.53706   0.68791   0.26982   0.00000  Uiso   1.00
C549   C     0.49528   0.71045   0.27141   0.00000  Uiso   1.00
C550   C     0.45232   0.68956   0.27920   0.00000  Uiso   1.00
C551   C     0.45500   0.98032   0.26849   0.00000  Uiso   1.00
H552   H     0.42290   0.96412   0.27132   0.00000  Uiso   1.00
C553   C     0.49852   0.95844   0.25675   0.00000  Uiso   1.00
C554   C     0.65232   0.80474   0.21943   0.00000  Uiso   1.00
C555   C     0.36660   0.80379   0.22080   0.00000  Uiso   1.00
N556   N     0.38093   0.83334   0.25002   0.00000  Uiso   1.00
C557   C     0.34834   0.86526   0.27497   0.00000  Uiso   1.00
C558   C     0.63412   0.86470   0.27465   0.00000  Uiso   1.00
H559   H     0.60890   0.88958   0.29436   0.00000  Uiso   1.00
N560   N     0.61906   0.83331   0.25001   0.00000  Uiso   1.00
F561   F     0.58145   0.75957   0.10919   0.00000  Uiso   1.00
N562   N     0.57467   0.70707   0.28434   0.00000  Uiso   1.00
O563   O     0.56361   0.73436   0.32361   0.00000  Uiso   1.00
O564   O     0.61815   0.69166   0.26666   0.00000  Uiso   1.00
N565   N     0.40629   0.71037   0.30227   0.00000  Uiso   1.00
O566   O     0.40087   0.74073   0.33724   0.00000  Uiso   1.00
O567   O     0.36826   0.69373   0.29745   0.00000  Uiso   1.00
N568   N     0.64206   0.78159   0.17832   0.00000  Uiso   1.00
O569   O     0.65282   0.79773   0.13173   0.00000  Uiso   1.00
O570   O     0.63603   0.74166   0.18219   0.00000  Uiso   1.00
N571   N     0.40053   0.77401   0.18746   0.00000  Uiso   1.00
O572   O     0.42435   0.78356   0.13904   0.00000  Uiso   1.00
O573   O     0.39676   0.73483   0.19905   0.00000  Uiso   1.00
N574   N     0.36155   0.90112   0.29945   0.00000  Uiso   1.00
O575   O     0.38684   0.89693   0.33049   0.00000  Uiso   1.00
O576   O     0.33984   0.93695   0.30009   0.00000  Uiso   1.00
F577   F     0.58257   0.73977   0.42069   0.00000  Uiso   1.00
F578   F     0.59376   0.72827   0.01023   0.00000  Uiso   1.00
N579   N     0.50537   0.88569   0.06982   0.00000  Uiso   1.00
O580   O     0.49997   0.90507   0.11497   0.00000  Uiso   1.00
O581   O     0.50618   0.90813   0.02950   0.00000  Uiso   1.00
N582   N     0.37327   0.85007   0.42079   0.00000  Uiso   1.00
O583   O     0.34546   0.88339   0.43237   0.00000  Uiso   1.00
O584   O     0.35946   0.81732   0.40073   0.00000  Uiso   1.00
F585   F     0.42092   0.85209   0.07645   0.00000  Uiso   1.00
N586   N     0.35126   0.86434   0.03160   0.00000  Uiso   1.00
O587   O     0.34353   0.89281   0.06936   0.00000  Uiso   1.00
O588   O     0.64889   0.84320   0.02768   0.00000  Uiso   1.00
N589   N     0.57465   0.82120   0.37965   0.00000  Uiso   1.00
O590   O     0.57554   0.86145   0.38689   0.00000  Uiso   1.00
O591   O     0.61424   0.80102   0.35327   0.00000  Uiso   1.00
F592   F     0.58094   0.95731   0.25306   0.00000  Uiso   1.00
O593   O     0.79512   0.89442   0.25001   0.00000  Uiso   1.00
O594   O     0.87157   0.89441   0.25001   0.00000  Uiso   1.00
C595   C     0.83308   0.91368   0.25041   0.00000  Uiso   1.00
O596   O     0.77613   0.83333   0.32681   0.00000  Uiso   1.00
O597   O     0.85258   0.83332   0.32681   0.00000  Uiso   1.00
C598   C     0.80708   0.83228   0.35241   0.00000  Uiso   1.00
Zn599  Zn    0.78229   0.83334   0.25000   0.00000  Uiso   1.00
Zn600  Zn    0.88438   0.83333   0.25000   0.00000  Uiso   1.00
O601   O     0.79510   0.77226   0.25000   0.00000  Uiso   1.00
O602   O     0.87154   0.77225   0.25000   0.00000  Uiso   1.00
O603   O     0.81409   0.83335   0.17319   0.00000  Uiso   1.00
O604   O     0.89053   0.83334   0.17319   0.00000  Uiso   1.00
C605   C     0.83145   0.75405   0.25788   0.00000  Uiso   1.00
C606   C     0.85946   0.83192   0.14878   0.00000  Uiso   1.00
C607   C     0.90128   0.76446   0.02705   0.00000  Uiso   1.00
C608   C     0.87419   0.82088   0.09304   0.00000  Uiso   1.00
C609   C     0.74398   0.84547   0.44351   0.00000  Uiso   1.00
C610   C     0.73256   0.85298   0.49876   0.00000  Uiso   1.00
C611   C     0.76737   0.84722   0.02275   0.00000  Uiso   1.00
C612   C     0.81288   0.83066   0.49325   0.00000  Uiso   1.00
C613   C     0.82447   0.82119   0.43845   0.00000  Uiso   1.00
C614   C     0.84646   0.81910   0.01793   0.00000  Uiso   1.00
C615   C     0.87629   0.78343   0.49697   0.00000  Uiso   1.00
C616   C     0.88276   0.77026   0.44470   0.00000  Uiso   1.00
C617   C     0.86873   0.79894   0.41352   0.00000  Uiso   1.00
C618   C     0.85161   0.84151   0.06150   0.00000  Uiso   1.00
C619   C     0.89770   0.78190   0.07641   0.00000  Uiso   1.00
C620   C     0.79141   0.83247   0.41184   0.00000  Uiso   1.00
C621   C     0.87268   0.97875   0.25912   0.00000  Uiso   1.00
C622   C     0.87039   0.68791   0.26982   0.00000  Uiso   1.00
C623   C     0.82862   0.71045   0.27141   0.00000  Uiso   1.00
C624   C     0.78565   0.68956   0.27920   0.00000  Uiso   1.00
C625   C     0.78833   0.98032   0.26849   0.00000  Uiso   1.00
H626   H     0.75623   0.96412   0.27132   0.00000  Uiso   1.00
C627   C     0.83185   0.95844   0.25675   0.00000  Uiso   1.00
C628   C     0.98566   0.80474   0.21943   0.00000  Uiso   1.00
C629   C     0.69993   0.80379   0.22080   0.00000  Uiso   1.00
N630   N     0.71426   0.83334   0.25002   0.00000  Uiso   1.00
C631   C     0.68168   0.86526   0.27497   0.00000  Uiso   1.00
C632   C     0.96745   0.86470   0.27465   0.00000  Uiso   1.00
H633   H     0.94223   0.88958   0.29436   0.00000  Uiso   1.00
N634   N     0.95239   0.83331   0.25001   0.00000  Uiso   1.00
F635   F     0.91479   0.75957   0.10919   0.00000  Uiso   1.00
N636   N     0.90800   0.70707   0.28434   0.00000  Uiso   1.00
O637   O     0.89695   0.73436   0.32361   0.00000  Uiso   1.00
O638   O     0.95149   0.69166   0.26666   0.00000  Uiso   1.00
N639   N     0.73962   0.71037   0.30227   0.00000  Uiso   1.00
O640   O     0.73421   0.74073   0.33724   0.00000  Uiso   1.00
O641   O     0.70159   0.69373   0.29745   0.00000  Uiso   1.00
N642   N     0.97539   0.78159   0.17832   0.00000  Uiso   1.00
O643   O     0.98616   0.79773   0.13173   0.00000  Uiso   1.00
O644   O     0.96937   0.74166   0.18219   0.00000  Uiso   1.00
N645   N     0.73386   0.77401   0.18746   0.00000  Uiso   1.00
O646   O     0.75768   0.78356   0.13904   0.00000  Uiso   1.00
O647   O     0.73010   0.73483   0.19905   0.00000  Uiso   1.00
N648   N     0.69488   0.90112   0.29945   0.00000  Uiso   1.00
O649   O     0.72017   0.89693   0.33049   0.00000  Uiso   1.00
O650   O     0.67317   0.93695   0.30009   0.00000  Uiso   1.00
F651   F     0.91590   0.73977   0.42069   0.00000  Uiso   1.00
F652   F     0.92709   0.72827   0.01023   0.00000  Uiso   1.00
N653   N     0.83871   0.88569   0.06982   0.00000  Uiso   1.00
O654   O     0.83330   0.90507   0.11497   0.00000  Uiso   1.00
O655   O     0.83951   0.90813   0.02950   0.00000  Uiso   1.00
N656   N     0.70660   0.85007   0.42079   0.00000  Uiso   1.00
O657   O     0.67879   0.88339   0.43237   0.00000  Uiso   1.00
O658   O     0.69279   0.81732   0.40073   0.00000  Uiso   1.00
F659   F     0.75425   0.85209   0.07645   0.00000  Uiso   1.00
N660   N     0.68459   0.86434   0.03160   0.00000  Uiso   1.00
O661   O     0.67687   0.89281   0.06936   0.00000  Uiso   1.00
O662   O     0.98222   0.84320   0.02768   0.00000  Uiso   1.00
N663   N     0.90798   0.82120   0.37965   0.00000  Uiso   1.00
O664   O     0.90887   0.86145   0.38689   0.00000  Uiso   1.00
O665   O     0.94757   0.80102   0.35327   0.00000  Uiso   1.00
F666   F     0.91427   0.95731   0.25306   0.00000  Uiso   1.00
O667   O     0.12846   0.22775   0.75001   0.00000  Uiso   1.00
O668   O     0.20490   0.22774   0.75001   0.00000  Uiso   1.00
C669   C     0.16641   0.24701   0.75041   0.00000  Uiso   1.00
O670   O     0.10947   0.16666   0.82681   0.00000  Uiso   1.00
O671   O     0.18591   0.16665   0.82681   0.00000  Uiso   1.00
C672   C     0.14041   0.16561   0.85241   0.00000  Uiso   1.00
Zn673  Zn    0.11562   0.16667   0.75000   0.00000  Uiso   1.00
Zn674  Zn    0.21771   0.16666   0.75000   0.00000  Uiso   1.00
O675   O     0.12843   0.10559   0.75000   0.00000  Uiso   1.00
O676   O     0.20488   0.10558   0.75000   0.00000  Uiso   1.00
O677   O     0.14742   0.16668   0.67319   0.00000  Uiso   1.00
O678   O     0.22387   0.16667   0.67319   0.00000  Uiso   1.00
C679   C     0.16479   0.08738   0.75788   0.00000  Uiso   1.00
C680   C     0.19279   0.16526   0.64878   0.00000  Uiso   1.00
C681   C     0.23461   0.09779   0.52705   0.00000  Uiso   1.00
C682   C     0.20752   0.15421   0.59304   0.00000  Uiso   1.00
C683   C     0.07732   0.17880   0.94351   0.00000  Uiso   1.00
C684   C     0.06590   0.18631   0.99876   0.00000  Uiso   1.00
C685   C     0.10070   0.18056   0.52275   0.00000  Uiso   1.00
C686   C     0.14621   0.16400   0.99325   0.00000  Uiso   1.00
C687   C     0.15781   0.15452   0.93845   0.00000  Uiso   1.00
C688   C     0.17980   0.15243   0.51793   0.00000  Uiso   1.00
C689   C     0.20962   0.11676   0.99697   0.00000  Uiso   1.00
C690   C     0.21610   0.10360   0.94470   0.00000  Uiso   1.00
C691   C     0.20206   0.13228   0.91352   0.00000  Uiso   1.00
C692   C     0.18495   0.17485   0.56150   0.00000  Uiso   1.00
C693   C     0.23103   0.11523   0.57641   0.00000  Uiso   1.00
C694   C     0.12475   0.16580   0.91184   0.00000  Uiso   1.00
C695   C     0.20601   0.31208   0.75912   0.00000  Uiso   1.00
C696   C     0.20372   0.02124   0.76982   0.00000  Uiso   1.00
C697   C     0.16195   0.04379   0.77141   0.00000  Uiso   1.00
C698   C     0.11898   0.02289   0.77920   0.00000  Uiso   1.00
C699   C     0.12167   0.31365   0.76849   0.00000  Uiso   1.00
H700   H     0.08956   0.29745   0.77132   0.00000  Uiso   1.00
C701   C     0.16519   0.29178   0.75675   0.00000  Uiso   1.00
C702   C     0.31899   0.13807   0.71943   0.00000  Uiso   1.00
C703   C     0.03327   0.13712   0.72080   0.00000  Uiso   1.00
N704   N     0.04760   0.16668   0.75002   0.00000  Uiso   1.00
C705   C     0.01501   0.19859   0.77497   0.00000  Uiso   1.00
C706   C     0.30079   0.19804   0.77465   0.00000  Uiso   1.00
H707   H     0.27556   0.22292   0.79436   0.00000  Uiso   1.00
N708   N     0.28573   0.16665   0.75001   0.00000  Uiso   1.00
F709   F     0.24812   0.09290   0.60919   0.00000  Uiso   1.00
N710   N     0.24133   0.04040   0.78434   0.00000  Uiso   1.00
O711   O     0.23028   0.06770   0.82361   0.00000  Uiso   1.00
O712   O     0.28482   0.02500   0.76666   0.00000  Uiso   1.00
N713   N     0.07295   0.04370   0.80227   0.00000  Uiso   1.00
O714   O     0.06754   0.07407   0.83724   0.00000  Uiso   1.00
O715   O     0.03493   0.02706   0.79745   0.00000  Uiso   1.00
N716   N     0.30873   0.11493   0.67832   0.00000  Uiso   1.00
O717   O     0.31949   0.13107   0.63173   0.00000  Uiso   1.00
O718   O     0.30270   0.07500   0.68219   0.00000  Uiso   1.00
N719   N     0.06719   0.10734   0.68746   0.00000  Uiso   1.00
O720   O     0.09101   0.11689   0.63904   0.00000  Uiso   1.00
O721   O     0.06343   0.06816   0.69905   0.00000  Uiso   1.00
N722   N     0.02822   0.23445   0.79945   0.00000  Uiso   1.00
O723   O     0.05351   0.23027   0.83049   0.00000  Uiso   1.00
O724   O     0.00650   0.27029   0.80009   0.00000  Uiso   1.00
F725   F     0.24923   0.07311   0.92069   0.00000  Uiso   1.00
F726   F     0.26042   0.06160   0.51023   0.00000  Uiso   1.00
N727   N     0.17204   0.21902   0.56982   0.00000  Uiso   1.00
O728   O     0.16663   0.23840   0.61497   0.00000  Uiso   1.00
O729   O     0.17285   0.24146   0.52950   0.00000  Uiso   1.00
N730   N     0.03994   0.18340   0.92079   0.00000  Uiso   1.00
O731   O     0.01212   0.21672   0.93237   0.00000  Uiso   1.00
O732   O     0.02613   0.15065   0.90073   0.00000  Uiso   1.00
F733   F     0.08758   0.18543   0.57645   0.00000  Uiso   1.00
N734   N     0.01792   0.19767   0.53160   0.00000  Uiso   1.00
O735   O     0.01020   0.22615   0.56936   0.00000  Uiso   1.00
O736   O     0.31556   0.17653   0.52768   0.00000  Uiso   1.00
N737   N     0.24132   0.15453   0.87965   0.00000  Uiso   1.00
O738   O     0.24220   0.19478   0.88689   0.00000  Uiso   1.00
O739   O     0.28090   0.13436   0.85327   0.00000  Uiso   1.00
F740   F     0.24760   0.29065   0.75306   0.00000  Uiso   1.00
O741   O     0.46179   0.22775   0.75001   0.00000  Uiso   1.00
O742   O     0.53823   0.22774   0.75001   0.00000  Uiso   1.00
C743   C     0.49974   0.24701   0.75041   0.00000  Uiso   1.00
O744   O     0.44280   0.16666   0.82681   0.00000  Uiso   1.00
O745   O     0.51924   0.16665   0.82681   0.00000  Uiso   1.00
C746   C     0.47375   0.16561   0.85241   0.00000  Uiso   1.00
Zn747  Zn    0.44896   0.16667   0.75000   0.00000  Uiso   1.00
Zn748  Zn    0.55104   0.16666   0.75000   0.00000  Uiso   1.00
O749   O     0.46177   0.10559   0.75000   0.00000  Uiso   1.00
O750   O     0.53821   0.10558   0.75000   0.00000  Uiso   1.00
O751   O     0.48076   0.16668   0.67319   0.00000  Uiso   1.00
O752   O     0.55720   0.16667   0.67319   0.00000  Uiso   1.00
C753   C     0.49812   0.08738   0.75788   0.00000  Uiso   1.00
C754   C     0.52612   0.16526   0.64878   0.00000  Uiso   1.00
C755   C     0.56795   0.09779   0.52705   0.00000  Uiso   1.00
C756   C     0.54086   0.15421   0.59304   0.00000  Uiso   1.00
C757   C     0.41065   0.17880   0.94351   0.00000  Uiso   1.00
C758   C     0.39923   0.18631   0.99876   0.00000  Uiso   1.00
C759   C     0.43404   0.18056   0.52275   0.00000  Uiso   1.00
C760   C     0.47954   0.16400   0.99325   0.00000  Uiso   1.00
C761   C     0.49114   0.15452   0.93845   0.00000  Uiso   1.00
C762   C     0.51313   0.15243   0.51793   0.00000  Uiso   1.00
C763   C     0.54296   0.11676   0.99697   0.00000  Uiso   1.00
C764   C     0.54943   0.10360   0.94470   0.00000  Uiso   1.00
C765   C     0.53540   0.13228   0.91352   0.00000  Uiso   1.00
C766   C     0.51828   0.17485   0.56150   0.00000  Uiso   1.00
C767   C     0.56437   0.11523   0.57641   0.00000  Uiso   1.00
C768   C     0.45808   0.16580   0.91184   0.00000  Uiso   1.00
C769   C     0.53935   0.31208   0.75912   0.00000  Uiso   1.00
C770   C     0.53706   0.02124   0.76982   0.00000  Uiso   1.00
C771   C     0.49528   0.04379   0.77141   0.00000  Uiso   1.00
C772   C     0.45232   0.02289   0.77920   0.00000  Uiso   1.00
C773   C     0.45500   0.31365   0.76849   0.00000  Uiso   1.00
H774   H     0.42290   0.29745   0.77132   0.00000  Uiso   1.00
C775   C     0.49852   0.29178   0.75675   0.00000  Uiso   1.00
C776   C     0.65232   0.13807   0.71943   0.00000  Uiso   1.00
C777   C     0.36660   0.13712   0.72080   0.00000  Uiso   1.00
N778   N     0.38093   0.16668   0.75002   0.00000  Uiso   1.00
C779   C     0.34834   0.19859   0.77497   0.00000  Uiso   1.00
C780   C     0.63412   0.19804   0.77465   0.00000  Uiso   1.00
H781   H     0.60890   0.22292   0.79436   0.00000  Uiso   1.00
N782   N     0.61906   0.16665   0.75001   0.00000  Uiso   1.00
F783   F     0.58145   0.09290   0.60919   0.00000  Uiso   1.00
N784   N     0.57467   0.04040   0.78434   0.00000  Uiso   1.00
O785   O     0.56361   0.06770   0.82361   0.00000  Uiso   1.00
O786   O     0.61815   0.02500   0.76666   0.00000  Uiso   1.00
N787   N     0.40629   0.04370   0.80227   0.00000  Uiso   1.00
O788   O     0.40087   0.07407   0.83724   0.00000  Uiso   1.00
O789   O     0.36826   0.02706   0.79745   0.00000  Uiso   1.00
N790   N     0.64206   0.11493   0.67832   0.00000  Uiso   1.00
O791   O     0.65282   0.13107   0.63173   0.00000  Uiso   1.00
O792   O     0.63603   0.07500   0.68219   0.00000  Uiso   1.00
N793   N     0.40053   0.10734   0.68746   0.00000  Uiso   1.00
O794   O     0.42435   0.11689   0.63904   0.00000  Uiso   1.00
O795   O     0.39676   0.06816   0.69905   0.00000  Uiso   1.00
N796   N     0.36155   0.23445   0.79945   0.00000  Uiso   1.00
O797   O     0.38684   0.23027   0.83049   0.00000  Uiso   1.00
O798   O     0.33984   0.27029   0.80009   0.00000  Uiso   1.00
F799   F     0.58257   0.07311   0.92069   0.00000  Uiso   1.00
F800   F     0.59376   0.06160   0.51023   0.00000  Uiso   1.00
N801   N     0.50537   0.21902   0.56982   0.00000  Uiso   1.00
O802   O     0.49997   0.23840   0.61497   0.00000  Uiso   1.00
O803   O     0.50618   0.24146   0.52950   0.00000  Uiso   1.00
N804   N     0.37327   0.18340   0.92079   0.00000  Uiso   1.00
O805   O     0.34546   0.21672   0.93237   0.00000  Uiso   1.00
O806   O     0.35946   0.15065   0.90073   0.00000  Uiso   1.00
F807   F     0.42092   0.18543   0.57645   0.00000  Uiso   1.00
N808   N     0.35126   0.19767   0.53160   0.00000  Uiso   1.00
O809   O     0.34353   0.22615   0.56936   0.00000  Uiso   1.00
O810   O     0.64889   0.17653   0.52768   0.00000  Uiso   1.00
N811   N     0.57465   0.15453   0.87965   0.00000  Uiso   1.00
O812   O     0.57554   0.19478   0.88689   0.00000  Uiso   1.00
O813   O     0.61424   0.13436   0.85327   0.00000  Uiso   1.00
F814   F     0.58094   0.29065   0.75306   0.00000  Uiso   1.00
O815   O     0.79512   0.22775   0.75001   0.00000  Uiso   1.00
O816   O     0.87157   0.22774   0.75001   0.00000  Uiso   1.00
C817   C     0.83308   0.24701   0.75041   0.00000  Uiso   1.00
O818   O     0.77613   0.16666   0.82681   0.00000  Uiso   1.00
O819   O     0.85258   0.16665   0.82681   0.00000  Uiso   1.00
C820   C     0.80708   0.16561   0.85241   0.00000  Uiso   1.00
Zn821  Zn    0.78229   0.16667   0.75000   0.00000  Uiso   1.00
Zn822  Zn    0.88438   0.16666   0.75000   0.00000  Uiso   1.00
O823   O     0.79510   0.10559   0.75000   0.00000  Uiso   1.00
O824   O     0.87154   0.10558   0.75000   0.00000  Uiso   1.00
O825   O     0.81409   0.16668   0.67319   0.00000  Uiso   1.00
O826   O     0.89053   0.16667   0.67319   0.00000  Uiso   1.00
C827   C     0.83145   0.08738   0.75788   0.00000  Uiso   1.00
C828   C     0.85946   0.16526   0.64878   0.00000  Uiso   1.00
C829   C     0.90128   0.09779   0.52705   0.00000  Uiso   1.00
C830   C     0.87419   0.15421   0.59304   0.00000  Uiso   1.00
C831   C     0.74398   0.17880   0.94351   0.00000  Uiso   1.00
C832   C     0.73256   0.18631   0.99876   0.00000  Uiso   1.00
C833   C     0.76737   0.18056   0.52275   0.00000  Uiso   1.00
C834   C     0.81288   0.16400   0.99325   0.00000  Uiso   1.00
C835   C     0.82447   0.15452   0.93845   0.00000  Uiso   1.00
C836   C     0.84646   0.15243   0.51793   0.00000  Uiso   1.00
C837   C     0.87629   0.11676   0.99697   0.00000  Uiso   1.00
C838   C     0.88276   0.10360   0.94470   0.00000  Uiso   1.00
C839   C     0.86873   0.13228   0.91352   0.00000  Uiso   1.00
C840   C     0.85161   0.17485   0.56150   0.00000  Uiso   1.00
C841   C     0.89770   0.11523   0.57641   0.00000  Uiso   1.00
C842   C     0.79141   0.16580   0.91184   0.00000  Uiso   1.00
C843   C     0.87268   0.31208   0.75912   0.00000  Uiso   1.00
C844   C     0.87039   0.02124   0.76982   0.00000  Uiso   1.00
C845   C     0.82862   0.04379   0.77141   0.00000  Uiso   1.00
C846   C     0.78565   0.02289   0.77920   0.00000  Uiso   1.00
C847   C     0.78833   0.31365   0.76849   0.00000  Uiso   1.00
H848   H     0.75623   0.29745   0.77132   0.00000  Uiso   1.00
C849   C     0.83185   0.29178   0.75675   0.00000  Uiso   1.00
C850   C     0.98566   0.13807   0.71943   0.00000  Uiso   1.00
C851   C     0.69993   0.13712   0.72080   0.00000  Uiso   1.00
N852   N     0.71426   0.16668   0.75002   0.00000  Uiso   1.00
C853   C     0.68168   0.19859   0.77497   0.00000  Uiso   1.00
C854   C     0.96745   0.19804   0.77465   0.00000  Uiso   1.00
H855   H     0.94223   0.22292   0.79436   0.00000  Uiso   1.00
N856   N     0.95239   0.16665   0.75001   0.00000  Uiso   1.00
F857   F     0.91479   0.09290   0.60919   0.00000  Uiso   1.00
N858   N     0.90800   0.04040   0.78434   0.00000  Uiso   1.00
O859   O     0.89695   0.06770   0.82361   0.00000  Uiso   1.00
O860   O     0.95149   0.02500   0.76666   0.00000  Uiso   1.00
N861   N     0.73962   0.04370   0.80227   0.00000  Uiso   1.00
O862   O     0.73421   0.07407   0.83724   0.00000  Uiso   1.00
O863   O     0.70159   0.02706   0.79745   0.00000  Uiso   1.00
N864   N     0.97539   0.11493   0.67832   0.00000  Uiso   1.00
O865   O     0.98616   0.13107   0.63173   0.00000  Uiso   1.00
O866   O     0.96937   0.07500   0.68219   0.00000  Uiso   1.00
N867   N     0.73386   0.10734   0.68746   0.00000  Uiso   1.00
O868   O     0.75768   0.11689   0.63904   0.00000  Uiso   1.00
O869   O     0.73010   0.06816   0.69905   0.00000  Uiso   1.00
N870   N     0.69488   0.23445   0.79945   0.00000  Uiso   1.00
O871   O     0.72017   0.23027   0.83049   0.00000  Uiso   1.00
O872   O     0.67317   0.27029   0.80009   0.00000  Uiso   1.00
F873   F     0.91590   0.07311   0.92069   0.00000  Uiso   1.00
F874   F     0.92709   0.06160   0.51023   0.00000  Uiso   1.00
N875   N     0.83871   0.21902   0.56982   0.00000  Uiso   1.00
O876   O     0.83330   0.23840   0.61497   0.00000  Uiso   1.00
O877   O     0.83951   0.24146   0.52950   0.00000  Uiso   1.00
N878   N     0.70660   0.18340   0.92079   0.00000  Uiso   1.00
O879   O     0.67879   0.21672   0.93237   0.00000  Uiso   1.00
O880   O     0.69279   0.15065   0.90073   0.00000  Uiso   1.00
F881   F     0.75425   0.18543   0.57645   0.00000  Uiso   1.00
N882   N     0.68459   0.19767   0.53160   0.00000  Uiso   1.00
O883   O     0.67687   0.22615   0.56936   0.00000  Uiso   1.00
O884   O     0.98222   0.17653   0.52768   0.00000  Uiso   1.00
N885   N     0.90798   0.15453   0.87965   0.00000  Uiso   1.00
O886   O     0.90887   0.19478   0.88689   0.00000  Uiso   1.00
O887   O     0.94757   0.13436   0.85327   0.00000  Uiso   1.00
F888   F     0.91427   0.29065   0.75306   0.00000  Uiso   1.00
O889   O     0.12846   0.56108   0.75001   0.00000  Uiso   1.00
O890   O     0.20490   0.56107   0.75001   0.00000  Uiso   1.00
C891   C     0.16641   0.58035   0.75041   0.00000  Uiso   1.00
O892   O     0.10947   0.50000   0.82681   0.00000  Uiso   1.00
O893   O     0.18591   0.49999   0.82681   0.00000  Uiso   1.00
C894   C     0.14041   0.49894   0.85241   0.00000  Uiso   1.00
Zn895  Zn    0.11562   0.50001   0.75000   0.00000  Uiso   1.00
Zn896  Zn    0.21771   0.49999   0.75000   0.00000  Uiso   1.00
O897   O     0.12843   0.43893   0.75000   0.00000  Uiso   1.00
O898   O     0.20488   0.43892   0.75000   0.00000  Uiso   1.00
O899   O     0.14742   0.50001   0.67319   0.00000  Uiso   1.00
O900   O     0.22387   0.50000   0.67319   0.00000  Uiso   1.00
C901   C     0.16479   0.42072   0.75788   0.00000  Uiso   1.00
C902   C     0.19279   0.49859   0.64878   0.00000  Uiso   1.00
C903   C     0.23461   0.43112   0.52705   0.00000  Uiso   1.00
C904   C     0.20752   0.48755   0.59304   0.00000  Uiso   1.00
C905   C     0.07732   0.51213   0.94351   0.00000  Uiso   1.00
C906   C     0.06590   0.51964   0.99876   0.00000  Uiso   1.00
C907   C     0.10070   0.51389   0.52275   0.00000  Uiso   1.00
C908   C     0.14621   0.49733   0.99325   0.00000  Uiso   1.00
C909   C     0.15781   0.48786   0.93845   0.00000  Uiso   1.00
C910   C     0.17980   0.48576   0.51793   0.00000  Uiso   1.00
C911   C     0.20962   0.45010   0.99697   0.00000  Uiso   1.00
C912   C     0.21610   0.43693   0.94470   0.00000  Uiso   1.00
C913   C     0.20206   0.46561   0.91352   0.00000  Uiso   1.00
C914   C     0.18495   0.50818   0.56150   0.00000  Uiso   1.00
C915   C     0.23103   0.44856   0.57641   0.00000  Uiso   1.00
C916   C     0.12475   0.49914   0.91184   0.00000  Uiso   1.00
C917   C     0.20601   0.64541   0.75912   0.00000  Uiso   1.00
C918   C     0.20372   0.35458   0.76982   0.00000  Uiso   1.00
C919   C     0.16195   0.37712   0.77141   0.00000  Uiso   1.00
C920   C     0.11898   0.35623   0.77920   0.00000  Uiso   1.00
C921   C     0.12167   0.64699   0.76849   0.00000  Uiso   1.00
H922   H     0.08956   0.63079   0.77132   0.00000  Uiso   1.00
C923   C     0.16519   0.62511   0.75675   0.00000  Uiso   1.00
C924   C     0.31899   0.47140   0.71943   0.00000  Uiso   1.00
C925   C     0.03327   0.47046   0.72080   0.00000  Uiso   1.00
N926   N     0.04760   0.50001   0.75002   0.00000  Uiso   1.00
C927   C     0.01501   0.53192   0.77497   0.00000  Uiso   1.00
C928   C     0.30079   0.53137   0.77465   0.00000  Uiso   1.00
H929   H     0.27556   0.55625   0.79436   0.00000  Uiso   1.00
N930   N     0.28573   0.49998   0.75001   0.00000  Uiso   1.00
F931   F     0.24812   0.42624   0.60919   0.00000  Uiso   1.00
N932   N     0.24133   0.37374   0.78434   0.00000  Uiso   1.00
O933   O     0.23028   0.40103   0.82361   0.00000  Uiso   1.00
O934   O     0.28482   0.35833   0.76666   0.00000  Uiso   1.00
N935   N     0.07295   0.37704   0.80227   0.00000  Uiso   1.00
O936   O     0.06754   0.40740   0.83724   0.00000  Uiso   1.00
O937   O     0.03493   0.36040   0.79745   0.00000  Uiso   1.00
N938   N     0.30873   0.44826   0.67832   0.00000  Uiso   1.00
O939   O     0.31949   0.46440   0.63173   0.00000  Uiso   1.00
O940   O     0.30270   0.40833   0.68219   0.00000  Uiso   1.00
N941   N     0.06719   0.44068   0.68746   0.00000  Uiso   1.00
O942   O     0.09101   0.45023   0.63904   0.00000  Uiso   1.00
O943   O     0.06343   0.40149   0.69905   0.00000  Uiso   1.00
N944   N     0.02822   0.56778   0.79945   0.00000  Uiso   1.00
O945   O     0.05351   0.56360   0.83049   0.00000  Uiso   1.00
O946   O     0.00650   0.60362   0.80009   0.00000  Uiso   1.00
F947   F     0.24923   0.40644   0.92069   0.00000  Uiso   1.00
F948   F     0.26042   0.39494   0.51023   0.00000  Uiso   1.00
N949   N     0.17204   0.55235   0.56982   0.00000  Uiso   1.00
O950   O     0.16663   0.57174   0.61497   0.00000  Uiso   1.00
O951   O     0.17285   0.57480   0.52950   0.00000  Uiso   1.00
N952   N     0.03994   0.51674   0.92079   0.00000  Uiso   1.00
O953   O     0.01212   0.55005   0.93237   0.00000  Uiso   1.00
O954   O     0.02613   0.48398   0.90073   0.00000  Uiso   1.00
F955   F     0.08758   0.51876   0.57645   0.00000  Uiso   1.00
N956   N     0.01792   0.53100   0.53160   0.00000  Uiso   1.00
O957   O     0.01020   0.55948   0.56936   0.00000  Uiso   1.00
O958   O     0.31556   0.50986   0.52768   0.00000  Uiso   1.00
N959   N     0.24132   0.48787   0.87965   0.00000  Uiso   1.00
O960   O     0.24220   0.52812   0.88689   0.00000  Uiso   1.00
O961   O     0.28090   0.46769   0.85327   0.00000  Uiso   1.00
F962   F     0.24760   0.62398   0.75306   0.00000  Uiso   1.00
O963   O     0.46179   0.56108   0.75001   0.00000  Uiso   1.00
O964   O     0.53823   0.56107   0.75001   0.00000  Uiso   1.00
C965   C     0.49974   0.58035   0.75041   0.00000  Uiso   1.00
O966   O     0.44280   0.50000   0.82681   0.00000  Uiso   1.00
O967   O     0.51924   0.49999   0.82681   0.00000  Uiso   1.00
C968   C     0.47375   0.49894   0.85241   0.00000  Uiso   1.00
Zn969  Zn    0.44896   0.50001   0.75000   0.00000  Uiso   1.00
Zn970  Zn    0.55104   0.49999   0.75000   0.00000  Uiso   1.00
O971   O     0.46177   0.43893   0.75000   0.00000  Uiso   1.00
O972   O     0.53821   0.43892   0.75000   0.00000  Uiso   1.00
O973   O     0.48076   0.50001   0.67319   0.00000  Uiso   1.00
O974   O     0.55720   0.50000   0.67319   0.00000  Uiso   1.00
C975   C     0.49812   0.42072   0.75788   0.00000  Uiso   1.00
C976   C     0.52612   0.49859   0.64878   0.00000  Uiso   1.00
C977   C     0.56795   0.43112   0.52705   0.00000  Uiso   1.00
C978   C     0.54086   0.48755   0.59304   0.00000  Uiso   1.00
C979   C     0.41065   0.51213   0.94351   0.00000  Uiso   1.00
C980   C     0.39923   0.51964   0.99876   0.00000  Uiso   1.00
C981   C     0.43404   0.51389   0.52275   0.00000  Uiso   1.00
C982   C     0.47954   0.49733   0.99325   0.00000  Uiso   1.00
C983   C     0.49114   0.48786   0.93845   0.00000  Uiso   1.00
C984   C     0.51313   0.48576   0.51793   0.00000  Uiso   1.00
C985   C     0.54296   0.45010   0.99697   0.00000  Uiso   1.00
C986   C     0.54943   0.43693   0.94470   0.00000  Uiso   1.00
C987   C     0.53540   0.46561   0.91352   0.00000  Uiso   1.00
C988   C     0.51828   0.50818   0.56150   0.00000  Uiso   1.00
C989   C     0.56437   0.44856   0.57641   0.00000  Uiso   1.00
C990   C     0.45808   0.49914   0.91184   0.00000  Uiso   1.00
C991   C     0.53935   0.64541   0.75912   0.00000  Uiso   1.00
C992   C     0.53706   0.35458   0.76982   0.00000  Uiso   1.00
C993   C     0.49528   0.37712   0.77141   0.00000  Uiso   1.00
C994   C     0.45232   0.35623   0.77920   0.00000  Uiso   1.00
C995   C     0.45500   0.64699   0.76849   0.00000  Uiso   1.00
H996   H     0.42290   0.63079   0.77132   0.00000  Uiso   1.00
C997   C     0.49852   0.62511   0.75675   0.00000  Uiso   1.00
C998   C     0.65232   0.47140   0.71943   0.00000  Uiso   1.00
C999   C     0.36660   0.47046   0.72080   0.00000  Uiso   1.00
N1000  N     0.38093   0.50001   0.75002   0.00000  Uiso   1.00
C1001  C     0.34834   0.53192   0.77497   0.00000  Uiso   1.00
C1002  C     0.63412   0.53137   0.77465   0.00000  Uiso   1.00
H1003  H     0.60890   0.55625   0.79436   0.00000  Uiso   1.00
N1004  N     0.61906   0.49998   0.75001   0.00000  Uiso   1.00
F1005  F     0.58145   0.42624   0.60919   0.00000  Uiso   1.00
N1006  N     0.57467   0.37374   0.78434   0.00000  Uiso   1.00
O1007  O     0.56361   0.40103   0.82361   0.00000  Uiso   1.00
O1008  O     0.61815   0.35833   0.76666   0.00000  Uiso   1.00
N1009  N     0.40629   0.37704   0.80227   0.00000  Uiso   1.00
O1010  O     0.40087   0.40740   0.83724   0.00000  Uiso   1.00
O1011  O     0.36826   0.36040   0.79745   0.00000  Uiso   1.00
N1012  N     0.64206   0.44826   0.67832   0.00000  Uiso   1.00
O1013  O     0.65282   0.46440   0.63173   0.00000  Uiso   1.00
O1014  O     0.63603   0.40833   0.68219   0.00000  Uiso   1.00
N1015  N     0.40053   0.44068   0.68746   0.00000  Uiso   1.00
O1016  O     0.42435   0.45023   0.63904   0.00000  Uiso   1.00
O1017  O     0.39676   0.40149   0.69905   0.00000  Uiso   1.00
N1018  N     0.36155   0.56778   0.79945   0.00000  Uiso   1.00
O1019  O     0.38684   0.56360   0.83049   0.00000  Uiso   1.00
O1020  O     0.33984   0.60362   0.80009   0.00000  Uiso   1.00
F1021  F     0.58257   0.40644   0.92069   0.00000  Uiso   1.00
F1022  F     0.59376   0.39494   0.51023   0.00000  Uiso   1.00
N1023  N     0.50537   0.55235   0.56982   0.00000  Uiso   1.00
O1024  O     0.49997   0.57174   0.61497   0.00000  Uiso   1.00
O1025  O     0.50618   0.57480   0.52950   0.00000  Uiso   1.00
N1026  N     0.37327   0.51674   0.92079   0.00000  Uiso   1.00
O1027  O     0.34546   0.55005   0.93237   0.00000  Uiso   1.00
O1028  O     0.35946   0.48398   0.90073   0.00000  Uiso   1.00
F1029  F     0.42092   0.51876   0.57645   0.00000  Uiso   1.00
N1030  N     0.35126   0.53100   0.53160   0.00000  Uiso   1.00
O1031  O     0.34353   0.55948   0.56936   0.00000  Uiso   1.00
O1032  O     0.64889   0.50986   0.52768   0.00000  Uiso   1.00
N1033  N     0.57465   0.48787   0.87965   0.00000  Uiso   1.00
O1034  O     0.57554   0.52812   0.88689   0.00000  Uiso   1.00
O1035  O     0.61424   0.46769   0.85327   0.00000  Uiso   1.00
F1036  F     0.58094   0.62398   0.75306   0.00000  Uiso   1.00
O1037  O     0.79512   0.56108   0.75001   0.00000  Uiso   1.00
O1038  O     0.87157   0.56107   0.75001   0.00000  Uiso   1.00
C1039  C     0.83308   0.58035   0.75041   0.00000  Uiso   1.00
O1040  O     0.77613   0.50000   0.82681   0.00000  Uiso   1.00
O1041  O     0.85258   0.49999   0.82681   0.00000  Uiso   1.00
C1042  C     0.80708   0.49894   0.85241   0.00000  Uiso   1.00
Zn1043 Zn    0.78229   0.50001   0.75000   0.00000  Uiso   1.00
Zn1044 Zn    0.88438   0.49999   0.75000   0.00000  Uiso   1.00
O1045  O     0.79510   0.43893   0.75000   0.00000  Uiso   1.00
O1046  O     0.87154   0.43892   0.75000   0.00000  Uiso   1.00
O1047  O     0.81409   0.50001   0.67319   0.00000  Uiso   1.00
O1048  O     0.89053   0.50000   0.67319   0.00000  Uiso   1.00
C1049  C     0.83145   0.42072   0.75788   0.00000  Uiso   1.00
C1050  C     0.85946   0.49859   0.64878   0.00000  Uiso   1.00
C1051  C     0.90128   0.43112   0.52705   0.00000  Uiso   1.00
C1052  C     0.87419   0.48755   0.59304   0.00000  Uiso   1.00
C1053  C     0.74398   0.51213   0.94351   0.00000  Uiso   1.00
C1054  C     0.73256   0.51964   0.99876   0.00000  Uiso   1.00
C1055  C     0.76737   0.51389   0.52275   0.00000  Uiso   1.00
C1056  C     0.81288   0.49733   0.99325   0.00000  Uiso   1.00
C1057  C     0.82447   0.48786   0.93845   0.00000  Uiso   1.00
C1058  C     0.84646   0.48576   0.51793   0.00000  Uiso   1.00
C1059  C     0.87629   0.45010   0.99697   0.00000  Uiso   1.00
C1060  C     0.88276   0.43693   0.94470   0.00000  Uiso   1.00
C1061  C     0.86873   0.46561   0.91352   0.00000  Uiso   1.00
C1062  C     0.85161   0.50818   0.56150   0.00000  Uiso   1.00
C1063  C     0.89770   0.44856   0.57641   0.00000  Uiso   1.00
C1064  C     0.79141   0.49914   0.91184   0.00000  Uiso   1.00
C1065  C     0.87268   0.64541   0.75912   0.00000  Uiso   1.00
C1066  C     0.87039   0.35458   0.76982   0.00000  Uiso   1.00
C1067  C     0.82862   0.37712   0.77141   0.00000  Uiso   1.00
C1068  C     0.78565   0.35623   0.77920   0.00000  Uiso   1.00
C1069  C     0.78833   0.64699   0.76849   0.00000  Uiso   1.00
H1070  H     0.75623   0.63079   0.77132   0.00000  Uiso   1.00
C1071  C     0.83185   0.62511   0.75675   0.00000  Uiso   1.00
C1072  C     0.98566   0.47140   0.71943   0.00000  Uiso   1.00
C1073  C     0.69993   0.47046   0.72080   0.00000  Uiso   1.00
N1074  N     0.71426   0.50001   0.75002   0.00000  Uiso   1.00
C1075  C     0.68168   0.53192   0.77497   0.00000  Uiso   1.00
C1076  C     0.96745   0.53137   0.77465   0.00000  Uiso   1.00
H1077  H     0.94223   0.55625   0.79436   0.00000  Uiso   1.00
N1078  N     0.95239   0.49998   0.75001   0.00000  Uiso   1.00
F1079  F     0.91479   0.42624   0.60919   0.00000  Uiso   1.00
N1080  N     0.90800   0.37374   0.78434   0.00000  Uiso   1.00
O1081  O     0.89695   0.40103   0.82361   0.00000  Uiso   1.00
O1082  O     0.95149   0.35833   0.76666   0.00000  Uiso   1.00
N1083  N     0.73962   0.37704   0.80227   0.00000  Uiso   1.00
O1084  O     0.73421   0.40740   0.83724   0.00000  Uiso   1.00
O1085  O     0.70159   0.36040   0.79745   0.00000  Uiso   1.00
N1086  N     0.97539   0.44826   0.67832   0.00000  Uiso   1.00
O1087  O     0.98616   0.46440   0.63173   0.00000  Uiso   1.00
O1088  O     0.96937   0.40833   0.68219   0.00000  Uiso   1.00
N1089  N     0.73386   0.44068   0.68746   0.00000  Uiso   1.00
O1090  O     0.75768   0.45023   0.63904   0.00000  Uiso   1.00
O1091  O     0.73010   0.40149   0.69905   0.00000  Uiso   1.00
N1092  N     0.69488   0.56778   0.79945   0.00000  Uiso   1.00
O1093  O     0.72017   0.56360   0.83049   0.00000  Uiso   1.00
O1094  O     0.67317   0.60362   0.80009   0.00000  Uiso   1.00
F1095  F     0.91590   0.40644   0.92069   0.00000  Uiso   1.00
F1096  F     0.92709   0.39494   0.51023   0.00000  Uiso   1.00
N1097  N     0.83871   0.55235   0.56982   0.00000  Uiso   1.00
O1098  O     0.83330   0.57174   0.61497   0.00000  Uiso   1.00
O1099  O     0.83951   0.57480   0.52950   0.00000  Uiso   1.00
N1100  N     0.70660   0.51674   0.92079   0.00000  Uiso   1.00
O1101  O     0.67879   0.55005   0.93237   0.00000  Uiso   1.00
O1102  O     0.69279   0.48398   0.90073   0.00000  Uiso   1.00
F1103  F     0.75425   0.51876   0.57645   0.00000  Uiso   1.00
N1104  N     0.68459   0.53100   0.53160   0.00000  Uiso   1.00
O1105  O     0.67687   0.55948   0.56936   0.00000  Uiso   1.00
O1106  O     0.98222   0.50986   0.52768   0.00000  Uiso   1.00
N1107  N     0.90798   0.48787   0.87965   0.00000  Uiso   1.00
O1108  O     0.90887   0.52812   0.88689   0.00000  Uiso   1.00
O1109  O     0.94757   0.46769   0.85327   0.00000  Uiso   1.00
F1110  F     0.91427   0.62398   0.75306   0.00000  Uiso   1.00
O1111  O     0.12846   0.89442   0.75001   0.00000  Uiso   1.00
O1112  O     0.20490   0.89441   0.75001   0.00000  Uiso   1.00
C1113  C     0.16641   0.91368   0.75041   0.00000  Uiso   1.00
O1114  O     0.10947   0.83333   0.82681   0.00000  Uiso   1.00
O1115  O     0.18591   0.83332   0.82681   0.00000  Uiso   1.00
C1116  C     0.14041   0.83228   0.85241   0.00000  Uiso   1.00
Zn1117 Zn    0.11562   0.83334   0.75000   0.00000  Uiso   1.00
Zn1118 Zn    0.21771   0.83333   0.75000   0.00000  Uiso   1.00
O1119  O     0.12843   0.77226   0.75000   0.00000  Uiso   1.00
O1120  O     0.20488   0.77225   0.75000   0.00000  Uiso   1.00
O1121  O     0.14742   0.83335   0.67319   0.00000  Uiso   1.00
O1122  O     0.22387   0.83334   0.67319   0.00000  Uiso   1.00
C1123  C     0.16479   0.75405   0.75788   0.00000  Uiso   1.00
C1124  C     0.19279   0.83192   0.64878   0.00000  Uiso   1.00
C1125  C     0.23461   0.76446   0.52705   0.00000  Uiso   1.00
C1126  C     0.20752   0.82088   0.59304   0.00000  Uiso   1.00
C1127  C     0.07732   0.84547   0.94351   0.00000  Uiso   1.00
C1128  C     0.06590   0.85298   0.99876   0.00000  Uiso   1.00
C1129  C     0.10070   0.84722   0.52275   0.00000  Uiso   1.00
C1130  C     0.14621   0.83066   0.99325   0.00000  Uiso   1.00
C1131  C     0.15781   0.82119   0.93845   0.00000  Uiso   1.00
C1132  C     0.17980   0.81910   0.51793   0.00000  Uiso   1.00
C1133  C     0.20962   0.78343   0.99697   0.00000  Uiso   1.00
C1134  C     0.21610   0.77026   0.94470   0.00000  Uiso   1.00
C1135  C     0.20206   0.79894   0.91352   0.00000  Uiso   1.00
C1136  C     0.18495   0.84151   0.56150   0.00000  Uiso   1.00
C1137  C     0.23103   0.78190   0.57641   0.00000  Uiso   1.00
C1138  C     0.12475   0.83247   0.91184   0.00000  Uiso   1.00
C1139  C     0.20601   0.97875   0.75912   0.00000  Uiso   1.00
C1140  C     0.20372   0.68791   0.76982   0.00000  Uiso   1.00
C1141  C     0.16195   0.71045   0.77141   0.00000  Uiso   1.00
C1142  C     0.11898   0.68956   0.77920   0.00000  Uiso   1.00
C1143  C     0.12167   0.98032   0.76849   0.00000  Uiso   1.00
H1144  H     0.08956   0.96412   0.77132   0.00000  Uiso   1.00
C1145  C     0.16519   0.95844   0.75675   0.00000  Uiso   1.00
C1146  C     0.31899   0.80474   0.71943   0.00000  Uiso   1.00
C1147  C     0.03327   0.80379   0.72080   0.00000  Uiso   1.00
N1148  N     0.04760   0.83334   0.75002   0.00000  Uiso   1.00
C1149  C     0.01501   0.86526   0.77497   0.00000  Uiso   1.00
C1150  C     0.30079   0.86470   0.77465   0.00000  Uiso   1.00
H1151  H     0.27556   0.88958   0.79436   0.00000  Uiso   1.00
N1152  N     0.28573   0.83331   0.75001   0.00000  Uiso   1.00
F1153  F     0.24812   0.75957   0.60919   0.00000  Uiso   1.00
N1154  N     0.24133   0.70707   0.78434   0.00000  Uiso   1.00
O1155  O     0.23028   0.73436   0.82361   0.00000  Uiso   1.00
O1156  O     0.28482   0.69166   0.76666   0.00000  Uiso   1.00
N1157  N     0.07295   0.71037   0.80227   0.00000  Uiso   1.00
O1158  O     0.06754   0.74073   0.83724   0.00000  Uiso   1.00
O1159  O     0.03493   0.69373   0.79745   0.00000  Uiso   1.00
N1160  N     0.30873   0.78159   0.67832   0.00000  Uiso   1.00
O1161  O     0.31949   0.79773   0.63173   0.00000  Uiso   1.00
O1162  O     0.30270   0.74166   0.68219   0.00000  Uiso   1.00
N1163  N     0.06719   0.77401   0.68746   0.00000  Uiso   1.00
O1164  O     0.09101   0.78356   0.63904   0.00000  Uiso   1.00
O1165  O     0.06343   0.73483   0.69905   0.00000  Uiso   1.00
N1166  N     0.02822   0.90112   0.79945   0.00000  Uiso   1.00
O1167  O     0.05351   0.89693   0.83049   0.00000  Uiso   1.00
O1168  O     0.00650   0.93695   0.80009   0.00000  Uiso   1.00
F1169  F     0.24923   0.73977   0.92069   0.00000  Uiso   1.00
F1170  F     0.26042   0.72827   0.51023   0.00000  Uiso   1.00
N1171  N     0.17204   0.88569   0.56982   0.00000  Uiso   1.00
O1172  O     0.16663   0.90507   0.61497   0.00000  Uiso   1.00
O1173  O     0.17285   0.90813   0.52950   0.00000  Uiso   1.00
N1174  N     0.03994   0.85007   0.92079   0.00000  Uiso   1.00
O1175  O     0.01212   0.88339   0.93237   0.00000  Uiso   1.00
O1176  O     0.02613   0.81732   0.90073   0.00000  Uiso   1.00
F1177  F     0.08758   0.85209   0.57645   0.00000  Uiso   1.00
N1178  N     0.01792   0.86434   0.53160   0.00000  Uiso   1.00
O1179  O     0.01020   0.89281   0.56936   0.00000  Uiso   1.00
O1180  O     0.31556   0.84320   0.52768   0.00000  Uiso   1.00
N1181  N     0.24132   0.82120   0.87965   0.00000  Uiso   1.00
O1182  O     0.24220   0.86145   0.88689   0.00000  Uiso   1.00
O1183  O     0.28090   0.80102   0.85327   0.00000  Uiso   1.00
F1184  F     0.24760   0.95731   0.75306   0.00000  Uiso   1.00
O1185  O     0.46179   0.89442   0.75001   0.00000  Uiso   1.00
O1186  O     0.53823   0.89441   0.75001   0.00000  Uiso   1.00
C1187  C     0.49974   0.91368   0.75041   0.00000  Uiso   1.00
O1188  O     0.44280   0.83333   0.82681   0.00000  Uiso   1.00
O1189  O     0.51924   0.83332   0.82681   0.00000  Uiso   1.00
C1190  C     0.47375   0.83228   0.85241   0.00000  Uiso   1.00
Zn1191 Zn    0.44896   0.83334   0.75000   0.00000  Uiso   1.00
Zn1192 Zn    0.55104   0.83333   0.75000   0.00000  Uiso   1.00
O1193  O     0.46177   0.77226   0.75000   0.00000  Uiso   1.00
O1194  O     0.53821   0.77225   0.75000   0.00000  Uiso   1.00
O1195  O     0.48076   0.83335   0.67319   0.00000  Uiso   1.00
O1196  O     0.55720   0.83334   0.67319   0.00000  Uiso   1.00
C1197  C     0.49812   0.75405   0.75788   0.00000  Uiso   1.00
C1198  C     0.52612   0.83192   0.64878   0.00000  Uiso   1.00
C1199  C     0.56795   0.76446   0.52705   0.00000  Uiso   1.00
C1200  C     0.54086   0.82088   0.59304   0.00000  Uiso   1.00
C1201  C     0.41065   0.84547   0.94351   0.00000  Uiso   1.00
C1202  C     0.39923   0.85298   0.99876   0.00000  Uiso   1.00
C1203  C     0.43404   0.84722   0.52275   0.00000  Uiso   1.00
C1204  C     0.47954   0.83066   0.99325   0.00000  Uiso   1.00
C1205  C     0.49114   0.82119   0.93845   0.00000  Uiso   1.00
C1206  C     0.51313   0.81910   0.51793   0.00000  Uiso   1.00
C1207  C     0.54296   0.78343   0.99697   0.00000  Uiso   1.00
C1208  C     0.54943   0.77026   0.94470   0.00000  Uiso   1.00
C1209  C     0.53540   0.79894   0.91352   0.00000  Uiso   1.00
C1210  C     0.51828   0.84151   0.56150   0.00000  Uiso   1.00
C1211  C     0.56437   0.78190   0.57641   0.00000  Uiso   1.00
C1212  C     0.45808   0.83247   0.91184   0.00000  Uiso   1.00
C1213  C     0.53935   0.97875   0.75912   0.00000  Uiso   1.00
C1214  C     0.53706   0.68791   0.76982   0.00000  Uiso   1.00
C1215  C     0.49528   0.71045   0.77141   0.00000  Uiso   1.00
C1216  C     0.45232   0.68956   0.77920   0.00000  Uiso   1.00
C1217  C     0.45500   0.98032   0.76849   0.00000  Uiso   1.00
H1218  H     0.42290   0.96412   0.77132   0.00000  Uiso   1.00
C1219  C     0.49852   0.95844   0.75675   0.00000  Uiso   1.00
C1220  C     0.65232   0.80474   0.71943   0.00000  Uiso   1.00
C1221  C     0.36660   0.80379   0.72080   0.00000  Uiso   1.00
N1222  N     0.38093   0.83334   0.75002   0.00000  Uiso   1.00
C1223  C     0.34834   0.86526   0.77497   0.00000  Uiso   1.00
C1224  C     0.63412   0.86470   0.77465   0.00000  Uiso   1.00
H1225  H     0.60890   0.88958   0.79436   0.00000  Uiso   1.00
N1226  N     0.61906   0.83331   0.75001   0.00000  Uiso   1.00
F1227  F     0.58145   0.75957   0.60919   0.00000  Uiso   1.00
N1228  N     0.57467   0.70707   0.78434   0.00000  Uiso   1.00
O1229  O     0.56361   0.73436   0.82361   0.00000  Uiso   1.00
O1230  O     0.61815   0.69166   0.76666   0.00000  Uiso   1.00
N1231  N     0.40629   0.71037   0.80227   0.00000  Uiso   1.00
O1232  O     0.40087   0.74073   0.83724   0.00000  Uiso   1.00
O1233  O     0.36826   0.69373   0.79745   0.00000  Uiso   1.00
N1234  N     0.64206   0.78159   0.67832   0.00000  Uiso   1.00
O1235  O     0.65282   0.79773   0.63173   0.00000  Uiso   1.00
O1236  O     0.63603   0.74166   0.68219   0.00000  Uiso   1.00
N1237  N     0.40053   0.77401   0.68746   0.00000  Uiso   1.00
O1238  O     0.42435   0.78356   0.63904   0.00000  Uiso   1.00
O1239  O     0.39676   0.73483   0.69905   0.00000  Uiso   1.00
N1240  N     0.36155   0.90112   0.79945   0.00000  Uiso   1.00
O1241  O     0.38684   0.89693   0.83049   0.00000  Uiso   1.00
O1242  O     0.33984   0.93695   0.80009   0.00000  Uiso   1.00
F1243  F     0.58257   0.73977   0.92069   0.00000  Uiso   1.00
F1244  F     0.59376   0.72827   0.51023   0.00000  Uiso   1.00
N1245  N     0.50537   0.88569   0.56982   0.00000  Uiso   1.00
O1246  O     0.49997   0.90507   0.61497   0.00000  Uiso   1.00
O1247  O     0.50618   0.90813   0.52950   0.00000  Uiso   1.00
N1248  N     0.37327   0.85007   0.92079   0.00000  Uiso   1.00
O1249  O     0.34546   0.88339   0.93237   0.00000  Uiso   1.00
O1250  O     0.35946   0.81732   0.90073   0.00000  Uiso   1.00
F1251  F     0.42092   0.85209   0.57645   0.00000  Uiso   1.00
N1252  N     0.35126   0.86434   0.53160   0.00000  Uiso   1.00
O1253  O     0.34353   0.89281   0.56936   0.00000  Uiso   1.00
O1254  O     0.64889   0.84320   0.52768   0.00000  Uiso   1.00
N1255  N     0.57465   0.82120   0.87965   0.00000  Uiso   1.00
O1256  O     0.57554   0.86145   0.88689   0.00000  Uiso   1.00
O1257  O     0.61424   0.80102   0.85327   0.00000  Uiso   1.00
F1258  F     0.58094   0.95731   0.75306   0.00000  Uiso   1.00
O1259  O     0.79512   0.89442   0.75001   0.00000  Uiso   1.00
O1260  O     0.87157   0.89441   0.75001   0.00000  Uiso   1.00
C1261  C     0.83308   0.91368   0.75041   0.00000  Uiso   1.00
O1262  O     0.77613   0.83333   0.82681   0.00000  Uiso   1.00
O1263  O     0.85258   0.83332   0.82681   0.00000  Uiso   1.00
C1264  C     0.80708   0.83228   0.85241   0.00000  Uiso   1.00
Zn1265 Zn    0.78229   0.83334   0.75000   0.00000  Uiso   1.00
Zn1266 Zn    0.88438   0.83333   0.75000   0.00000  Uiso   1.00
O1267  O     0.79510   0.77226   0.75000   0.00000  Uiso   1.00
O1268  O     0.87154   0.77225   0.75000   0.00000  Uiso   1.00
O1269  O     0.81409   0.83335   0.67319   0.00000  Uiso   1.00
O1270  O     0.89053   0.83334   0.67319   0.00000  Uiso   1.00
C1271  C     0.83145   0.75405   0.75788   0.00000  Uiso   1.00
C1272  C     0.85946   0.83192   0.64878   0.00000  Uiso   1.00
C1273  C     0.90128   0.76446   0.52705   0.00000  Uiso   1.00
C1274  C     0.87419   0.82088   0.59304   0.00000  Uiso   1.00
C1275  C     0.74398   0.84547   0.94351   0.00000  Uiso   1.00
C1276  C     0.73256   0.85298   0.99876   0.00000  Uiso   1.00
C1277  C     0.76737   0.84722   0.52275   0.00000  Uiso   1.00
C1278  C     0.81288   0.83066   0.99325   0.00000  Uiso   1.00
C1279  C     0.82447   0.82119   0.93845   0.00000  Uiso   1.00
C1280  C     0.84646   0.81910   0.51793   0.00000  Uiso   1.00
C1281  C     0.87629   0.78343   0.99697   0.00000  Uiso   1.00
C1282  C     0.88276   0.77026   0.94470   0.00000  Uiso   1.00
C1283  C     0.86873   0.79894   0.91352   0.00000  Uiso   1.00
C1284  C     0.85161   0.84151   0.56150   0.00000  Uiso   1.00
C1285  C     0.89770   0.78190   0.57641   0.00000  Uiso   1.00
C1286  C     0.79141   0.83247   0.91184   0.00000  Uiso   1.00
C1287  C     0.87268   0.97875   0.75912   0.00000  Uiso   1.00
C1288  C     0.87039   0.68791   0.76982   0.00000  Uiso   1.00
C1289  C     0.82862   0.71045   0.77141   0.00000  Uiso   1.00
C1290  C     0.78565   0.68956   0.77920   0.00000  Uiso   1.00
C1291  C     0.78833   0.98032   0.76849   0.00000  Uiso   1.00
H1292  H     0.75623   0.96412   0.77132   0.00000  Uiso   1.00
C1293  C     0.83185   0.95844   0.75675   0.00000  Uiso   1.00
C1294  C     0.98566   0.80474   0.71943   0.00000  Uiso   1.00
C1295  C     0.69993   0.80379   0.72080   0.00000  Uiso   1.00
N1296  N     0.71426   0.83334   0.75002   0.00000  Uiso   1.00
C1297  C     0.68168   0.86526   0.77497   0.00000  Uiso   1.00
C1298  C     0.96745   0.86470   0.77465   0.00000  Uiso   1.00
H1299  H     0.94223   0.88958   0.79436   0.00000  Uiso   1.00
N1300  N     0.95239   0.83331   0.75001   0.00000  Uiso   1.00
F1301  F     0.91479   0.75957   0.60919   0.00000  Uiso   1.00
N1302  N     0.90800   0.70707   0.78434   0.00000  Uiso   1.00
O1303  O     0.89695   0.73436   0.82361   0.00000  Uiso   1.00
O1304  O     0.95149   0.69166   0.76666   0.00000  Uiso   1.00
N1305  N     0.73962   0.71037   0.80227   0.00000  Uiso   1.00
O1306  O     0.73421   0.74073   0.83724   0.00000  Uiso   1.00
O1307  O     0.70159   0.69373   0.79745   0.00000  Uiso   1.00
N1308  N     0.97539   0.78159   0.67832   0.00000  Uiso   1.00
O1309  O     0.98616   0.79773   0.63173   0.00000  Uiso   1.00
O1310  O     0.96937   0.74166   0.68219   0.00000  Uiso   1.00
N1311  N     0.73386   0.77401   0.68746   0.00000  Uiso   1.00
O1312  O     0.75768   0.78356   0.63904   0.00000  Uiso   1.00
O1313  O     0.73010   0.73483   0.69905   0.00000  Uiso   1.00
N1314  N     0.69488   0.90112   0.79945   0.00000  Uiso   1.00
O1315  O     0.72017   0.89693   0.83049   0.00000  Uiso   1.00
O1316  O     0.67317   0.93695   0.80009   0.00000  Uiso   1.00
F1317  F     0.91590   0.73977   0.92069   0.00000  Uiso   1.00
F1318  F     0.92709   0.72827   0.51023   0.00000  Uiso   1.00
N1319  N     0.83871   0.88569   0.56982   0.00000  Uiso   1.00
O1320  O     0.83330   0.90507   0.61497   0.00000  Uiso   1.00
O1321  O     0.83951   0.90813   0.52950   0.00000  Uiso   1.00
N1322  N     0.70660   0.85007   0.92079   0.00000  Uiso   1.00
O1323  O     0.67879   0.88339   0.93237   0.00000  Uiso   1.00
O1324  O     0.69279   0.81732   0.90073   0.00000  Uiso   1.00
F1325  F     0.75425   0.85209   0.57645   0.00000  Uiso   1.00
N1326  N     0.68459   0.86434   0.53160   0.00000  Uiso   1.00
O1327  O     0.67687   0.89281   0.56936   0.00000  Uiso   1.00
O1328  O     0.98222   0.84320   0.52768   0.00000  Uiso   1.00
N1329  N     0.90798   0.82120   0.87965   0.00000  Uiso   1.00
O1330  O     0.90887   0.86145   0.88689   0.00000  Uiso   1.00
O1331  O     0.94757   0.80102   0.85327   0.00000  Uiso   1.00
F1332  F     0.91427   0.95731   0.75306   0.00000  Uiso   1.00
loop_
_geom_bond_atom_site_label_1
_geom_bond_atom_site_label_2
_geom_bond_distance
_geom_bond_site_symmetry_2
_ccdc_geom_bond_type
O1     Zn7     2.003   .     S
O1     C3      1.299   .     A
O2     C3      1.283   .     A
O2     Zn8     1.987   .     S
C3     C35     1.439   .     S
O4     C6      1.312   .     A
O4     Zn7     1.995   .     S
O5     Zn8     1.953   .     S
O5     C6      1.299   .     A
C6     C28     1.497   .     S
Zn7    N38     2.018   .     S
Zn7    O11     1.953   .     S
Zn7    O9      1.987   .     S
Zn8    O12     1.995   .     S
Zn8    N42     2.018   .     S
Zn8    O10     2.003   .     S
O9     C13     1.294   .     A
O10    C13     1.293   .     A
O11    C14     1.287   .     A
O12    C14     1.292   .     A
C13    C31     1.449   .     S
C14    C16     1.437   .     S
C15    F60     1.358   .     S
C15    C27     1.388   .     A
C15    C689    1.399   1_554 S
C16    C27     1.406   .     A
C16    C26     1.404   .     A
C17    C18     1.412   .     A
C17    N64     1.434   .     S
C17    C28     1.429   .     A
C18    C685    1.393   .     S
C18    N734    1.438   .     S
C19    F67     1.359   .     S
C19    C684    1.393   1_554 S
C19    C686    1.405   1_554 S
C20    C21     1.410   .     A
C20    C685    1.405   .     S
C20    C688    1.411   .     S
C21    C25     1.427   .     A
C21    C28     1.432   .     A
C22    C26     1.404   .     A
C22    C686    1.411   1_554 S
C22    C689    1.415   1_554 S
C23    C24     1.396   .     A
C23    C681    1.399   .     S
C23    C688    1.415   .     S
C24    C25     1.399   .     A
C24    F59     1.359   .     S
C25    N71     1.434   .     S
C26    N61     1.452   .     S
C27    F43     1.356   .     S
C29    C35     1.406   .     A
C29    F74     1.359   .     S
C29    C252    1.381   .     S
C30    N44     1.440   .     S
C30    C31     1.409   .     A
C30    C473    1.381   1_545 S
C31    C32     1.409   .     A
C32    N47     1.441   .     S
C32    C477    1.383   1_545 S
C33    H34     1.076   .     S
C33    C35     1.393   .     A
C33    C254    1.383   .     S
C36    N50     1.426   .     S
C36    N42     1.369   .     A
C36    C111    1.425   .     S
C37    N38     1.373   .     A
C37    N53     1.430   .     S
C37    C184    1.425   1_455 S
N38    C39     1.388   .     A
C39    N56     1.433   .     S
C39    C188    1.414   1_455 S
C40    N42     1.351   .     A
C40    H41     1.081   .     S
C40    C113    1.414   .     S
N44    O46     1.301   .     A
N44    O45     1.299   .     A
N47    O48     1.301   .     A
N47    O49     1.301   .     A
N50    O52     1.298   .     A
N50    O51     1.300   .     A
N53    O54     1.300   .     A
N53    O55     1.299   .     A
N56    O58     1.302   .     A
N56    O57     1.294   .     A
N61    O62     1.301   .     A
N61    O63     1.302   .     A
N64    O65     1.302   .     A
N64    O66     1.301   .     A
N68    O69     1.301   .     A
N68    C684    1.438   1_554 S
N68    O218    1.301   1_455 S
O70    N142    1.301   .     S
N71    O72     1.302   .     A
N71    O73     1.302   .     A
O75    Zn81    2.003   .     S
O75    C77     1.299   .     A
O76    C77     1.283   .     A
O76    Zn82    1.987   .     S
C77    C109    1.439   .     S
O78    C80     1.312   .     A
O78    Zn81    1.995   .     S
O79    Zn82    1.953   .     S
O79    C80     1.299   .     A
C80    C102    1.497   .     S
Zn81   N112    2.018   .     S
Zn81   O85     1.953   .     S
Zn81   O83     1.987   .     S
Zn82   O86     1.995   .     S
Zn82   N116    2.018   .     S
Zn82   O84     2.003   .     S
O83    C87     1.294   .     A
O84    C87     1.293   .     A
O85    C88     1.287   .     A
O86    C88     1.292   .     A
C87    C105    1.449   .     S
C88    C90     1.437   .     S
C89    F134    1.358   .     S
C89    C101    1.388   .     A
C89    C763    1.399   1_554 S
C90    C101    1.406   .     A
C90    C100    1.404   .     A
C91    C92     1.412   .     A
C91    N138    1.434   .     S
C91    C102    1.429   .     A
C92    C759    1.393   .     S
C92    N808    1.438   .     S
C93    F141    1.359   .     S
C93    C758    1.393   1_554 S
C93    C760    1.405   1_554 S
C94    C95     1.410   .     A
C94    C759    1.405   .     S
C94    C762    1.411   .     S
C95    C99     1.427   .     A
C95    C102    1.432   .     A
C96    C100    1.404   .     A
C96    C760    1.411   1_554 S
C96    C763    1.415   1_554 S
C97    C98     1.396   .     A
C97    C755    1.399   .     S
C97    C762    1.415   .     S
C98    C99     1.399   .     A
C98    F133    1.359   .     S
C99    N145    1.434   .     S
C100   N135    1.452   .     S
C101   F117    1.356   .     S
C103   C109    1.406   .     A
C103   F148    1.359   .     S
C103   C326    1.381   .     S
C104   N118    1.440   .     S
C104   C105    1.409   .     A
C104   C547    1.381   1_545 S
C105   C106    1.409   .     A
C106   N121    1.441   .     S
C106   C551    1.383   1_545 S
C107   H108    1.076   .     S
C107   C109    1.393   .     A
C107   C328    1.383   .     S
C110   N124    1.426   .     S
C110   N116    1.369   .     A
C110   C185    1.425   .     S
C111   N112    1.373   .     A
C111   N127    1.430   .     S
N112   C113    1.388   .     A
C113   N130    1.433   .     S
C114   N116    1.351   .     A
C114   H115    1.081   .     S
C114   C187    1.414   .     S
N118   O120    1.301   .     A
N118   O119    1.299   .     A
N121   O122    1.301   .     A
N121   O123    1.301   .     A
N124   O126    1.298   .     A
N124   O125    1.300   .     A
N127   O128    1.300   .     A
N127   O129    1.299   .     A
N130   O132    1.302   .     A
N130   O131    1.294   .     A
N135   O136    1.301   .     A
N135   O137    1.302   .     A
N138   O139    1.302   .     A
N138   O140    1.301   .     A
N142   O143    1.301   .     A
N142   C758    1.438   1_554 S
O144   N216    1.301   .     S
N145   O146    1.302   .     A
N145   O147    1.302   .     A
O149   Zn155   2.003   .     S
O149   C151    1.299   .     A
O150   C151    1.283   .     A
O150   Zn156   1.987   .     S
C151   C183    1.439   .     S
O152   C154    1.312   .     A
O152   Zn155   1.995   .     S
O153   Zn156   1.953   .     S
O153   C154    1.299   .     A
C154   C176    1.497   .     S
Zn155  N186    2.018   .     S
Zn155  O159    1.953   .     S
Zn155  O157    1.987   .     S
Zn156  O160    1.995   .     S
Zn156  N190    2.018   .     S
Zn156  O158    2.003   .     S
O157   C161    1.294   .     A
O158   C161    1.293   .     A
O159   C162    1.287   .     A
O160   C162    1.292   .     A
C161   C179    1.449   .     S
C162   C164    1.437   .     S
C163   F208    1.358   .     S
C163   C175    1.388   .     A
C163   C837    1.399   1_554 S
C164   C175    1.406   .     A
C164   C174    1.404   .     A
C165   C166    1.412   .     A
C165   N212    1.434   .     S
C165   C176    1.429   .     A
C166   C833    1.393   .     S
C166   N882    1.438   .     S
C167   F215    1.359   .     S
C167   C832    1.393   1_554 S
C167   C834    1.405   1_554 S
C168   C169    1.410   .     A
C168   C833    1.405   .     S
C168   C836    1.411   .     S
C169   C173    1.427   .     A
C169   C176    1.432   .     A
C170   C174    1.404   .     A
C170   C834    1.411   1_554 S
C170   C837    1.415   1_554 S
C171   C172    1.396   .     A
C171   C829    1.399   .     S
C171   C836    1.415   .     S
C172   C173    1.399   .     A
C172   F207    1.359   .     S
C173   N219    1.434   .     S
C174   N209    1.452   .     S
C175   F191    1.356   .     S
C177   C183    1.406   .     A
C177   F222    1.359   .     S
C177   C400    1.381   .     S
C178   N192    1.440   .     S
C178   C179    1.409   .     A
C178   C621    1.381   1_545 S
C179   C180    1.409   .     A
C180   N195    1.441   .     S
C180   C625    1.383   1_545 S
C181   H182    1.076   .     S
C181   C183    1.393   .     A
C181   C402    1.383   .     S
C184   N198    1.426   .     S
C184   N190    1.369   .     A
C184   C37     1.425   1_655 S
C185   N186    1.373   .     A
C185   N201    1.430   .     S
N186   C187    1.388   .     A
C187   N204    1.433   .     S
C188   N190    1.351   .     A
C188   H189    1.081   .     S
C188   C39     1.414   1_655 S
N192   O194    1.301   .     A
N192   O193    1.299   .     A
N195   O196    1.301   .     A
N195   O197    1.301   .     A
N198   O200    1.298   .     A
N198   O199    1.300   .     A
N201   O202    1.300   .     A
N201   O203    1.299   .     A
N204   O206    1.302   .     A
N204   O205    1.294   .     A
N209   O210    1.301   .     A
N209   O211    1.302   .     A
N212   O213    1.302   .     A
N212   O214    1.301   .     A
N216   O217    1.301   .     A
N216   C832    1.438   1_554 S
O218   N68     1.301   1_655 S
N219   O220    1.302   .     A
N219   O221    1.302   .     A
O223   Zn229   2.003   .     S
O223   C225    1.299   .     A
O224   C225    1.283   .     A
O224   Zn230   1.987   .     S
C225   C257    1.439   .     S
O226   C228    1.312   .     A
O226   Zn229   1.995   .     S
O227   Zn230   1.953   .     S
O227   C228    1.299   .     A
C228   C250    1.497   .     S
Zn229  N260    2.018   .     S
Zn229  O233    1.953   .     S
Zn229  O231    1.987   .     S
Zn230  O234    1.995   .     S
Zn230  N264    2.018   .     S
Zn230  O232    2.003   .     S
O231   C235    1.294   .     A
O232   C235    1.293   .     A
O233   C236    1.287   .     A
O234   C236    1.292   .     A
C235   C253    1.449   .     S
C236   C238    1.437   .     S
C237   F282    1.358   .     S
C237   C249    1.388   .     A
C237   C911    1.399   1_554 S
C238   C249    1.406   .     A
C238   C248    1.404   .     A
C239   C240    1.412   .     A
C239   N286    1.434   .     S
C239   C250    1.429   .     A
C240   C907    1.393   .     S
C240   N956    1.438   .     S
C241   F289    1.359   .     S
C241   C906    1.393   1_554 S
C241   C908    1.405   1_554 S
C242   C243    1.410   .     A
C242   C907    1.405   .     S
C242   C910    1.411   .     S
C243   C247    1.427   .     A
C243   C250    1.432   .     A
C244   C248    1.404   .     A
C244   C908    1.411   1_554 S
C244   C911    1.415   1_554 S
C245   C246    1.396   .     A
C245   C903    1.399   .     S
C245   C910    1.415   .     S
C246   C247    1.399   .     A
C246   F281    1.359   .     S
C247   N293    1.434   .     S
C248   N283    1.452   .     S
C249   F265    1.356   .     S
C251   C257    1.406   .     A
C251   F296    1.359   .     S
C251   C474    1.381   .     S
C252   N266    1.440   .     S
C252   C253    1.409   .     A
C253   C254    1.409   .     A
C254   N269    1.441   .     S
C255   H256    1.076   .     S
C255   C257    1.393   .     A
C255   C476    1.383   .     S
C258   N272    1.426   .     S
C258   N264    1.369   .     A
C258   C333    1.425   .     S
C259   N260    1.373   .     A
C259   N275    1.430   .     S
C259   C406    1.425   1_455 S
N260   C261    1.388   .     A
C261   N278    1.433   .     S
C261   C410    1.414   1_455 S
C262   N264    1.351   .     A
C262   H263    1.081   .     S
C262   C335    1.414   .     S
N266   O268    1.301   .     A
N266   O267    1.299   .     A
N269   O270    1.301   .     A
N269   O271    1.301   .     A
N272   O274    1.298   .     A
N272   O273    1.300   .     A
N275   O276    1.300   .     A
N275   O277    1.299   .     A
N278   O280    1.302   .     A
N278   O279    1.294   .     A
N283   O284    1.301   .     A
N283   O285    1.302   .     A
N286   O287    1.302   .     A
N286   O288    1.301   .     A
N290   O291    1.301   .     A
N290   C906    1.438   1_554 S
N290   O440    1.301   1_455 S
O292   N364    1.301   .     S
N293   O294    1.302   .     A
N293   O295    1.302   .     A
O297   Zn303   2.003   .     S
O297   C299    1.299   .     A
O298   C299    1.283   .     A
O298   Zn304   1.987   .     S
C299   C331    1.439   .     S
O300   C302    1.312   .     A
O300   Zn303   1.995   .     S
O301   Zn304   1.953   .     S
O301   C302    1.299   .     A
C302   C324    1.497   .     S
Zn303  N334    2.018   .     S
Zn303  O307    1.953   .     S
Zn303  O305    1.987   .     S
Zn304  O308    1.995   .     S
Zn304  N338    2.018   .     S
Zn304  O306    2.003   .     S
O305   C309    1.294   .     A
O306   C309    1.293   .     A
O307   C310    1.287   .     A
O308   C310    1.292   .     A
C309   C327    1.449   .     S
C310   C312    1.437   .     S
C311   F356    1.358   .     S
C311   C323    1.388   .     A
C311   C985    1.399   1_554 S
C312   C323    1.406   .     A
C312   C322    1.404   .     A
C313   C314    1.412   .     A
C313   N360    1.434   .     S
C313   C324    1.429   .     A
C314   C981    1.393   .     S
C314   N1030   1.438   .     S
C315   F363    1.359   .     S
C315   C980    1.393   1_554 S
C315   C982    1.405   1_554 S
C316   C317    1.410   .     A
C316   C981    1.405   .     S
C316   C984    1.411   .     S
C317   C321    1.427   .     A
C317   C324    1.432   .     A
C318   C322    1.404   .     A
C318   C982    1.411   1_554 S
C318   C985    1.415   1_554 S
C319   C320    1.396   .     A
C319   C977    1.399   .     S
C319   C984    1.415   .     S
C320   C321    1.399   .     A
C320   F355    1.359   .     S
C321   N367    1.434   .     S
C322   N357    1.452   .     S
C323   F339    1.356   .     S
C325   C331    1.406   .     A
C325   F370    1.359   .     S
C325   C548    1.381   .     S
C326   N340    1.440   .     S
C326   C327    1.409   .     A
C327   C328    1.409   .     A
C328   N343    1.441   .     S
C329   H330    1.076   .     S
C329   C331    1.393   .     A
C329   C550    1.383   .     S
C332   N346    1.426   .     S
C332   N338    1.369   .     A
C332   C407    1.425   .     S
C333   N334    1.373   .     A
C333   N349    1.430   .     S
N334   C335    1.388   .     A
C335   N352    1.433   .     S
C336   N338    1.351   .     A
C336   H337    1.081   .     S
C336   C409    1.414   .     S
N340   O342    1.301   .     A
N340   O341    1.299   .     A
N343   O344    1.301   .     A
N343   O345    1.301   .     A
N346   O348    1.298   .     A
N346   O347    1.300   .     A
N349   O350    1.300   .     A
N349   O351    1.299   .     A
N352   O354    1.302   .     A
N352   O353    1.294   .     A
N357   O358    1.301   .     A
N357   O359    1.302   .     A
N360   O361    1.302   .     A
N360   O362    1.301   .     A
N364   O365    1.301   .     A
N364   C980    1.438   1_554 S
O366   N438    1.301   .     S
N367   O368    1.302   .     A
N367   O369    1.302   .     A
O371   Zn377   2.003   .     S
O371   C373    1.299   .     A
O372   C373    1.283   .     A
O372   Zn378   1.987   .     S
C373   C405    1.439   .     S
O374   C376    1.312   .     A
O374   Zn377   1.995   .     S
O375   Zn378   1.953   .     S
O375   C376    1.299   .     A
C376   C398    1.497   .     S
Zn377  N408    2.018   .     S
Zn377  O381    1.953   .     S
Zn377  O379    1.987   .     S
Zn378  O382    1.995   .     S
Zn378  N412    2.018   .     S
Zn378  O380    2.003   .     S
O379   C383    1.294   .     A
O380   C383    1.293   .     A
O381   C384    1.287   .     A
O382   C384    1.292   .     A
C383   C401    1.449   .     S
C384   C386    1.437   .     S
C385   F430    1.358   .     S
C385   C397    1.388   .     A
C385   C1059   1.399   1_554 S
C386   C397    1.406   .     A
C386   C396    1.404   .     A
C387   C388    1.412   .     A
C387   N434    1.434   .     S
C387   C398    1.429   .     A
C388   C1055   1.393   .     S
C388   N1104   1.438   .     S
C389   F437    1.359   .     S
C389   C1054   1.393   1_554 S
C389   C1056   1.405   1_554 S
C390   C391    1.410   .     A
C390   C1055   1.405   .     S
C390   C1058   1.411   .     S
C391   C395    1.427   .     A
C391   C398    1.432   .     A
C392   C396    1.404   .     A
C392   C1056   1.411   1_554 S
C392   C1059   1.415   1_554 S
C393   C394    1.396   .     A
C393   C1051   1.399   .     S
C393   C1058   1.415   .     S
C394   C395    1.399   .     A
C394   F429    1.359   .     S
C395   N441    1.434   .     S
C396   N431    1.452   .     S
C397   F413    1.356   .     S
C399   C405    1.406   .     A
C399   F444    1.359   .     S
C399   C622    1.381   .     S
C400   N414    1.440   .     S
C400   C401    1.409   .     A
C401   C402    1.409   .     A
C402   N417    1.441   .     S
C403   H404    1.076   .     S
C403   C405    1.393   .     A
C403   C624    1.383   .     S
C406   N420    1.426   .     S
C406   N412    1.369   .     A
C406   C259    1.425   1_655 S
C407   N408    1.373   .     A
C407   N423    1.430   .     S
N408   C409    1.388   .     A
C409   N426    1.433   .     S
C410   N412    1.351   .     A
C410   H411    1.081   .     S
C410   C261    1.414   1_655 S
N414   O416    1.301   .     A
N414   O415    1.299   .     A
N417   O418    1.301   .     A
N417   O419    1.301   .     A
N420   O422    1.298   .     A
N420   O421    1.300   .     A
N423   O424    1.300   .     A
N423   O425    1.299   .     A
N426   O428    1.302   .     A
N426   O427    1.294   .     A
N431   O432    1.301   .     A
N431   O433    1.302   .     A
N434   O435    1.302   .     A
N434   O436    1.301   .     A
N438   O439    1.301   .     A
N438   C1054   1.438   1_554 S
O440   N290    1.301   1_655 S
N441   O442    1.302   .     A
N441   O443    1.302   .     A
O445   Zn451   2.003   .     S
O445   C447    1.299   .     A
O446   C447    1.283   .     A
O446   Zn452   1.987   .     S
C447   C479    1.439   .     S
O448   C450    1.312   .     A
O448   Zn451   1.995   .     S
O449   Zn452   1.953   .     S
O449   C450    1.299   .     A
C450   C472    1.497   .     S
Zn451  N482    2.018   .     S
Zn451  O455    1.953   .     S
Zn451  O453    1.987   .     S
Zn452  O456    1.995   .     S
Zn452  N486    2.018   .     S
Zn452  O454    2.003   .     S
O453   C457    1.294   .     A
O454   C457    1.293   .     A
O455   C458    1.287   .     A
O456   C458    1.292   .     A
C457   C475    1.449   .     S
C458   C460    1.437   .     S
C459   F504    1.358   .     S
C459   C471    1.388   .     A
C459   C1133   1.399   1_554 S
C460   C471    1.406   .     A
C460   C470    1.404   .     A
C461   C462    1.412   .     A
C461   N508    1.434   .     S
C461   C472    1.429   .     A
C462   C1129   1.393   .     S
C462   N1178   1.438   .     S
C463   F511    1.359   .     S
C463   C1128   1.393   1_554 S
C463   C1130   1.405   1_554 S
C464   C465    1.410   .     A
C464   C1129   1.405   .     S
C464   C1132   1.411   .     S
C465   C469    1.427   .     A
C465   C472    1.432   .     A
C466   C470    1.404   .     A
C466   C1130   1.411   1_554 S
C466   C1133   1.415   1_554 S
C467   C468    1.396   .     A
C467   C1125   1.399   .     S
C467   C1132   1.415   .     S
C468   C469    1.399   .     A
C468   F503    1.359   .     S
C469   N515    1.434   .     S
C470   N505    1.452   .     S
C471   F487    1.356   .     S
C473   C479    1.406   .     A
C473   F518    1.359   .     S
C473   C30     1.381   1_565 S
C474   N488    1.440   .     S
C474   C475    1.409   .     A
C475   C476    1.409   .     A
C476   N491    1.441   .     S
C477   H478    1.076   .     S
C477   C479    1.393   .     A
C477   C32     1.383   1_565 S
C480   N494    1.426   .     S
C480   N486    1.369   .     A
C480   C555    1.425   .     S
C481   N482    1.373   .     A
C481   N497    1.430   .     S
C481   C628    1.425   1_455 S
N482   C483    1.388   .     A
C483   N500    1.433   .     S
C483   C632    1.414   1_455 S
C484   N486    1.351   .     A
C484   H485    1.081   .     S
C484   C557    1.414   .     S
N488   O490    1.301   .     A
N488   O489    1.299   .     A
N491   O492    1.301   .     A
N491   O493    1.301   .     A
N494   O496    1.298   .     A
N494   O495    1.300   .     A
N497   O498    1.300   .     A
N497   O499    1.299   .     A
N500   O502    1.302   .     A
N500   O501    1.294   .     A
N505   O506    1.301   .     A
N505   O507    1.302   .     A
N508   O509    1.302   .     A
N508   O510    1.301   .     A
N512   O513    1.301   .     A
N512   C1128   1.438   1_554 S
N512   O662    1.301   1_455 S
O514   N586    1.301   .     S
N515   O516    1.302   .     A
N515   O517    1.302   .     A
O519   Zn525   2.003   .     S
O519   C521    1.299   .     A
O520   C521    1.283   .     A
O520   Zn526   1.987   .     S
C521   C553    1.439   .     S
O522   C524    1.312   .     A
O522   Zn525   1.995   .     S
O523   Zn526   1.953   .     S
O523   C524    1.299   .     A
C524   C546    1.497   .     S
Zn525  N556    2.018   .     S
Zn525  O529    1.953   .     S
Zn525  O527    1.987   .     S
Zn526  O530    1.995   .     S
Zn526  N560    2.018   .     S
Zn526  O528    2.003   .     S
O527   C531    1.294   .     A
O528   C531    1.293   .     A
O529   C532    1.287   .     A
O530   C532    1.292   .     A
C531   C549    1.449   .     S
C532   C534    1.437   .     S
C533   F578    1.358   .     S
C533   C545    1.388   .     A
C533   C1207   1.399   1_554 S
C534   C545    1.406   .     A
C534   C544    1.404   .     A
C535   C536    1.412   .     A
C535   N582    1.434   .     S
C535   C546    1.429   .     A
C536   C1203   1.393   .     S
C536   N1252   1.438   .     S
C537   F585    1.359   .     S
C537   C1202   1.393   1_554 S
C537   C1204   1.405   1_554 S
C538   C539    1.410   .     A
C538   C1203   1.405   .     S
C538   C1206   1.411   .     S
C539   C543    1.427   .     A
C539   C546    1.432   .     A
C540   C544    1.404   .     A
C540   C1204   1.411   1_554 S
C540   C1207   1.415   1_554 S
C541   C542    1.396   .     A
C541   C1199   1.399   .     S
C541   C1206   1.415   .     S
C542   C543    1.399   .     A
C542   F577    1.359   .     S
C543   N589    1.434   .     S
C544   N579    1.452   .     S
C545   F561    1.356   .     S
C547   C553    1.406   .     A
C547   F592    1.359   .     S
C547   C104    1.381   1_565 S
C548   N562    1.440   .     S
C548   C549    1.409   .     A
C549   C550    1.409   .     A
C550   N565    1.441   .     S
C551   H552    1.076   .     S
C551   C553    1.393   .     A
C551   C106    1.383   1_565 S
C554   N568    1.426   .     S
C554   N560    1.369   .     A
C554   C629    1.425   .     S
C555   N556    1.373   .     A
C555   N571    1.430   .     S
N556   C557    1.388   .     A
C557   N574    1.433   .     S
C558   N560    1.351   .     A
C558   H559    1.081   .     S
C558   C631    1.414   .     S
N562   O564    1.301   .     A
N562   O563    1.299   .     A
N565   O566    1.301   .     A
N565   O567    1.301   .     A
N568   O570    1.298   .     A
N568   O569    1.300   .     A
N571   O572    1.300   .     A
N571   O573    1.299   .     A
N574   O576    1.302   .     A
N574   O575    1.294   .     A
N579   O580    1.301   .     A
N579   O581    1.302   .     A
N582   O583    1.302   .     A
N582   O584    1.301   .     A
N586   O587    1.301   .     A
N586   C1202   1.438   1_554 S
O588   N660    1.301   .     S
N589   O590    1.302   .     A
N589   O591    1.302   .     A
O593   Zn599   2.003   .     S
O593   C595    1.299   .     A
O594   C595    1.283   .     A
O594   Zn600   1.987   .     S
C595   C627    1.439   .     S
O596   C598    1.312   .     A
O596   Zn599   1.995   .     S
O597   Zn600   1.953   .     S
O597   C598    1.299   .     A
C598   C620    1.497   .     S
Zn599  N630    2.018   .     S
Zn599  O603    1.953   .     S
Zn599  O601    1.987   .     S
Zn600  O604    1.995   .     S
Zn600  N634    2.018   .     S
Zn600  O602    2.003   .     S
O601   C605    1.294   .     A
O602   C605    1.293   .     A
O603   C606    1.287   .     A
O604   C606    1.292   .     A
C605   C623    1.449   .     S
C606   C608    1.437   .     S
C607   F652    1.358   .     S
C607   C619    1.388   .     A
C607   C1281   1.399   1_554 S
C608   C619    1.406   .     A
C608   C618    1.404   .     A
C609   C610    1.412   .     A
C609   N656    1.434   .     S
C609   C620    1.429   .     A
C610   C1277   1.393   .     S
C610   N1326   1.438   .     S
C611   F659    1.359   .     S
C611   C1276   1.393   1_554 S
C611   C1278   1.405   1_554 S
C612   C613    1.410   .     A
C612   C1277   1.405   .     S
C612   C1280   1.411   .     S
C613   C617    1.427   .     A
C613   C620    1.432   .     A
C614   C618    1.404   .     A
C614   C1278   1.411   1_554 S
C614   C1281   1.415   1_554 S
C615   C616    1.396   .     A
C615   C1273   1.399   .     S
C615   C1280   1.415   .     S
C616   C617    1.399   .     A
C616   F651    1.359   .     S
C617   N663    1.434   .     S
C618   N653    1.452   .     S
C619   F635    1.356   .     S
C621   C627    1.406   .     A
C621   F666    1.359   .     S
C621   C178    1.381   1_565 S
C622   N636    1.440   .     S
C622   C623    1.409   .     A
C623   C624    1.409   .     A
C624   N639    1.441   .     S
C625   H626    1.076   .     S
C625   C627    1.393   .     A
C625   C180    1.383   1_565 S
C628   N642    1.426   .     S
C628   N634    1.369   .     A
C628   C481    1.425   1_655 S
C629   N630    1.373   .     A
C629   N645    1.430   .     S
N630   C631    1.388   .     A
C631   N648    1.433   .     S
C632   N634    1.351   .     A
C632   H633    1.081   .     S
C632   C483    1.414   1_655 S
N636   O638    1.301   .     A
N636   O637    1.299   .     A
N639   O640    1.301   .     A
N639   O641    1.301   .     A
N642   O644    1.298   .     A
N642   O643    1.300   .     A
N645   O646    1.300   .     A
N645   O647    1.299   .     A
N648   O650    1.302   .     A
N648   O649    1.294   .     A
N653   O654    1.301   .     A
N653   O655    1.302   .     A
N656   O657    1.302   .     A
N656   O658    1.301   .     A
N660   O661    1.301   .     A
N660   C1276   1.438   1_554 S
O662   N512    1.301   1_655 S
N663   O664    1.302   .     A
N663   O665    1.302   .     A
O667   Zn673   2.003   .     S
O667   C669    1.299   .     A
O668   C669    1.283   .     A
O668   Zn674   1.987   .     S
C669   C701    1.439   .     S
O670   C672    1.312   .     A
O670   Zn673   1.995   .     S
O671   Zn674   1.953   .     S
O671   C672    1.299   .     A
C672   C694    1.497   .     S
Zn673  N704    2.018   .     S
Zn673  O677    1.953   .     S
Zn673  O675    1.987   .     S
Zn674  O678    1.995   .     S
Zn674  N708    2.018   .     S
Zn674  O676    2.003   .     S
O675   C679    1.294   .     A
O676   C679    1.293   .     A
O677   C680    1.287   .     A
O678   C680    1.292   .     A
C679   C697    1.449   .     S
C680   C682    1.437   .     S
C681   F726    1.358   .     S
C681   C693    1.388   .     A
C682   C693    1.406   .     A
C682   C692    1.404   .     A
C683   C684    1.412   .     A
C683   N730    1.434   .     S
C683   C694    1.429   .     A
C684   C19     1.393   1_556 S
C684   N68     1.438   1_556 S
C685   F733    1.359   .     S
C686   C687    1.410   .     A
C686   C19     1.405   1_556 S
C686   C22     1.411   1_556 S
C687   C691    1.427   .     A
C687   C694    1.432   .     A
C688   C692    1.404   .     A
C689   C690    1.396   .     A
C689   C15     1.399   1_556 S
C689   C22     1.415   1_556 S
C690   C691    1.399   .     A
C690   F725    1.359   .     S
C691   N737    1.434   .     S
C692   N727    1.452   .     S
C693   F709    1.356   .     S
C695   C701    1.406   .     A
C695   F740    1.359   .     S
C695   C918    1.381   .     S
C696   N710    1.440   .     S
C696   C697    1.409   .     A
C696   C1139   1.381   1_545 S
C697   C698    1.409   .     A
C698   N713    1.441   .     S
C698   C1143   1.383   1_545 S
C699   H700    1.076   .     S
C699   C701    1.393   .     A
C699   C920    1.383   .     S
C702   N716    1.426   .     S
C702   N708    1.369   .     A
C702   C777    1.425   .     S
C703   N704    1.373   .     A
C703   N719    1.430   .     S
C703   C850    1.425   1_455 S
N704   C705    1.388   .     A
C705   N722    1.433   .     S
C705   C854    1.414   1_455 S
C706   N708    1.351   .     A
C706   H707    1.081   .     S
C706   C779    1.414   .     S
N710   O712    1.301   .     A
N710   O711    1.299   .     A
N713   O714    1.301   .     A
N713   O715    1.301   .     A
N716   O718    1.298   .     A
N716   O717    1.300   .     A
N719   O720    1.300   .     A
N719   O721    1.299   .     A
N722   O724    1.302   .     A
N722   O723    1.294   .     A
N727   O728    1.301   .     A
N727   O729    1.302   .     A
N730   O731    1.302   .     A
N730   O732    1.301   .     A
N734   O735    1.301   .     A
N734   O884    1.301   1_455 S
O736   N808    1.301   .     S
N737   O738    1.302   .     A
N737   O739    1.302   .     A
O741   Zn747   2.003   .     S
O741   C743    1.299   .     A
O742   C743    1.283   .     A
O742   Zn748   1.987   .     S
C743   C775    1.439   .     S
O744   C746    1.312   .     A
O744   Zn747   1.995   .     S
O745   Zn748   1.953   .     S
O745   C746    1.299   .     A
C746   C768    1.497   .     S
Zn747  N778    2.018   .     S
Zn747  O751    1.953   .     S
Zn747  O749    1.987   .     S
Zn748  O752    1.995   .     S
Zn748  N782    2.018   .     S
Zn748  O750    2.003   .     S
O749   C753    1.294   .     A
O750   C753    1.293   .     A
O751   C754    1.287   .     A
O752   C754    1.292   .     A
C753   C771    1.449   .     S
C754   C756    1.437   .     S
C755   F800    1.358   .     S
C755   C767    1.388   .     A
C756   C767    1.406   .     A
C756   C766    1.404   .     A
C757   C758    1.412   .     A
C757   N804    1.434   .     S
C757   C768    1.429   .     A
C758   C93     1.393   1_556 S
C758   N142    1.438   1_556 S
C759   F807    1.359   .     S
C760   C761    1.410   .     A
C760   C93     1.405   1_556 S
C760   C96     1.411   1_556 S
C761   C765    1.427   .     A
C761   C768    1.432   .     A
C762   C766    1.404   .     A
C763   C764    1.396   .     A
C763   C89     1.399   1_556 S
C763   C96     1.415   1_556 S
C764   C765    1.399   .     A
C764   F799    1.359   .     S
C765   N811    1.434   .     S
C766   N801    1.452   .     S
C767   F783    1.356   .     S
C769   C775    1.406   .     A
C769   F814    1.359   .     S
C769   C992    1.381   .     S
C770   N784    1.440   .     S
C770   C771    1.409   .     A
C770   C1213   1.381   1_545 S
C771   C772    1.409   .     A
C772   N787    1.441   .     S
C772   C1217   1.383   1_545 S
C773   H774    1.076   .     S
C773   C775    1.393   .     A
C773   C994    1.383   .     S
C776   N790    1.426   .     S
C776   N782    1.369   .     A
C776   C851    1.425   .     S
C777   N778    1.373   .     A
C777   N793    1.430   .     S
N778   C779    1.388   .     A
C779   N796    1.433   .     S
C780   N782    1.351   .     A
C780   H781    1.081   .     S
C780   C853    1.414   .     S
N784   O786    1.301   .     A
N784   O785    1.299   .     A
N787   O788    1.301   .     A
N787   O789    1.301   .     A
N790   O792    1.298   .     A
N790   O791    1.300   .     A
N793   O794    1.300   .     A
N793   O795    1.299   .     A
N796   O798    1.302   .     A
N796   O797    1.294   .     A
N801   O802    1.301   .     A
N801   O803    1.302   .     A
N804   O805    1.302   .     A
N804   O806    1.301   .     A
N808   O809    1.301   .     A
O810   N882    1.301   .     S
N811   O812    1.302   .     A
N811   O813    1.302   .     A
O815   Zn821   2.003   .     S
O815   C817    1.299   .     A
O816   C817    1.283   .     A
O816   Zn822   1.987   .     S
C817   C849    1.439   .     S
O818   C820    1.312   .     A
O818   Zn821   1.995   .     S
O819   Zn822   1.953   .     S
O819   C820    1.299   .     A
C820   C842    1.497   .     S
Zn821  N852    2.018   .     S
Zn821  O825    1.953   .     S
Zn821  O823    1.987   .     S
Zn822  O826    1.995   .     S
Zn822  N856    2.018   .     S
Zn822  O824    2.003   .     S
O823   C827    1.294   .     A
O824   C827    1.293   .     A
O825   C828    1.287   .     A
O826   C828    1.292   .     A
C827   C845    1.449   .     S
C828   C830    1.437   .     S
C829   F874    1.358   .     S
C829   C841    1.388   .     A
C830   C841    1.406   .     A
C830   C840    1.404   .     A
C831   C832    1.412   .     A
C831   N878    1.434   .     S
C831   C842    1.429   .     A
C832   C167    1.393   1_556 S
C832   N216    1.438   1_556 S
C833   F881    1.359   .     S
C834   C835    1.410   .     A
C834   C167    1.405   1_556 S
C834   C170    1.411   1_556 S
C835   C839    1.427   .     A
C835   C842    1.432   .     A
C836   C840    1.404   .     A
C837   C838    1.396   .     A
C837   C163    1.399   1_556 S
C837   C170    1.415   1_556 S
C838   C839    1.399   .     A
C838   F873    1.359   .     S
C839   N885    1.434   .     S
C840   N875    1.452   .     S
C841   F857    1.356   .     S
C843   C849    1.406   .     A
C843   F888    1.359   .     S
C843   C1066   1.381   .     S
C844   N858    1.440   .     S
C844   C845    1.409   .     A
C844   C1287   1.381   1_545 S
C845   C846    1.409   .     A
C846   N861    1.441   .     S
C846   C1291   1.383   1_545 S
C847   H848    1.076   .     S
C847   C849    1.393   .     A
C847   C1068   1.383   .     S
C850   N864    1.426   .     S
C850   N856    1.369   .     A
C850   C703    1.425   1_655 S
C851   N852    1.373   .     A
C851   N867    1.430   .     S
N852   C853    1.388   .     A
C853   N870    1.433   .     S
C854   N856    1.351   .     A
C854   H855    1.081   .     S
C854   C705    1.414   1_655 S
N858   O860    1.301   .     A
N858   O859    1.299   .     A
N861   O862    1.301   .     A
N861   O863    1.301   .     A
N864   O866    1.298   .     A
N864   O865    1.300   .     A
N867   O868    1.300   .     A
N867   O869    1.299   .     A
N870   O872    1.302   .     A
N870   O871    1.294   .     A
N875   O876    1.301   .     A
N875   O877    1.302   .     A
N878   O879    1.302   .     A
N878   O880    1.301   .     A
N882   O883    1.301   .     A
O884   N734    1.301   1_655 S
N885   O886    1.302   .     A
N885   O887    1.302   .     A
O889   Zn895   2.003   .     S
O889   C891    1.299   .     A
O890   C891    1.283   .     A
O890   Zn896   1.987   .     S
C891   C923    1.439   .     S
O892   C894    1.312   .     A
O892   Zn895   1.995   .     S
O893   Zn896   1.953   .     S
O893   C894    1.299   .     A
C894   C916    1.497   .     S
Zn895  N926    2.018   .     S
Zn895  O899    1.953   .     S
Zn895  O897    1.987   .     S
Zn896  O900    1.995   .     S
Zn896  N930    2.018   .     S
Zn896  O898    2.003   .     S
O897   C901    1.294   .     A
O898   C901    1.293   .     A
O899   C902    1.287   .     A
O900   C902    1.292   .     A
C901   C919    1.449   .     S
C902   C904    1.437   .     S
C903   F948    1.358   .     S
C903   C915    1.388   .     A
C904   C915    1.406   .     A
C904   C914    1.404   .     A
C905   C906    1.412   .     A
C905   N952    1.434   .     S
C905   C916    1.429   .     A
C906   C241    1.393   1_556 S
C906   N290    1.438   1_556 S
C907   F955    1.359   .     S
C908   C909    1.410   .     A
C908   C241    1.405   1_556 S
C908   C244    1.411   1_556 S
C909   C913    1.427   .     A
C909   C916    1.432   .     A
C910   C914    1.404   .     A
C911   C912    1.396   .     A
C911   C237    1.399   1_556 S
C911   C244    1.415   1_556 S
C912   C913    1.399   .     A
C912   F947    1.359   .     S
C913   N959    1.434   .     S
C914   N949    1.452   .     S
C915   F931    1.356   .     S
C917   C923    1.406   .     A
C917   F962    1.359   .     S
C917   C1140   1.381   .     S
C918   N932    1.440   .     S
C918   C919    1.409   .     A
C919   C920    1.409   .     A
C920   N935    1.441   .     S
C921   H922    1.076   .     S
C921   C923    1.393   .     A
C921   C1142   1.383   .     S
C924   N938    1.426   .     S
C924   N930    1.369   .     A
C924   C999    1.425   .     S
C925   N926    1.373   .     A
C925   N941    1.430   .     S
C925   C1072   1.425   1_455 S
N926   C927    1.388   .     A
C927   N944    1.433   .     S
C927   C1076   1.414   1_455 S
C928   N930    1.351   .     A
C928   H929    1.081   .     S
C928   C1001   1.414   .     S
N932   O934    1.301   .     A
N932   O933    1.299   .     A
N935   O936    1.301   .     A
N935   O937    1.301   .     A
N938   O940    1.298   .     A
N938   O939    1.300   .     A
N941   O942    1.300   .     A
N941   O943    1.299   .     A
N944   O946    1.302   .     A
N944   O945    1.294   .     A
N949   O950    1.301   .     A
N949   O951    1.302   .     A
N952   O953    1.302   .     A
N952   O954    1.301   .     A
N956   O957    1.301   .     A
N956   O1106   1.301   1_455 S
O958   N1030   1.301   .     S
N959   O960    1.302   .     A
N959   O961    1.302   .     A
O963   Zn969   2.003   .     S
O963   C965    1.299   .     A
O964   C965    1.283   .     A
O964   Zn970   1.987   .     S
C965   C997    1.439   .     S
O966   C968    1.312   .     A
O966   Zn969   1.995   .     S
O967   Zn970   1.953   .     S
O967   C968    1.299   .     A
C968   C990    1.497   .     S
Zn969  N1000   2.018   .     S
Zn969  O973    1.953   .     S
Zn969  O971    1.987   .     S
Zn970  O974    1.995   .     S
Zn970  N1004   2.018   .     S
Zn970  O972    2.003   .     S
O971   C975    1.294   .     A
O972   C975    1.293   .     A
O973   C976    1.287   .     A
O974   C976    1.292   .     A
C975   C993    1.449   .     S
C976   C978    1.437   .     S
C977   F1022   1.358   .     S
C977   C989    1.388   .     A
C978   C989    1.406   .     A
C978   C988    1.404   .     A
C979   C980    1.412   .     A
C979   N1026   1.434   .     S
C979   C990    1.429   .     A
C980   C315    1.393   1_556 S
C980   N364    1.438   1_556 S
C981   F1029   1.359   .     S
C982   C983    1.410   .     A
C982   C315    1.405   1_556 S
C982   C318    1.411   1_556 S
C983   C987    1.427   .     A
C983   C990    1.432   .     A
C984   C988    1.404   .     A
C985   C986    1.396   .     A
C985   C311    1.399   1_556 S
C985   C318    1.415   1_556 S
C986   C987    1.399   .     A
C986   F1021   1.359   .     S
C987   N1033   1.434   .     S
C988   N1023   1.452   .     S
C989   F1005   1.356   .     S
C991   C997    1.406   .     A
C991   F1036   1.359   .     S
C991   C1214   1.381   .     S
C992   N1006   1.440   .     S
C992   C993    1.409   .     A
C993   C994    1.409   .     A
C994   N1009   1.441   .     S
C995   H996    1.076   .     S
C995   C997    1.393   .     A
C995   C1216   1.383   .     S
C998   N1012   1.426   .     S
C998   N1004   1.369   .     A
C998   C1073   1.425   .     S
C999   N1000   1.373   .     A
C999   N1015   1.430   .     S
N1000  C1001   1.388   .     A
C1001  N1018   1.433   .     S
C1002  N1004   1.351   .     A
C1002  H1003   1.081   .     S
C1002  C1075   1.414   .     S
N1006  O1008   1.301   .     A
N1006  O1007   1.299   .     A
N1009  O1010   1.301   .     A
N1009  O1011   1.301   .     A
N1012  O1014   1.298   .     A
N1012  O1013   1.300   .     A
N1015  O1016   1.300   .     A
N1015  O1017   1.299   .     A
N1018  O1020   1.302   .     A
N1018  O1019   1.294   .     A
N1023  O1024   1.301   .     A
N1023  O1025   1.302   .     A
N1026  O1027   1.302   .     A
N1026  O1028   1.301   .     A
N1030  O1031   1.301   .     A
O1032  N1104   1.301   .     S
N1033  O1034   1.302   .     A
N1033  O1035   1.302   .     A
O1037  Zn1043  2.003   .     S
O1037  C1039   1.299   .     A
O1038  C1039   1.283   .     A
O1038  Zn1044  1.987   .     S
C1039  C1071   1.439   .     S
O1040  C1042   1.312   .     A
O1040  Zn1043  1.995   .     S
O1041  Zn1044  1.953   .     S
O1041  C1042   1.299   .     A
C1042  C1064   1.497   .     S
Zn1043 N1074   2.018   .     S
Zn1043 O1047   1.953   .     S
Zn1043 O1045   1.987   .     S
Zn1044 O1048   1.995   .     S
Zn1044 N1078   2.018   .     S
Zn1044 O1046   2.003   .     S
O1045  C1049   1.294   .     A
O1046  C1049   1.293   .     A
O1047  C1050   1.287   .     A
O1048  C1050   1.292   .     A
C1049  C1067   1.449   .     S
C1050  C1052   1.437   .     S
C1051  F1096   1.358   .     S
C1051  C1063   1.388   .     A
C1052  C1063   1.406   .     A
C1052  C1062   1.404   .     A
C1053  C1054   1.412   .     A
C1053  N1100   1.434   .     S
C1053  C1064   1.429   .     A
C1054  C389    1.393   1_556 S
C1054  N438    1.438   1_556 S
C1055  F1103   1.359   .     S
C1056  C1057   1.410   .     A
C1056  C389    1.405   1_556 S
C1056  C392    1.411   1_556 S
C1057  C1061   1.427   .     A
C1057  C1064   1.432   .     A
C1058  C1062   1.404   .     A
C1059  C1060   1.396   .     A
C1059  C385    1.399   1_556 S
C1059  C392    1.415   1_556 S
C1060  C1061   1.399   .     A
C1060  F1095   1.359   .     S
C1061  N1107   1.434   .     S
C1062  N1097   1.452   .     S
C1063  F1079   1.356   .     S
C1065  C1071   1.406   .     A
C1065  F1110   1.359   .     S
C1065  C1288   1.381   .     S
C1066  N1080   1.440   .     S
C1066  C1067   1.409   .     A
C1067  C1068   1.409   .     A
C1068  N1083   1.441   .     S
C1069  H1070   1.076   .     S
C1069  C1071   1.393   .     A
C1069  C1290   1.383   .     S
C1072  N1086   1.426   .     S
C1072  N1078   1.369   .     A
C1072  C925    1.425   1_655 S
C1073  N1074   1.373   .     A
C1073  N1089   1.430   .     S
N1074  C1075   1.388   .     A
C1075  N1092   1.433   .     S
C1076  N1078   1.351   .     A
C1076  H1077   1.081   .     S
C1076  C927    1.414   1_655 S
N1080  O1082   1.301   .     A
N1080  O1081   1.299   .     A
N1083  O1084   1.301   .     A
N1083  O1085   1.301   .     A
N1086  O1088   1.298   .     A
N1086  O1087   1.300   .     A
N1089  O1090   1.300   .     A
N1089  O1091   1.299   .     A
N1092  O1094   1.302   .     A
N1092  O1093   1.294   .     A
N1097  O1098   1.301   .     A
N1097  O1099   1.302   .     A
N1100  O1101   1.302   .     A
N1100  O1102   1.301   .     A
N1104  O1105   1.301   .     A
O1106  N956    1.301   1_655 S
N1107  O1108   1.302   .     A
N1107  O1109   1.302   .     A
O1111  Zn1117  2.003   .     S
O1111  C1113   1.299   .     A
O1112  C1113   1.283   .     A
O1112  Zn1118  1.987   .     S
C1113  C1145   1.439   .     S
O1114  C1116   1.312   .     A
O1114  Zn1117  1.995   .     S
O1115  Zn1118  1.953   .     S
O1115  C1116   1.299   .     A
C1116  C1138   1.497   .     S
Zn1117 N1148   2.018   .     S
Zn1117 O1121   1.953   .     S
Zn1117 O1119   1.987   .     S
Zn1118 O1122   1.995   .     S
Zn1118 N1152   2.018   .     S
Zn1118 O1120   2.003   .     S
O1119  C1123   1.294   .     A
O1120  C1123   1.293   .     A
O1121  C1124   1.287   .     A
O1122  C1124   1.292   .     A
C1123  C1141   1.449   .     S
C1124  C1126   1.437   .     S
C1125  F1170   1.358   .     S
C1125  C1137   1.388   .     A
C1126  C1137   1.406   .     A
C1126  C1136   1.404   .     A
C1127  C1128   1.412   .     A
C1127  N1174   1.434   .     S
C1127  C1138   1.429   .     A
C1128  C463    1.393   1_556 S
C1128  N512    1.438   1_556 S
C1129  F1177   1.359   .     S
C1130  C1131   1.410   .     A
C1130  C463    1.405   1_556 S
C1130  C466    1.411   1_556 S
C1131  C1135   1.427   .     A
C1131  C1138   1.432   .     A
C1132  C1136   1.404   .     A
C1133  C1134   1.396   .     A
C1133  C459    1.399   1_556 S
C1133  C466    1.415   1_556 S
C1134  C1135   1.399   .     A
C1134  F1169   1.359   .     S
C1135  N1181   1.434   .     S
C1136  N1171   1.452   .     S
C1137  F1153   1.356   .     S
C1139  C1145   1.406   .     A
C1139  F1184   1.359   .     S
C1139  C696    1.381   1_565 S
C1140  N1154   1.440   .     S
C1140  C1141   1.409   .     A
C1141  C1142   1.409   .     A
C1142  N1157   1.441   .     S
C1143  H1144   1.076   .     S
C1143  C1145   1.393   .     A
C1143  C698    1.383   1_565 S
C1146  N1160   1.426   .     S
C1146  N1152   1.369   .     A
C1146  C1221   1.425   .     S
C1147  N1148   1.373   .     A
C1147  N1163   1.430   .     S
C1147  C1294   1.425   1_455 S
N1148  C1149   1.388   .     A
C1149  N1166   1.433   .     S
C1149  C1298   1.414   1_455 S
C1150  N1152   1.351   .     A
C1150  H1151   1.081   .     S
C1150  C1223   1.414   .     S
N1154  O1156   1.301   .     A
N1154  O1155   1.299   .     A
N1157  O1158   1.301   .     A
N1157  O1159   1.301   .     A
N1160  O1162   1.298   .     A
N1160  O1161   1.300   .     A
N1163  O1164   1.300   .     A
N1163  O1165   1.299   .     A
N1166  O1168   1.302   .     A
N1166  O1167   1.294   .     A
N1171  O1172   1.301   .     A
N1171  O1173   1.302   .     A
N1174  O1175   1.302   .     A
N1174  O1176   1.301   .     A
N1178  O1179   1.301   .     A
N1178  O1328   1.301   1_455 S
O1180  N1252   1.301   .     S
N1181  O1182   1.302   .     A
N1181  O1183   1.302   .     A
O1185  Zn1191  2.003   .     S
O1185  C1187   1.299   .     A
O1186  C1187   1.283   .     A
O1186  Zn1192  1.987   .     S
C1187  C1219   1.439   .     S
O1188  C1190   1.312   .     A
O1188  Zn1191  1.995   .     S
O1189  Zn1192  1.953   .     S
O1189  C1190   1.299   .     A
C1190  C1212   1.497   .     S
Zn1191 N1222   2.018   .     S
Zn1191 O1195   1.953   .     S
Zn1191 O1193   1.987   .     S
Zn1192 O1196   1.995   .     S
Zn1192 N1226   2.018   .     S
Zn1192 O1194   2.003   .     S
O1193  C1197   1.294   .     A
O1194  C1197   1.293   .     A
O1195  C1198   1.287   .     A
O1196  C1198   1.292   .     A
C1197  C1215   1.449   .     S
C1198  C1200   1.437   .     S
C1199  F1244   1.358   .     S
C1199  C1211   1.388   .     A
C1200  C1211   1.406   .     A
C1200  C1210   1.404   .     A
C1201  C1202   1.412   .     A
C1201  N1248   1.434   .     S
C1201  C1212   1.429   .     A
C1202  C537    1.393   1_556 S
C1202  N586    1.438   1_556 S
C1203  F1251   1.359   .     S
C1204  C1205   1.410   .     A
C1204  C537    1.405   1_556 S
C1204  C540    1.411   1_556 S
C1205  C1209   1.427   .     A
C1205  C1212   1.432   .     A
C1206  C1210   1.404   .     A
C1207  C1208   1.396   .     A
C1207  C533    1.399   1_556 S
C1207  C540    1.415   1_556 S
C1208  C1209   1.399   .     A
C1208  F1243   1.359   .     S
C1209  N1255   1.434   .     S
C1210  N1245   1.452   .     S
C1211  F1227   1.356   .     S
C1213  C1219   1.406   .     A
C1213  F1258   1.359   .     S
C1213  C770    1.381   1_565 S
C1214  N1228   1.440   .     S
C1214  C1215   1.409   .     A
C1215  C1216   1.409   .     A
C1216  N1231   1.441   .     S
C1217  H1218   1.076   .     S
C1217  C1219   1.393   .     A
C1217  C772    1.383   1_565 S
C1220  N1234   1.426   .     S
C1220  N1226   1.369   .     A
C1220  C1295   1.425   .     S
C1221  N1222   1.373   .     A
C1221  N1237   1.430   .     S
N1222  C1223   1.388   .     A
C1223  N1240   1.433   .     S
C1224  N1226   1.351   .     A
C1224  H1225   1.081   .     S
C1224  C1297   1.414   .     S
N1228  O1230   1.301   .     A
N1228  O1229   1.299   .     A
N1231  O1232   1.301   .     A
N1231  O1233   1.301   .     A
N1234  O1236   1.298   .     A
N1234  O1235   1.300   .     A
N1237  O1238   1.300   .     A
N1237  O1239   1.299   .     A
N1240  O1242   1.302   .     A
N1240  O1241   1.294   .     A
N1245  O1246   1.301   .     A
N1245  O1247   1.302   .     A
N1248  O1249   1.302   .     A
N1248  O1250   1.301   .     A
N1252  O1253   1.301   .     A
O1254  N1326   1.301   .     S
N1255  O1256   1.302   .     A
N1255  O1257   1.302   .     A
O1259  Zn1265  2.003   .     S
O1259  C1261   1.299   .     A
O1260  C1261   1.283   .     A
O1260  Zn1266  1.987   .     S
C1261  C1293   1.439   .     S
O1262  C1264   1.312   .     A
O1262  Zn1265  1.995   .     S
O1263  Zn1266  1.953   .     S
O1263  C1264   1.299   .     A
C1264  C1286   1.497   .     S
Zn1265 N1296   2.018   .     S
Zn1265 O1269   1.953   .     S
Zn1265 O1267   1.987   .     S
Zn1266 O1270   1.995   .     S
Zn1266 N1300   2.018   .     S
Zn1266 O1268   2.003   .     S
O1267  C1271   1.294   .     A
O1268  C1271   1.293   .     A
O1269  C1272   1.287   .     A
O1270  C1272   1.292   .     A
C1271  C1289   1.449   .     S
C1272  C1274   1.437   .     S
C1273  F1318   1.358   .     S
C1273  C1285   1.388   .     A
C1274  C1285   1.406   .     A
C1274  C1284   1.404   .     A
C1275  C1276   1.412   .     A
C1275  N1322   1.434   .     S
C1275  C1286   1.429   .     A
C1276  C611    1.393   1_556 S
C1276  N660    1.438   1_556 S
C1277  F1325   1.359   .     S
C1278  C1279   1.410   .     A
C1278  C611    1.405   1_556 S
C1278  C614    1.411   1_556 S
C1279  C1283   1.427   .     A
C1279  C1286   1.432   .     A
C1280  C1284   1.404   .     A
C1281  C1282   1.396   .     A
C1281  C607    1.399   1_556 S
C1281  C614    1.415   1_556 S
C1282  C1283   1.399   .     A
C1282  F1317   1.359   .     S
C1283  N1329   1.434   .     S
C1284  N1319   1.452   .     S
C1285  F1301   1.356   .     S
C1287  C1293   1.406   .     A
C1287  F1332   1.359   .     S
C1287  C844    1.381   1_565 S
C1288  N1302   1.440   .     S
C1288  C1289   1.409   .     A
C1289  C1290   1.409   .     A
C1290  N1305   1.441   .     S
C1291  H1292   1.076   .     S
C1291  C1293   1.393   .     A
C1291  C846    1.383   1_565 S
C1294  N1308   1.426   .     S
C1294  N1300   1.369   .     A
C1294  C1147   1.425   1_655 S
C1295  N1296   1.373   .     A
C1295  N1311   1.430   .     S
N1296  C1297   1.388   .     A
C1297  N1314   1.433   .     S
C1298  N1300   1.351   .     A
C1298  H1299   1.081   .     S
C1298  C1149   1.414   1_655 S
N1302  O1304   1.301   .     A
N1302  O1303   1.299   .     A
N1305  O1306   1.301   .     A
N1305  O1307   1.301   .     A
N1308  O1310   1.298   .     A
N1308  O1309   1.300   .     A
N1311  O1312   1.300   .     A
N1311  O1313   1.299   .     A
N1314  O1316   1.302   .     A
N1314  O1315   1.294   .     A
N1319  O1320   1.301   .     A
N1319  O1321   1.302   .     A
N1322  O1323   1.302   .     A
N1322  O1324   1.301   .     A
N1326  O1327   1.301   .     A
O1328  N1178   1.301   1_655 S
N1329  O1330   1.302   .     A
N1329  O1331   1.302   .     A
