data_str_m3_o2_o10_pcu_sym.50
_audit_creation_date              2020-01-03
_audit_creation_method            'Materials Studio'
_symmetry_space_group_name_H-M    'P1'
_symmetry_Int_Tables_number       1
_symmetry_cell_setting            triclinic
loop_
_symmetry_equiv_pos_as_xyz
  x,y,z
_cell_length_a                    25.8882
_cell_length_b                    30.0148
_cell_length_c                    28.3316
_cell_angle_alpha                 89.9662
_cell_angle_beta                  98.3923
_cell_angle_gamma                 90.0640
loop_
_atom_site_label
_atom_site_type_symbol
_atom_site_fract_x
_atom_site_fract_y
_atom_site_fract_z
_atom_site_U_iso_or_equiv
_atom_site_adp_type
_atom_site_occupancy
O1     O     0.16667   0.18454   0.28974   0.00000  Uiso   1.00
O2     O     0.16666   0.31547   0.21026   0.00000  Uiso   1.00
O3     O     0.16667   0.18453   0.21026   0.00000  Uiso   1.00
O4     O     0.16666   0.31547   0.28974   0.00000  Uiso   1.00
C5     C     0.16658   0.16388   0.24999   0.00000  Uiso   1.00
C6     C     0.16659   0.33611   0.24998   0.00000  Uiso   1.00
O7     O     0.09058   0.25000   0.28044   0.00000  Uiso   1.00
O8     O     0.24275   0.25000   0.21955   0.00000  Uiso   1.00
O9     O     0.09058   0.25000   0.20096   0.00000  Uiso   1.00
O10    O     0.24275   0.25001   0.29903   0.00000  Uiso   1.00
C11    C     0.06714   0.24985   0.23772   0.00000  Uiso   1.00
C12    C     0.26620   0.25017   0.26228   0.00000  Uiso   1.00
Zn13   Zn    0.16667   0.25001   0.30307   0.00000  Uiso   1.00
Zn14   Zn    0.16667   0.25000   0.19693   0.00000  Uiso   1.00
C15    C     0.01290   0.24278   0.23236   0.00000  Uiso   1.00
C16    C     0.32044   0.25728   0.26762   0.00000  Uiso   1.00
C17    C     0.18316   0.04687   0.29202   0.00000  Uiso   1.00
C18    C     0.18427   0.45308   0.21281   0.00000  Uiso   1.00
H19    H     0.19757   0.02915   0.32461   0.00000  Uiso   1.00
H20    H     0.19956   0.47081   0.18452   0.00000  Uiso   1.00
C21    C     0.18338   0.09286   0.29216   0.00000  Uiso   1.00
C22    C     0.18450   0.40709   0.21277   0.00000  Uiso   1.00
H23    H     0.19768   0.11027   0.32498   0.00000  Uiso   1.00
H24    H     0.19968   0.38966   0.18426   0.00000  Uiso   1.00
C25    C     0.16612   0.11599   0.24993   0.00000  Uiso   1.00
C26    C     0.16611   0.38398   0.24987   0.00000  Uiso   1.00
C27    C     0.14826   0.09315   0.20764   0.00000  Uiso   1.00
C28    C     0.14708   0.40679   0.28678   0.00000  Uiso   1.00
H29    H     0.13433   0.11078   0.17487   0.00000  Uiso   1.00
H30    H     0.13226   0.38913   0.31536   0.00000  Uiso   1.00
C31    C     0.14749   0.04716   0.20764   0.00000  Uiso   1.00
C32    C     0.14630   0.45278   0.28651   0.00000  Uiso   1.00
H33    H     0.13282   0.02966   0.17498   0.00000  Uiso   1.00
H34    H     0.13074   0.47027   0.31477   0.00000  Uiso   1.00
C35    C     0.16512   0.02402   0.24979   0.00000  Uiso   1.00
C36    C     0.16509   0.47592   0.24964   0.00000  Uiso   1.00
C37    C     0.14232   0.21568   0.04940   0.00000  Uiso   1.00
C38    C     0.20833   0.26863   0.45293   0.00000  Uiso   1.00
H39    H     0.12369   0.18799   0.02917   0.00000  Uiso   1.00
H40    H     0.24190   0.28275   0.47514   0.00000  Uiso   1.00
C41    C     0.14262   0.21640   0.09907   0.00000  Uiso   1.00
C42    C     0.20743   0.26844   0.40318   0.00000  Uiso   1.00
H43    H     0.12366   0.18988   0.11594   0.00000  Uiso   1.00
H44    H     0.23958   0.28298   0.38809   0.00000  Uiso   1.00
N45    N     0.16667   0.24999   0.12623   0.00000  Uiso   1.00
N46    N     0.16667   0.25001   0.37376   0.00000  Uiso   1.00
C47    C     0.19079   0.28356   0.10547   0.00000  Uiso   1.00
C48    C     0.12587   0.23163   0.39235   0.00000  Uiso   1.00
H49    H     0.20976   0.31006   0.12739   0.00000  Uiso   1.00
H50    H     0.09367   0.21710   0.36872   0.00000  Uiso   1.00
C51    C     0.19112   0.28429   0.05588   0.00000  Uiso   1.00
C52    C     0.12499   0.23146   0.44185   0.00000  Uiso   1.00
H53    H     0.20976   0.31198   0.04061   0.00000  Uiso   1.00
H54    H     0.09142   0.21736   0.45514   0.00000  Uiso   1.00
C55    C     0.16670   0.25000   0.02670   0.00000  Uiso   1.00
C56    C     0.16667   0.25003   0.47333   0.00000  Uiso   1.00
N57    N     0.32385   0.21242   0.19536   0.00000  Uiso   1.00
O58    O     0.33121   0.21885   0.15139   0.00000  Uiso   1.00
O59    O     0.30227   0.17544   0.20657   0.00000  Uiso   1.00
N60    N     0.00949   0.28771   0.30455   0.00000  Uiso   1.00
O61    O     0.00210   0.28142   0.34851   0.00000  Uiso   1.00
O62    O     0.03117   0.32462   0.29326   0.00000  Uiso   1.00
O63    O     0.50000   0.18454   0.28974   0.00000  Uiso   1.00
O64    O     0.50000   0.31547   0.21026   0.00000  Uiso   1.00
O65    O     0.50000   0.18453   0.21026   0.00000  Uiso   1.00
O66    O     0.50000   0.31547   0.28974   0.00000  Uiso   1.00
C67    C     0.49992   0.16388   0.24999   0.00000  Uiso   1.00
C68    C     0.49992   0.33611   0.24998   0.00000  Uiso   1.00
O69    O     0.42392   0.25000   0.28044   0.00000  Uiso   1.00
O70    O     0.57608   0.25000   0.21955   0.00000  Uiso   1.00
O71    O     0.42392   0.25000   0.20096   0.00000  Uiso   1.00
O72    O     0.57608   0.25001   0.29903   0.00000  Uiso   1.00
C73    C     0.40047   0.24985   0.23772   0.00000  Uiso   1.00
C74    C     0.59953   0.25017   0.26228   0.00000  Uiso   1.00
Zn75   Zn    0.50000   0.25001   0.30307   0.00000  Uiso   1.00
Zn76   Zn    0.50000   0.25000   0.19693   0.00000  Uiso   1.00
C77    C     0.34623   0.24278   0.23236   0.00000  Uiso   1.00
C78    C     0.65378   0.25728   0.26762   0.00000  Uiso   1.00
C79    C     0.51649   0.04687   0.29202   0.00000  Uiso   1.00
C80    C     0.51760   0.45308   0.21281   0.00000  Uiso   1.00
H81    H     0.53090   0.02915   0.32461   0.00000  Uiso   1.00
H82    H     0.53290   0.47081   0.18452   0.00000  Uiso   1.00
C83    C     0.51672   0.09286   0.29216   0.00000  Uiso   1.00
C84    C     0.51783   0.40709   0.21277   0.00000  Uiso   1.00
H85    H     0.53101   0.11027   0.32498   0.00000  Uiso   1.00
H86    H     0.53301   0.38966   0.18426   0.00000  Uiso   1.00
C87    C     0.49945   0.11599   0.24993   0.00000  Uiso   1.00
C88    C     0.49944   0.38398   0.24987   0.00000  Uiso   1.00
C89    C     0.48159   0.09315   0.20764   0.00000  Uiso   1.00
C90    C     0.48042   0.40679   0.28678   0.00000  Uiso   1.00
H91    H     0.46766   0.11078   0.17487   0.00000  Uiso   1.00
H92    H     0.46559   0.38913   0.31536   0.00000  Uiso   1.00
C93    C     0.48082   0.04716   0.20764   0.00000  Uiso   1.00
C94    C     0.47963   0.45278   0.28651   0.00000  Uiso   1.00
H95    H     0.46615   0.02966   0.17498   0.00000  Uiso   1.00
H96    H     0.46407   0.47027   0.31477   0.00000  Uiso   1.00
C97    C     0.49845   0.02402   0.24979   0.00000  Uiso   1.00
C98    C     0.49843   0.47592   0.24964   0.00000  Uiso   1.00
C99    C     0.47565   0.21568   0.04940   0.00000  Uiso   1.00
C100   C     0.54166   0.26863   0.45293   0.00000  Uiso   1.00
H101   H     0.45703   0.18799   0.02917   0.00000  Uiso   1.00
H102   H     0.57523   0.28275   0.47514   0.00000  Uiso   1.00
C103   C     0.47595   0.21640   0.09907   0.00000  Uiso   1.00
C104   C     0.54077   0.26844   0.40318   0.00000  Uiso   1.00
H105   H     0.45699   0.18988   0.11594   0.00000  Uiso   1.00
H106   H     0.57292   0.28298   0.38809   0.00000  Uiso   1.00
N107   N     0.50000   0.24999   0.12623   0.00000  Uiso   1.00
N108   N     0.50000   0.25001   0.37376   0.00000  Uiso   1.00
C109   C     0.52413   0.28356   0.10547   0.00000  Uiso   1.00
C110   C     0.45921   0.23163   0.39235   0.00000  Uiso   1.00
H111   H     0.54310   0.31006   0.12739   0.00000  Uiso   1.00
H112   H     0.42700   0.21710   0.36872   0.00000  Uiso   1.00
C113   C     0.52445   0.28429   0.05588   0.00000  Uiso   1.00
C114   C     0.45832   0.23146   0.44185   0.00000  Uiso   1.00
H115   H     0.54310   0.31198   0.04061   0.00000  Uiso   1.00
H116   H     0.42475   0.21736   0.45514   0.00000  Uiso   1.00
C117   C     0.50004   0.25000   0.02670   0.00000  Uiso   1.00
C118   C     0.50001   0.25003   0.47333   0.00000  Uiso   1.00
N119   N     0.65719   0.21242   0.19536   0.00000  Uiso   1.00
O120   O     0.66454   0.21885   0.15139   0.00000  Uiso   1.00
O121   O     0.63560   0.17544   0.20657   0.00000  Uiso   1.00
N122   N     0.34282   0.28771   0.30455   0.00000  Uiso   1.00
O123   O     0.33543   0.28142   0.34851   0.00000  Uiso   1.00
O124   O     0.36450   0.32462   0.29326   0.00000  Uiso   1.00
O125   O     0.83334   0.18454   0.28974   0.00000  Uiso   1.00
O126   O     0.83333   0.31547   0.21026   0.00000  Uiso   1.00
O127   O     0.83334   0.18453   0.21026   0.00000  Uiso   1.00
O128   O     0.83333   0.31547   0.28974   0.00000  Uiso   1.00
C129   C     0.83325   0.16388   0.24999   0.00000  Uiso   1.00
C130   C     0.83326   0.33611   0.24998   0.00000  Uiso   1.00
O131   O     0.75725   0.25000   0.28044   0.00000  Uiso   1.00
O132   O     0.90942   0.25000   0.21955   0.00000  Uiso   1.00
O133   O     0.75725   0.25000   0.20096   0.00000  Uiso   1.00
O134   O     0.90942   0.25001   0.29903   0.00000  Uiso   1.00
C135   C     0.73381   0.24985   0.23772   0.00000  Uiso   1.00
C136   C     0.93287   0.25017   0.26228   0.00000  Uiso   1.00
Zn137  Zn    0.83333   0.25001   0.30307   0.00000  Uiso   1.00
Zn138  Zn    0.83333   0.25000   0.19693   0.00000  Uiso   1.00
C139   C     0.67957   0.24278   0.23236   0.00000  Uiso   1.00
C140   C     0.98711   0.25728   0.26762   0.00000  Uiso   1.00
C141   C     0.84982   0.04687   0.29202   0.00000  Uiso   1.00
C142   C     0.85093   0.45308   0.21281   0.00000  Uiso   1.00
H143   H     0.86423   0.02915   0.32461   0.00000  Uiso   1.00
H144   H     0.86623   0.47081   0.18452   0.00000  Uiso   1.00
C145   C     0.85005   0.09286   0.29216   0.00000  Uiso   1.00
C146   C     0.85116   0.40709   0.21277   0.00000  Uiso   1.00
H147   H     0.86434   0.11027   0.32498   0.00000  Uiso   1.00
H148   H     0.86635   0.38966   0.18426   0.00000  Uiso   1.00
C149   C     0.83278   0.11599   0.24993   0.00000  Uiso   1.00
C150   C     0.83278   0.38398   0.24987   0.00000  Uiso   1.00
C151   C     0.81492   0.09315   0.20764   0.00000  Uiso   1.00
C152   C     0.81375   0.40679   0.28678   0.00000  Uiso   1.00
H153   H     0.80099   0.11078   0.17487   0.00000  Uiso   1.00
H154   H     0.79893   0.38913   0.31536   0.00000  Uiso   1.00
C155   C     0.81415   0.04716   0.20764   0.00000  Uiso   1.00
C156   C     0.81297   0.45278   0.28651   0.00000  Uiso   1.00
H157   H     0.79949   0.02966   0.17498   0.00000  Uiso   1.00
H158   H     0.79740   0.47027   0.31477   0.00000  Uiso   1.00
C159   C     0.83179   0.02402   0.24979   0.00000  Uiso   1.00
C160   C     0.83176   0.47592   0.24964   0.00000  Uiso   1.00
C161   C     0.80899   0.21568   0.04940   0.00000  Uiso   1.00
C162   C     0.87500   0.26863   0.45293   0.00000  Uiso   1.00
H163   H     0.79036   0.18799   0.02917   0.00000  Uiso   1.00
H164   H     0.90856   0.28275   0.47514   0.00000  Uiso   1.00
C165   C     0.80928   0.21640   0.09907   0.00000  Uiso   1.00
C166   C     0.87410   0.26844   0.40318   0.00000  Uiso   1.00
H167   H     0.79033   0.18988   0.11594   0.00000  Uiso   1.00
H168   H     0.90625   0.28298   0.38809   0.00000  Uiso   1.00
N169   N     0.83333   0.24999   0.12623   0.00000  Uiso   1.00
N170   N     0.83333   0.25001   0.37376   0.00000  Uiso   1.00
C171   C     0.85746   0.28356   0.10547   0.00000  Uiso   1.00
C172   C     0.79254   0.23163   0.39235   0.00000  Uiso   1.00
H173   H     0.87643   0.31006   0.12739   0.00000  Uiso   1.00
H174   H     0.76034   0.21710   0.36872   0.00000  Uiso   1.00
C175   C     0.85778   0.28429   0.05588   0.00000  Uiso   1.00
C176   C     0.79165   0.23146   0.44185   0.00000  Uiso   1.00
H177   H     0.87643   0.31198   0.04061   0.00000  Uiso   1.00
H178   H     0.75808   0.21736   0.45514   0.00000  Uiso   1.00
C179   C     0.83337   0.25000   0.02670   0.00000  Uiso   1.00
C180   C     0.83334   0.25003   0.47333   0.00000  Uiso   1.00
N181   N     0.99052   0.21242   0.19536   0.00000  Uiso   1.00
O182   O     0.99787   0.21885   0.15139   0.00000  Uiso   1.00
O183   O     0.96894   0.17544   0.20657   0.00000  Uiso   1.00
N184   N     0.67615   0.28771   0.30455   0.00000  Uiso   1.00
O185   O     0.66877   0.28142   0.34851   0.00000  Uiso   1.00
O186   O     0.69784   0.32462   0.29326   0.00000  Uiso   1.00
O187   O     0.16667   0.68454   0.28974   0.00000  Uiso   1.00
O188   O     0.16666   0.81547   0.21026   0.00000  Uiso   1.00
O189   O     0.16667   0.68453   0.21026   0.00000  Uiso   1.00
O190   O     0.16666   0.81547   0.28974   0.00000  Uiso   1.00
C191   C     0.16658   0.66388   0.24999   0.00000  Uiso   1.00
C192   C     0.16659   0.83611   0.24998   0.00000  Uiso   1.00
O193   O     0.09058   0.75000   0.28044   0.00000  Uiso   1.00
O194   O     0.24275   0.75000   0.21955   0.00000  Uiso   1.00
O195   O     0.09058   0.75000   0.20096   0.00000  Uiso   1.00
O196   O     0.24275   0.75001   0.29903   0.00000  Uiso   1.00
C197   C     0.06714   0.74985   0.23772   0.00000  Uiso   1.00
C198   C     0.26620   0.75017   0.26228   0.00000  Uiso   1.00
Zn199  Zn    0.16667   0.75001   0.30307   0.00000  Uiso   1.00
Zn200  Zn    0.16667   0.75000   0.19693   0.00000  Uiso   1.00
C201   C     0.01290   0.74278   0.23236   0.00000  Uiso   1.00
C202   C     0.32044   0.75728   0.26762   0.00000  Uiso   1.00
C203   C     0.18316   0.54687   0.29202   0.00000  Uiso   1.00
C204   C     0.18427   0.95308   0.21281   0.00000  Uiso   1.00
H205   H     0.19757   0.52915   0.32461   0.00000  Uiso   1.00
H206   H     0.19956   0.97081   0.18452   0.00000  Uiso   1.00
C207   C     0.18338   0.59286   0.29216   0.00000  Uiso   1.00
C208   C     0.18450   0.90709   0.21277   0.00000  Uiso   1.00
H209   H     0.19768   0.61027   0.32498   0.00000  Uiso   1.00
H210   H     0.19968   0.88966   0.18426   0.00000  Uiso   1.00
C211   C     0.16612   0.61599   0.24993   0.00000  Uiso   1.00
C212   C     0.16611   0.88398   0.24987   0.00000  Uiso   1.00
C213   C     0.14826   0.59315   0.20764   0.00000  Uiso   1.00
C214   C     0.14708   0.90679   0.28678   0.00000  Uiso   1.00
H215   H     0.13433   0.61078   0.17487   0.00000  Uiso   1.00
H216   H     0.13226   0.88913   0.31536   0.00000  Uiso   1.00
C217   C     0.14749   0.54716   0.20764   0.00000  Uiso   1.00
C218   C     0.14630   0.95278   0.28651   0.00000  Uiso   1.00
H219   H     0.13282   0.52966   0.17498   0.00000  Uiso   1.00
H220   H     0.13074   0.97027   0.31477   0.00000  Uiso   1.00
C221   C     0.16512   0.52402   0.24979   0.00000  Uiso   1.00
C222   C     0.16509   0.97592   0.24964   0.00000  Uiso   1.00
C223   C     0.14232   0.71568   0.04940   0.00000  Uiso   1.00
C224   C     0.20833   0.76863   0.45293   0.00000  Uiso   1.00
H225   H     0.12369   0.68799   0.02917   0.00000  Uiso   1.00
H226   H     0.24190   0.78275   0.47514   0.00000  Uiso   1.00
C227   C     0.14262   0.71640   0.09907   0.00000  Uiso   1.00
C228   C     0.20743   0.76844   0.40318   0.00000  Uiso   1.00
H229   H     0.12366   0.68988   0.11594   0.00000  Uiso   1.00
H230   H     0.23958   0.78298   0.38809   0.00000  Uiso   1.00
N231   N     0.16667   0.74999   0.12623   0.00000  Uiso   1.00
N232   N     0.16667   0.75001   0.37376   0.00000  Uiso   1.00
C233   C     0.19079   0.78356   0.10547   0.00000  Uiso   1.00
C234   C     0.12587   0.73163   0.39235   0.00000  Uiso   1.00
H235   H     0.20976   0.81006   0.12739   0.00000  Uiso   1.00
H236   H     0.09367   0.71710   0.36872   0.00000  Uiso   1.00
C237   C     0.19112   0.78429   0.05588   0.00000  Uiso   1.00
C238   C     0.12499   0.73146   0.44185   0.00000  Uiso   1.00
H239   H     0.20976   0.81198   0.04061   0.00000  Uiso   1.00
H240   H     0.09142   0.71736   0.45514   0.00000  Uiso   1.00
C241   C     0.16670   0.75000   0.02670   0.00000  Uiso   1.00
C242   C     0.16667   0.75003   0.47333   0.00000  Uiso   1.00
N243   N     0.32385   0.71242   0.19536   0.00000  Uiso   1.00
O244   O     0.33121   0.71885   0.15139   0.00000  Uiso   1.00
O245   O     0.30227   0.67544   0.20657   0.00000  Uiso   1.00
N246   N     0.00949   0.78771   0.30455   0.00000  Uiso   1.00
O247   O     0.00210   0.78142   0.34851   0.00000  Uiso   1.00
O248   O     0.03117   0.82462   0.29326   0.00000  Uiso   1.00
O249   O     0.50000   0.68454   0.28974   0.00000  Uiso   1.00
O250   O     0.50000   0.81547   0.21026   0.00000  Uiso   1.00
O251   O     0.50000   0.68453   0.21026   0.00000  Uiso   1.00
O252   O     0.50000   0.81547   0.28974   0.00000  Uiso   1.00
C253   C     0.49992   0.66388   0.24999   0.00000  Uiso   1.00
C254   C     0.49992   0.83611   0.24998   0.00000  Uiso   1.00
O255   O     0.42392   0.75000   0.28044   0.00000  Uiso   1.00
O256   O     0.57608   0.75000   0.21955   0.00000  Uiso   1.00
O257   O     0.42392   0.75000   0.20096   0.00000  Uiso   1.00
O258   O     0.57608   0.75001   0.29903   0.00000  Uiso   1.00
C259   C     0.40047   0.74985   0.23772   0.00000  Uiso   1.00
C260   C     0.59953   0.75017   0.26228   0.00000  Uiso   1.00
Zn261  Zn    0.50000   0.75001   0.30307   0.00000  Uiso   1.00
Zn262  Zn    0.50000   0.75000   0.19693   0.00000  Uiso   1.00
C263   C     0.34623   0.74278   0.23236   0.00000  Uiso   1.00
C264   C     0.65378   0.75728   0.26762   0.00000  Uiso   1.00
C265   C     0.51649   0.54687   0.29202   0.00000  Uiso   1.00
C266   C     0.51760   0.95308   0.21281   0.00000  Uiso   1.00
H267   H     0.53090   0.52915   0.32461   0.00000  Uiso   1.00
H268   H     0.53290   0.97081   0.18452   0.00000  Uiso   1.00
C269   C     0.51672   0.59286   0.29216   0.00000  Uiso   1.00
C270   C     0.51783   0.90709   0.21277   0.00000  Uiso   1.00
H271   H     0.53101   0.61027   0.32498   0.00000  Uiso   1.00
H272   H     0.53301   0.88966   0.18426   0.00000  Uiso   1.00
C273   C     0.49945   0.61599   0.24993   0.00000  Uiso   1.00
C274   C     0.49944   0.88398   0.24987   0.00000  Uiso   1.00
C275   C     0.48159   0.59315   0.20764   0.00000  Uiso   1.00
C276   C     0.48042   0.90679   0.28678   0.00000  Uiso   1.00
H277   H     0.46766   0.61078   0.17487   0.00000  Uiso   1.00
H278   H     0.46559   0.88913   0.31536   0.00000  Uiso   1.00
C279   C     0.48082   0.54716   0.20764   0.00000  Uiso   1.00
C280   C     0.47963   0.95278   0.28651   0.00000  Uiso   1.00
H281   H     0.46615   0.52966   0.17498   0.00000  Uiso   1.00
H282   H     0.46407   0.97027   0.31477   0.00000  Uiso   1.00
C283   C     0.49845   0.52402   0.24979   0.00000  Uiso   1.00
C284   C     0.49843   0.97592   0.24964   0.00000  Uiso   1.00
C285   C     0.47565   0.71568   0.04940   0.00000  Uiso   1.00
C286   C     0.54166   0.76863   0.45293   0.00000  Uiso   1.00
H287   H     0.45703   0.68799   0.02917   0.00000  Uiso   1.00
H288   H     0.57523   0.78275   0.47514   0.00000  Uiso   1.00
C289   C     0.47595   0.71640   0.09907   0.00000  Uiso   1.00
C290   C     0.54077   0.76844   0.40318   0.00000  Uiso   1.00
H291   H     0.45699   0.68988   0.11594   0.00000  Uiso   1.00
H292   H     0.57292   0.78298   0.38809   0.00000  Uiso   1.00
N293   N     0.50000   0.74999   0.12623   0.00000  Uiso   1.00
N294   N     0.50000   0.75001   0.37376   0.00000  Uiso   1.00
C295   C     0.52413   0.78356   0.10547   0.00000  Uiso   1.00
C296   C     0.45921   0.73163   0.39235   0.00000  Uiso   1.00
H297   H     0.54310   0.81006   0.12739   0.00000  Uiso   1.00
H298   H     0.42700   0.71710   0.36872   0.00000  Uiso   1.00
C299   C     0.52445   0.78429   0.05588   0.00000  Uiso   1.00
C300   C     0.45832   0.73146   0.44185   0.00000  Uiso   1.00
H301   H     0.54310   0.81198   0.04061   0.00000  Uiso   1.00
H302   H     0.42475   0.71736   0.45514   0.00000  Uiso   1.00
C303   C     0.50004   0.75000   0.02670   0.00000  Uiso   1.00
C304   C     0.50001   0.75003   0.47333   0.00000  Uiso   1.00
N305   N     0.65719   0.71242   0.19536   0.00000  Uiso   1.00
O306   O     0.66454   0.71885   0.15139   0.00000  Uiso   1.00
O307   O     0.63560   0.67544   0.20657   0.00000  Uiso   1.00
N308   N     0.34282   0.78771   0.30455   0.00000  Uiso   1.00
O309   O     0.33543   0.78142   0.34851   0.00000  Uiso   1.00
O310   O     0.36450   0.82462   0.29326   0.00000  Uiso   1.00
O311   O     0.83334   0.68454   0.28974   0.00000  Uiso   1.00
O312   O     0.83333   0.81547   0.21026   0.00000  Uiso   1.00
O313   O     0.83334   0.68453   0.21026   0.00000  Uiso   1.00
O314   O     0.83333   0.81547   0.28974   0.00000  Uiso   1.00
C315   C     0.83325   0.66388   0.24999   0.00000  Uiso   1.00
C316   C     0.83326   0.83611   0.24998   0.00000  Uiso   1.00
O317   O     0.75725   0.75000   0.28044   0.00000  Uiso   1.00
O318   O     0.90942   0.75000   0.21955   0.00000  Uiso   1.00
O319   O     0.75725   0.75000   0.20096   0.00000  Uiso   1.00
O320   O     0.90942   0.75001   0.29903   0.00000  Uiso   1.00
C321   C     0.73381   0.74985   0.23772   0.00000  Uiso   1.00
C322   C     0.93287   0.75017   0.26228   0.00000  Uiso   1.00
Zn323  Zn    0.83333   0.75001   0.30307   0.00000  Uiso   1.00
Zn324  Zn    0.83333   0.75000   0.19693   0.00000  Uiso   1.00
C325   C     0.67957   0.74278   0.23236   0.00000  Uiso   1.00
C326   C     0.98711   0.75728   0.26762   0.00000  Uiso   1.00
C327   C     0.84982   0.54687   0.29202   0.00000  Uiso   1.00
C328   C     0.85093   0.95308   0.21281   0.00000  Uiso   1.00
H329   H     0.86423   0.52915   0.32461   0.00000  Uiso   1.00
H330   H     0.86623   0.97081   0.18452   0.00000  Uiso   1.00
C331   C     0.85005   0.59286   0.29216   0.00000  Uiso   1.00
C332   C     0.85116   0.90709   0.21277   0.00000  Uiso   1.00
H333   H     0.86434   0.61027   0.32498   0.00000  Uiso   1.00
H334   H     0.86635   0.88966   0.18426   0.00000  Uiso   1.00
C335   C     0.83278   0.61599   0.24993   0.00000  Uiso   1.00
C336   C     0.83278   0.88398   0.24987   0.00000  Uiso   1.00
C337   C     0.81492   0.59315   0.20764   0.00000  Uiso   1.00
C338   C     0.81375   0.90679   0.28678   0.00000  Uiso   1.00
H339   H     0.80099   0.61078   0.17487   0.00000  Uiso   1.00
H340   H     0.79893   0.88913   0.31536   0.00000  Uiso   1.00
C341   C     0.81415   0.54716   0.20764   0.00000  Uiso   1.00
C342   C     0.81297   0.95278   0.28651   0.00000  Uiso   1.00
H343   H     0.79949   0.52966   0.17498   0.00000  Uiso   1.00
H344   H     0.79740   0.97027   0.31477   0.00000  Uiso   1.00
C345   C     0.83179   0.52402   0.24979   0.00000  Uiso   1.00
C346   C     0.83176   0.97592   0.24964   0.00000  Uiso   1.00
C347   C     0.80899   0.71568   0.04940   0.00000  Uiso   1.00
C348   C     0.87500   0.76863   0.45293   0.00000  Uiso   1.00
H349   H     0.79036   0.68799   0.02917   0.00000  Uiso   1.00
H350   H     0.90856   0.78275   0.47514   0.00000  Uiso   1.00
C351   C     0.80928   0.71640   0.09907   0.00000  Uiso   1.00
C352   C     0.87410   0.76844   0.40318   0.00000  Uiso   1.00
H353   H     0.79033   0.68988   0.11594   0.00000  Uiso   1.00
H354   H     0.90625   0.78298   0.38809   0.00000  Uiso   1.00
N355   N     0.83333   0.74999   0.12623   0.00000  Uiso   1.00
N356   N     0.83333   0.75001   0.37376   0.00000  Uiso   1.00
C357   C     0.85746   0.78356   0.10547   0.00000  Uiso   1.00
C358   C     0.79254   0.73163   0.39235   0.00000  Uiso   1.00
H359   H     0.87643   0.81006   0.12739   0.00000  Uiso   1.00
H360   H     0.76034   0.71710   0.36872   0.00000  Uiso   1.00
C361   C     0.85778   0.78429   0.05588   0.00000  Uiso   1.00
C362   C     0.79165   0.73146   0.44185   0.00000  Uiso   1.00
H363   H     0.87643   0.81198   0.04061   0.00000  Uiso   1.00
H364   H     0.75808   0.71736   0.45514   0.00000  Uiso   1.00
C365   C     0.83337   0.75000   0.02670   0.00000  Uiso   1.00
C366   C     0.83334   0.75003   0.47333   0.00000  Uiso   1.00
N367   N     0.99052   0.71242   0.19536   0.00000  Uiso   1.00
O368   O     0.99787   0.71885   0.15139   0.00000  Uiso   1.00
O369   O     0.96894   0.67544   0.20657   0.00000  Uiso   1.00
N370   N     0.67615   0.78771   0.30455   0.00000  Uiso   1.00
O371   O     0.66877   0.78142   0.34851   0.00000  Uiso   1.00
O372   O     0.69784   0.82462   0.29326   0.00000  Uiso   1.00
O373   O     0.16667   0.18454   0.78974   0.00000  Uiso   1.00
O374   O     0.16666   0.31547   0.71026   0.00000  Uiso   1.00
O375   O     0.16667   0.18453   0.71026   0.00000  Uiso   1.00
O376   O     0.16666   0.31547   0.78974   0.00000  Uiso   1.00
C377   C     0.16658   0.16388   0.74999   0.00000  Uiso   1.00
C378   C     0.16659   0.33611   0.74998   0.00000  Uiso   1.00
O379   O     0.09058   0.25000   0.78044   0.00000  Uiso   1.00
O380   O     0.24275   0.25000   0.71955   0.00000  Uiso   1.00
O381   O     0.09058   0.25000   0.70096   0.00000  Uiso   1.00
O382   O     0.24275   0.25001   0.79903   0.00000  Uiso   1.00
C383   C     0.06714   0.24985   0.73772   0.00000  Uiso   1.00
C384   C     0.26620   0.25017   0.76228   0.00000  Uiso   1.00
Zn385  Zn    0.16667   0.25001   0.80307   0.00000  Uiso   1.00
Zn386  Zn    0.16667   0.25000   0.69693   0.00000  Uiso   1.00
C387   C     0.01290   0.24278   0.73236   0.00000  Uiso   1.00
C388   C     0.32044   0.25728   0.76762   0.00000  Uiso   1.00
C389   C     0.18316   0.04687   0.79202   0.00000  Uiso   1.00
C390   C     0.18427   0.45308   0.71281   0.00000  Uiso   1.00
H391   H     0.19757   0.02915   0.82461   0.00000  Uiso   1.00
H392   H     0.19956   0.47081   0.68452   0.00000  Uiso   1.00
C393   C     0.18338   0.09286   0.79216   0.00000  Uiso   1.00
C394   C     0.18450   0.40709   0.71277   0.00000  Uiso   1.00
H395   H     0.19768   0.11027   0.82498   0.00000  Uiso   1.00
H396   H     0.19968   0.38966   0.68426   0.00000  Uiso   1.00
C397   C     0.16612   0.11599   0.74993   0.00000  Uiso   1.00
C398   C     0.16611   0.38398   0.74987   0.00000  Uiso   1.00
C399   C     0.14826   0.09315   0.70764   0.00000  Uiso   1.00
C400   C     0.14708   0.40679   0.78678   0.00000  Uiso   1.00
H401   H     0.13433   0.11078   0.67487   0.00000  Uiso   1.00
H402   H     0.13226   0.38913   0.81536   0.00000  Uiso   1.00
C403   C     0.14749   0.04716   0.70764   0.00000  Uiso   1.00
C404   C     0.14630   0.45278   0.78651   0.00000  Uiso   1.00
H405   H     0.13282   0.02966   0.67498   0.00000  Uiso   1.00
H406   H     0.13074   0.47027   0.81477   0.00000  Uiso   1.00
C407   C     0.16512   0.02402   0.74979   0.00000  Uiso   1.00
C408   C     0.16509   0.47592   0.74964   0.00000  Uiso   1.00
C409   C     0.14232   0.21568   0.54940   0.00000  Uiso   1.00
C410   C     0.20833   0.26863   0.95293   0.00000  Uiso   1.00
H411   H     0.12369   0.18799   0.52917   0.00000  Uiso   1.00
H412   H     0.24190   0.28275   0.97514   0.00000  Uiso   1.00
C413   C     0.14262   0.21640   0.59907   0.00000  Uiso   1.00
C414   C     0.20743   0.26844   0.90318   0.00000  Uiso   1.00
H415   H     0.12366   0.18988   0.61594   0.00000  Uiso   1.00
H416   H     0.23958   0.28298   0.88809   0.00000  Uiso   1.00
N417   N     0.16667   0.24999   0.62623   0.00000  Uiso   1.00
N418   N     0.16667   0.25001   0.87376   0.00000  Uiso   1.00
C419   C     0.19079   0.28356   0.60547   0.00000  Uiso   1.00
C420   C     0.12587   0.23163   0.89235   0.00000  Uiso   1.00
H421   H     0.20976   0.31006   0.62739   0.00000  Uiso   1.00
H422   H     0.09367   0.21710   0.86872   0.00000  Uiso   1.00
C423   C     0.19112   0.28429   0.55588   0.00000  Uiso   1.00
C424   C     0.12499   0.23146   0.94185   0.00000  Uiso   1.00
H425   H     0.20976   0.31198   0.54061   0.00000  Uiso   1.00
H426   H     0.09142   0.21736   0.95514   0.00000  Uiso   1.00
C427   C     0.16670   0.25000   0.52670   0.00000  Uiso   1.00
C428   C     0.16667   0.25003   0.97333   0.00000  Uiso   1.00
N429   N     0.32385   0.21242   0.69536   0.00000  Uiso   1.00
O430   O     0.33121   0.21885   0.65139   0.00000  Uiso   1.00
O431   O     0.30227   0.17544   0.70657   0.00000  Uiso   1.00
N432   N     0.00949   0.28771   0.80455   0.00000  Uiso   1.00
O433   O     0.00210   0.28142   0.84851   0.00000  Uiso   1.00
O434   O     0.03117   0.32462   0.79326   0.00000  Uiso   1.00
O435   O     0.50000   0.18454   0.78974   0.00000  Uiso   1.00
O436   O     0.50000   0.31547   0.71026   0.00000  Uiso   1.00
O437   O     0.50000   0.18453   0.71026   0.00000  Uiso   1.00
O438   O     0.50000   0.31547   0.78974   0.00000  Uiso   1.00
C439   C     0.49992   0.16388   0.74999   0.00000  Uiso   1.00
C440   C     0.49992   0.33611   0.74998   0.00000  Uiso   1.00
O441   O     0.42392   0.25000   0.78044   0.00000  Uiso   1.00
O442   O     0.57608   0.25000   0.71955   0.00000  Uiso   1.00
O443   O     0.42392   0.25000   0.70096   0.00000  Uiso   1.00
O444   O     0.57608   0.25001   0.79903   0.00000  Uiso   1.00
C445   C     0.40047   0.24985   0.73772   0.00000  Uiso   1.00
C446   C     0.59953   0.25017   0.76228   0.00000  Uiso   1.00
Zn447  Zn    0.50000   0.25001   0.80307   0.00000  Uiso   1.00
Zn448  Zn    0.50000   0.25000   0.69693   0.00000  Uiso   1.00
C449   C     0.34623   0.24278   0.73236   0.00000  Uiso   1.00
C450   C     0.65378   0.25728   0.76762   0.00000  Uiso   1.00
C451   C     0.51649   0.04687   0.79202   0.00000  Uiso   1.00
C452   C     0.51760   0.45308   0.71281   0.00000  Uiso   1.00
H453   H     0.53090   0.02915   0.82461   0.00000  Uiso   1.00
H454   H     0.53290   0.47081   0.68452   0.00000  Uiso   1.00
C455   C     0.51672   0.09286   0.79216   0.00000  Uiso   1.00
C456   C     0.51783   0.40709   0.71277   0.00000  Uiso   1.00
H457   H     0.53101   0.11027   0.82498   0.00000  Uiso   1.00
H458   H     0.53301   0.38966   0.68426   0.00000  Uiso   1.00
C459   C     0.49945   0.11599   0.74993   0.00000  Uiso   1.00
C460   C     0.49944   0.38398   0.74987   0.00000  Uiso   1.00
C461   C     0.48159   0.09315   0.70764   0.00000  Uiso   1.00
C462   C     0.48042   0.40679   0.78678   0.00000  Uiso   1.00
H463   H     0.46766   0.11078   0.67487   0.00000  Uiso   1.00
H464   H     0.46559   0.38913   0.81536   0.00000  Uiso   1.00
C465   C     0.48082   0.04716   0.70764   0.00000  Uiso   1.00
C466   C     0.47963   0.45278   0.78651   0.00000  Uiso   1.00
H467   H     0.46615   0.02966   0.67498   0.00000  Uiso   1.00
H468   H     0.46407   0.47027   0.81477   0.00000  Uiso   1.00
C469   C     0.49845   0.02402   0.74979   0.00000  Uiso   1.00
C470   C     0.49843   0.47592   0.74964   0.00000  Uiso   1.00
C471   C     0.47565   0.21568   0.54940   0.00000  Uiso   1.00
C472   C     0.54166   0.26863   0.95293   0.00000  Uiso   1.00
H473   H     0.45703   0.18799   0.52917   0.00000  Uiso   1.00
H474   H     0.57523   0.28275   0.97514   0.00000  Uiso   1.00
C475   C     0.47595   0.21640   0.59907   0.00000  Uiso   1.00
C476   C     0.54077   0.26844   0.90318   0.00000  Uiso   1.00
H477   H     0.45699   0.18988   0.61594   0.00000  Uiso   1.00
H478   H     0.57292   0.28298   0.88809   0.00000  Uiso   1.00
N479   N     0.50000   0.24999   0.62623   0.00000  Uiso   1.00
N480   N     0.50000   0.25001   0.87376   0.00000  Uiso   1.00
C481   C     0.52413   0.28356   0.60547   0.00000  Uiso   1.00
C482   C     0.45921   0.23163   0.89235   0.00000  Uiso   1.00
H483   H     0.54310   0.31006   0.62739   0.00000  Uiso   1.00
H484   H     0.42700   0.21710   0.86872   0.00000  Uiso   1.00
C485   C     0.52445   0.28429   0.55588   0.00000  Uiso   1.00
C486   C     0.45832   0.23146   0.94185   0.00000  Uiso   1.00
H487   H     0.54310   0.31198   0.54061   0.00000  Uiso   1.00
H488   H     0.42475   0.21736   0.95514   0.00000  Uiso   1.00
C489   C     0.50004   0.25000   0.52670   0.00000  Uiso   1.00
C490   C     0.50001   0.25003   0.97333   0.00000  Uiso   1.00
N491   N     0.65719   0.21242   0.69536   0.00000  Uiso   1.00
O492   O     0.66454   0.21885   0.65139   0.00000  Uiso   1.00
O493   O     0.63560   0.17544   0.70657   0.00000  Uiso   1.00
N494   N     0.34282   0.28771   0.80455   0.00000  Uiso   1.00
O495   O     0.33543   0.28142   0.84851   0.00000  Uiso   1.00
O496   O     0.36450   0.32462   0.79326   0.00000  Uiso   1.00
O497   O     0.83334   0.18454   0.78974   0.00000  Uiso   1.00
O498   O     0.83333   0.31547   0.71026   0.00000  Uiso   1.00
O499   O     0.83334   0.18453   0.71026   0.00000  Uiso   1.00
O500   O     0.83333   0.31547   0.78974   0.00000  Uiso   1.00
C501   C     0.83325   0.16388   0.74999   0.00000  Uiso   1.00
C502   C     0.83326   0.33611   0.74998   0.00000  Uiso   1.00
O503   O     0.75725   0.25000   0.78044   0.00000  Uiso   1.00
O504   O     0.90942   0.25000   0.71955   0.00000  Uiso   1.00
O505   O     0.75725   0.25000   0.70096   0.00000  Uiso   1.00
O506   O     0.90942   0.25001   0.79903   0.00000  Uiso   1.00
C507   C     0.73381   0.24985   0.73772   0.00000  Uiso   1.00
C508   C     0.93287   0.25017   0.76228   0.00000  Uiso   1.00
Zn509  Zn    0.83333   0.25001   0.80307   0.00000  Uiso   1.00
Zn510  Zn    0.83333   0.25000   0.69693   0.00000  Uiso   1.00
C511   C     0.67957   0.24278   0.73236   0.00000  Uiso   1.00
C512   C     0.98711   0.25728   0.76762   0.00000  Uiso   1.00
C513   C     0.84982   0.04687   0.79202   0.00000  Uiso   1.00
C514   C     0.85093   0.45308   0.71281   0.00000  Uiso   1.00
H515   H     0.86423   0.02915   0.82461   0.00000  Uiso   1.00
H516   H     0.86623   0.47081   0.68452   0.00000  Uiso   1.00
C517   C     0.85005   0.09286   0.79216   0.00000  Uiso   1.00
C518   C     0.85116   0.40709   0.71277   0.00000  Uiso   1.00
H519   H     0.86434   0.11027   0.82498   0.00000  Uiso   1.00
H520   H     0.86635   0.38966   0.68426   0.00000  Uiso   1.00
C521   C     0.83278   0.11599   0.74993   0.00000  Uiso   1.00
C522   C     0.83278   0.38398   0.74987   0.00000  Uiso   1.00
C523   C     0.81492   0.09315   0.70764   0.00000  Uiso   1.00
C524   C     0.81375   0.40679   0.78678   0.00000  Uiso   1.00
H525   H     0.80099   0.11078   0.67487   0.00000  Uiso   1.00
H526   H     0.79893   0.38913   0.81536   0.00000  Uiso   1.00
C527   C     0.81415   0.04716   0.70764   0.00000  Uiso   1.00
C528   C     0.81297   0.45278   0.78651   0.00000  Uiso   1.00
H529   H     0.79949   0.02966   0.67498   0.00000  Uiso   1.00
H530   H     0.79740   0.47027   0.81477   0.00000  Uiso   1.00
C531   C     0.83179   0.02402   0.74979   0.00000  Uiso   1.00
C532   C     0.83176   0.47592   0.74964   0.00000  Uiso   1.00
C533   C     0.80899   0.21568   0.54940   0.00000  Uiso   1.00
C534   C     0.87500   0.26863   0.95293   0.00000  Uiso   1.00
H535   H     0.79036   0.18799   0.52917   0.00000  Uiso   1.00
H536   H     0.90856   0.28275   0.97514   0.00000  Uiso   1.00
C537   C     0.80928   0.21640   0.59907   0.00000  Uiso   1.00
C538   C     0.87410   0.26844   0.90318   0.00000  Uiso   1.00
H539   H     0.79033   0.18988   0.61594   0.00000  Uiso   1.00
H540   H     0.90625   0.28298   0.88809   0.00000  Uiso   1.00
N541   N     0.83333   0.24999   0.62623   0.00000  Uiso   1.00
N542   N     0.83333   0.25001   0.87376   0.00000  Uiso   1.00
C543   C     0.85746   0.28356   0.60547   0.00000  Uiso   1.00
C544   C     0.79254   0.23163   0.89235   0.00000  Uiso   1.00
H545   H     0.87643   0.31006   0.62739   0.00000  Uiso   1.00
H546   H     0.76034   0.21710   0.86872   0.00000  Uiso   1.00
C547   C     0.85778   0.28429   0.55588   0.00000  Uiso   1.00
C548   C     0.79165   0.23146   0.94185   0.00000  Uiso   1.00
H549   H     0.87643   0.31198   0.54061   0.00000  Uiso   1.00
H550   H     0.75808   0.21736   0.95514   0.00000  Uiso   1.00
C551   C     0.83337   0.25000   0.52670   0.00000  Uiso   1.00
C552   C     0.83334   0.25003   0.97333   0.00000  Uiso   1.00
N553   N     0.99052   0.21242   0.69536   0.00000  Uiso   1.00
O554   O     0.99787   0.21885   0.65139   0.00000  Uiso   1.00
O555   O     0.96894   0.17544   0.70657   0.00000  Uiso   1.00
N556   N     0.67615   0.28771   0.80455   0.00000  Uiso   1.00
O557   O     0.66877   0.28142   0.84851   0.00000  Uiso   1.00
O558   O     0.69784   0.32462   0.79326   0.00000  Uiso   1.00
O559   O     0.16667   0.68454   0.78974   0.00000  Uiso   1.00
O560   O     0.16666   0.81547   0.71026   0.00000  Uiso   1.00
O561   O     0.16667   0.68453   0.71026   0.00000  Uiso   1.00
O562   O     0.16666   0.81547   0.78974   0.00000  Uiso   1.00
C563   C     0.16658   0.66388   0.74999   0.00000  Uiso   1.00
C564   C     0.16659   0.83611   0.74998   0.00000  Uiso   1.00
O565   O     0.09058   0.75000   0.78044   0.00000  Uiso   1.00
O566   O     0.24275   0.75000   0.71955   0.00000  Uiso   1.00
O567   O     0.09058   0.75000   0.70096   0.00000  Uiso   1.00
O568   O     0.24275   0.75001   0.79903   0.00000  Uiso   1.00
C569   C     0.06714   0.74985   0.73772   0.00000  Uiso   1.00
C570   C     0.26620   0.75017   0.76228   0.00000  Uiso   1.00
Zn571  Zn    0.16667   0.75001   0.80307   0.00000  Uiso   1.00
Zn572  Zn    0.16667   0.75000   0.69693   0.00000  Uiso   1.00
C573   C     0.01290   0.74278   0.73236   0.00000  Uiso   1.00
C574   C     0.32044   0.75728   0.76762   0.00000  Uiso   1.00
C575   C     0.18316   0.54687   0.79202   0.00000  Uiso   1.00
C576   C     0.18427   0.95308   0.71281   0.00000  Uiso   1.00
H577   H     0.19757   0.52915   0.82461   0.00000  Uiso   1.00
H578   H     0.19956   0.97081   0.68452   0.00000  Uiso   1.00
C579   C     0.18338   0.59286   0.79216   0.00000  Uiso   1.00
C580   C     0.18450   0.90709   0.71277   0.00000  Uiso   1.00
H581   H     0.19768   0.61027   0.82498   0.00000  Uiso   1.00
H582   H     0.19968   0.88966   0.68426   0.00000  Uiso   1.00
C583   C     0.16612   0.61599   0.74993   0.00000  Uiso   1.00
C584   C     0.16611   0.88398   0.74987   0.00000  Uiso   1.00
C585   C     0.14826   0.59315   0.70764   0.00000  Uiso   1.00
C586   C     0.14708   0.90679   0.78678   0.00000  Uiso   1.00
H587   H     0.13433   0.61078   0.67487   0.00000  Uiso   1.00
H588   H     0.13226   0.88913   0.81536   0.00000  Uiso   1.00
C589   C     0.14749   0.54716   0.70764   0.00000  Uiso   1.00
C590   C     0.14630   0.95278   0.78651   0.00000  Uiso   1.00
H591   H     0.13282   0.52966   0.67498   0.00000  Uiso   1.00
H592   H     0.13074   0.97027   0.81477   0.00000  Uiso   1.00
C593   C     0.16512   0.52402   0.74979   0.00000  Uiso   1.00
C594   C     0.16509   0.97592   0.74964   0.00000  Uiso   1.00
C595   C     0.14232   0.71568   0.54940   0.00000  Uiso   1.00
C596   C     0.20833   0.76863   0.95293   0.00000  Uiso   1.00
H597   H     0.12369   0.68799   0.52917   0.00000  Uiso   1.00
H598   H     0.24190   0.78275   0.97514   0.00000  Uiso   1.00
C599   C     0.14262   0.71640   0.59907   0.00000  Uiso   1.00
C600   C     0.20743   0.76844   0.90318   0.00000  Uiso   1.00
H601   H     0.12366   0.68988   0.61594   0.00000  Uiso   1.00
H602   H     0.23958   0.78298   0.88809   0.00000  Uiso   1.00
N603   N     0.16667   0.74999   0.62623   0.00000  Uiso   1.00
N604   N     0.16667   0.75001   0.87376   0.00000  Uiso   1.00
C605   C     0.19079   0.78356   0.60547   0.00000  Uiso   1.00
C606   C     0.12587   0.73163   0.89235   0.00000  Uiso   1.00
H607   H     0.20976   0.81006   0.62739   0.00000  Uiso   1.00
H608   H     0.09367   0.71710   0.86872   0.00000  Uiso   1.00
C609   C     0.19112   0.78429   0.55588   0.00000  Uiso   1.00
C610   C     0.12499   0.73146   0.94185   0.00000  Uiso   1.00
H611   H     0.20976   0.81198   0.54061   0.00000  Uiso   1.00
H612   H     0.09142   0.71736   0.95514   0.00000  Uiso   1.00
C613   C     0.16670   0.75000   0.52670   0.00000  Uiso   1.00
C614   C     0.16667   0.75003   0.97333   0.00000  Uiso   1.00
N615   N     0.32385   0.71242   0.69536   0.00000  Uiso   1.00
O616   O     0.33121   0.71885   0.65139   0.00000  Uiso   1.00
O617   O     0.30227   0.67544   0.70657   0.00000  Uiso   1.00
N618   N     0.00949   0.78771   0.80455   0.00000  Uiso   1.00
O619   O     0.00210   0.78142   0.84851   0.00000  Uiso   1.00
O620   O     0.03117   0.82462   0.79326   0.00000  Uiso   1.00
O621   O     0.50000   0.68454   0.78974   0.00000  Uiso   1.00
O622   O     0.50000   0.81547   0.71026   0.00000  Uiso   1.00
O623   O     0.50000   0.68453   0.71026   0.00000  Uiso   1.00
O624   O     0.50000   0.81547   0.78974   0.00000  Uiso   1.00
C625   C     0.49992   0.66388   0.74999   0.00000  Uiso   1.00
C626   C     0.49992   0.83611   0.74998   0.00000  Uiso   1.00
O627   O     0.42392   0.75000   0.78044   0.00000  Uiso   1.00
O628   O     0.57608   0.75000   0.71955   0.00000  Uiso   1.00
O629   O     0.42392   0.75000   0.70096   0.00000  Uiso   1.00
O630   O     0.57608   0.75001   0.79903   0.00000  Uiso   1.00
C631   C     0.40047   0.74985   0.73772   0.00000  Uiso   1.00
C632   C     0.59953   0.75017   0.76228   0.00000  Uiso   1.00
Zn633  Zn    0.50000   0.75001   0.80307   0.00000  Uiso   1.00
Zn634  Zn    0.50000   0.75000   0.69693   0.00000  Uiso   1.00
C635   C     0.34623   0.74278   0.73236   0.00000  Uiso   1.00
C636   C     0.65378   0.75728   0.76762   0.00000  Uiso   1.00
C637   C     0.51649   0.54687   0.79202   0.00000  Uiso   1.00
C638   C     0.51760   0.95308   0.71281   0.00000  Uiso   1.00
H639   H     0.53090   0.52915   0.82461   0.00000  Uiso   1.00
H640   H     0.53290   0.97081   0.68452   0.00000  Uiso   1.00
C641   C     0.51672   0.59286   0.79216   0.00000  Uiso   1.00
C642   C     0.51783   0.90709   0.71277   0.00000  Uiso   1.00
H643   H     0.53101   0.61027   0.82498   0.00000  Uiso   1.00
H644   H     0.53301   0.88966   0.68426   0.00000  Uiso   1.00
C645   C     0.49945   0.61599   0.74993   0.00000  Uiso   1.00
C646   C     0.49944   0.88398   0.74987   0.00000  Uiso   1.00
C647   C     0.48159   0.59315   0.70764   0.00000  Uiso   1.00
C648   C     0.48042   0.90679   0.78678   0.00000  Uiso   1.00
H649   H     0.46766   0.61078   0.67487   0.00000  Uiso   1.00
H650   H     0.46559   0.88913   0.81536   0.00000  Uiso   1.00
C651   C     0.48082   0.54716   0.70764   0.00000  Uiso   1.00
C652   C     0.47963   0.95278   0.78651   0.00000  Uiso   1.00
H653   H     0.46615   0.52966   0.67498   0.00000  Uiso   1.00
H654   H     0.46407   0.97027   0.81477   0.00000  Uiso   1.00
C655   C     0.49845   0.52402   0.74979   0.00000  Uiso   1.00
C656   C     0.49843   0.97592   0.74964   0.00000  Uiso   1.00
C657   C     0.47565   0.71568   0.54940   0.00000  Uiso   1.00
C658   C     0.54166   0.76863   0.95293   0.00000  Uiso   1.00
H659   H     0.45703   0.68799   0.52917   0.00000  Uiso   1.00
H660   H     0.57523   0.78275   0.97514   0.00000  Uiso   1.00
C661   C     0.47595   0.71640   0.59907   0.00000  Uiso   1.00
C662   C     0.54077   0.76844   0.90318   0.00000  Uiso   1.00
H663   H     0.45699   0.68988   0.61594   0.00000  Uiso   1.00
H664   H     0.57292   0.78298   0.88809   0.00000  Uiso   1.00
N665   N     0.50000   0.74999   0.62623   0.00000  Uiso   1.00
N666   N     0.50000   0.75001   0.87376   0.00000  Uiso   1.00
C667   C     0.52413   0.78356   0.60547   0.00000  Uiso   1.00
C668   C     0.45921   0.73163   0.89235   0.00000  Uiso   1.00
H669   H     0.54310   0.81006   0.62739   0.00000  Uiso   1.00
H670   H     0.42700   0.71710   0.86872   0.00000  Uiso   1.00
C671   C     0.52445   0.78429   0.55588   0.00000  Uiso   1.00
C672   C     0.45832   0.73146   0.94185   0.00000  Uiso   1.00
H673   H     0.54310   0.81198   0.54061   0.00000  Uiso   1.00
H674   H     0.42475   0.71736   0.95514   0.00000  Uiso   1.00
C675   C     0.50004   0.75000   0.52670   0.00000  Uiso   1.00
C676   C     0.50001   0.75003   0.97333   0.00000  Uiso   1.00
N677   N     0.65719   0.71242   0.69536   0.00000  Uiso   1.00
O678   O     0.66454   0.71885   0.65139   0.00000  Uiso   1.00
O679   O     0.63560   0.67544   0.70657   0.00000  Uiso   1.00
N680   N     0.34282   0.78771   0.80455   0.00000  Uiso   1.00
O681   O     0.33543   0.78142   0.84851   0.00000  Uiso   1.00
O682   O     0.36450   0.82462   0.79326   0.00000  Uiso   1.00
O683   O     0.83334   0.68454   0.78974   0.00000  Uiso   1.00
O684   O     0.83333   0.81547   0.71026   0.00000  Uiso   1.00
O685   O     0.83334   0.68453   0.71026   0.00000  Uiso   1.00
O686   O     0.83333   0.81547   0.78974   0.00000  Uiso   1.00
C687   C     0.83325   0.66388   0.74999   0.00000  Uiso   1.00
C688   C     0.83326   0.83611   0.74998   0.00000  Uiso   1.00
O689   O     0.75725   0.75000   0.78044   0.00000  Uiso   1.00
O690   O     0.90942   0.75000   0.71955   0.00000  Uiso   1.00
O691   O     0.75725   0.75000   0.70096   0.00000  Uiso   1.00
O692   O     0.90942   0.75001   0.79903   0.00000  Uiso   1.00
C693   C     0.73381   0.74985   0.73772   0.00000  Uiso   1.00
C694   C     0.93287   0.75017   0.76228   0.00000  Uiso   1.00
Zn695  Zn    0.83333   0.75001   0.80307   0.00000  Uiso   1.00
Zn696  Zn    0.83333   0.75000   0.69693   0.00000  Uiso   1.00
C697   C     0.67957   0.74278   0.73236   0.00000  Uiso   1.00
C698   C     0.98711   0.75728   0.76762   0.00000  Uiso   1.00
C699   C     0.84982   0.54687   0.79202   0.00000  Uiso   1.00
C700   C     0.85093   0.95308   0.71281   0.00000  Uiso   1.00
H701   H     0.86423   0.52915   0.82461   0.00000  Uiso   1.00
H702   H     0.86623   0.97081   0.68452   0.00000  Uiso   1.00
C703   C     0.85005   0.59286   0.79216   0.00000  Uiso   1.00
C704   C     0.85116   0.90709   0.71277   0.00000  Uiso   1.00
H705   H     0.86434   0.61027   0.82498   0.00000  Uiso   1.00
H706   H     0.86635   0.88966   0.68426   0.00000  Uiso   1.00
C707   C     0.83278   0.61599   0.74993   0.00000  Uiso   1.00
C708   C     0.83278   0.88398   0.74987   0.00000  Uiso   1.00
C709   C     0.81492   0.59315   0.70764   0.00000  Uiso   1.00
C710   C     0.81375   0.90679   0.78678   0.00000  Uiso   1.00
H711   H     0.80099   0.61078   0.67487   0.00000  Uiso   1.00
H712   H     0.79893   0.88913   0.81536   0.00000  Uiso   1.00
C713   C     0.81415   0.54716   0.70764   0.00000  Uiso   1.00
C714   C     0.81297   0.95278   0.78651   0.00000  Uiso   1.00
H715   H     0.79949   0.52966   0.67498   0.00000  Uiso   1.00
H716   H     0.79740   0.97027   0.81477   0.00000  Uiso   1.00
C717   C     0.83179   0.52402   0.74979   0.00000  Uiso   1.00
C718   C     0.83176   0.97592   0.74964   0.00000  Uiso   1.00
C719   C     0.80899   0.71568   0.54940   0.00000  Uiso   1.00
C720   C     0.87500   0.76863   0.95293   0.00000  Uiso   1.00
H721   H     0.79036   0.68799   0.52917   0.00000  Uiso   1.00
H722   H     0.90856   0.78275   0.97514   0.00000  Uiso   1.00
C723   C     0.80928   0.71640   0.59907   0.00000  Uiso   1.00
C724   C     0.87410   0.76844   0.90318   0.00000  Uiso   1.00
H725   H     0.79033   0.68988   0.61594   0.00000  Uiso   1.00
H726   H     0.90625   0.78298   0.88809   0.00000  Uiso   1.00
N727   N     0.83333   0.74999   0.62623   0.00000  Uiso   1.00
N728   N     0.83333   0.75001   0.87376   0.00000  Uiso   1.00
C729   C     0.85746   0.78356   0.60547   0.00000  Uiso   1.00
C730   C     0.79254   0.73163   0.89235   0.00000  Uiso   1.00
H731   H     0.87643   0.81006   0.62739   0.00000  Uiso   1.00
H732   H     0.76034   0.71710   0.86872   0.00000  Uiso   1.00
C733   C     0.85778   0.78429   0.55588   0.00000  Uiso   1.00
C734   C     0.79165   0.73146   0.94185   0.00000  Uiso   1.00
H735   H     0.87643   0.81198   0.54061   0.00000  Uiso   1.00
H736   H     0.75808   0.71736   0.95514   0.00000  Uiso   1.00
C737   C     0.83337   0.75000   0.52670   0.00000  Uiso   1.00
C738   C     0.83334   0.75003   0.97333   0.00000  Uiso   1.00
N739   N     0.99052   0.71242   0.69536   0.00000  Uiso   1.00
O740   O     0.99787   0.71885   0.65139   0.00000  Uiso   1.00
O741   O     0.96894   0.67544   0.70657   0.00000  Uiso   1.00
N742   N     0.67615   0.78771   0.80455   0.00000  Uiso   1.00
O743   O     0.66877   0.78142   0.84851   0.00000  Uiso   1.00
O744   O     0.69784   0.82462   0.79326   0.00000  Uiso   1.00
loop_
_geom_bond_atom_site_label_1
_geom_bond_atom_site_label_2
_geom_bond_distance
_geom_bond_site_symmetry_2
_ccdc_geom_bond_type
O1     C5      1.286   .     A
O1     Zn13    2.001   .     S
O2     C6      1.285   .     A
O2     Zn14    2.001   .     S
O3     Zn14    2.001   .     S
O3     C5      1.285   .     A
O4     C6      1.285   .     A
O4     Zn13    2.001   .     S
C5     C25     1.437   .     S
C6     C26     1.437   .     S
O7     C11     1.272   .     A
O7     Zn13    1.980   .     S
O8     C12     1.273   .     A
O8     Zn14    1.980   .     S
O9     Zn14    1.990   .     S
O9     C11     1.280   .     A
O10    C12     1.280   .     A
O10    Zn13    1.990   .     S
C11    C15     1.406   .     S
C12    C16     1.406   .     S
Zn13   N46     2.003   .     S
Zn14   N45     2.003   .     S
C15    C140    1.352   1_455 S
C15    N181    1.445   1_455 S
C16    C77     1.352   .     S
C16    N122    1.445   .     S
C17    H19     1.083   .     S
C17    C35     1.399   .     A
C17    C21     1.380   .     A
C18    C22     1.380   .     A
C18    H20     1.083   .     S
C18    C36     1.399   .     A
C21    H23     1.083   .     S
C21    C25     1.399   .     A
C22    H24     1.084   .     S
C22    C26     1.399   .     A
C25    C27     1.399   .     A
C26    C28     1.399   .     A
C27    C31     1.380   .     A
C27    H29     1.084   .     S
C28    C32     1.380   .     A
C28    H30     1.084   .     S
C31    H33     1.083   .     S
C31    C35     1.399   .     A
C32    C36     1.399   .     A
C32    H34     1.083   .     S
C35    C222    1.444   1_545 S
C36    C221    1.444   .     S
C37    H39     1.082   .     S
C37    C41     1.406   .     A
C37    C55     1.410   .     A
C38    H40     1.082   .     S
C38    C56     1.410   .     A
C38    C42     1.406   .     A
C41    N45     1.363   .     A
C41    H43     1.082   .     S
C42    N46     1.363   .     A
C42    H44     1.081   .     S
N45    C47     1.363   .     A
N46    C48     1.363   .     A
C47    H49     1.082   .     S
C47    C51     1.406   .     A
C48    H50     1.081   .     S
C48    C52     1.406   .     A
C51    C55     1.410   .     A
C51    H53     1.082   .     S
C52    H54     1.082   .     S
C52    C56     1.410   .     A
C55    C428    1.512   1_554 S
C56    C427    1.512   .     S
N57    O58     1.301   .     A
N57    O59     1.302   .     A
N57    C77     1.445   .     S
N60    O62     1.302   .     A
N60    O61     1.301   .     A
N60    C140    1.445   1_455 S
O63    C67     1.286   .     A
O63    Zn75    2.001   .     S
O64    C68     1.285   .     A
O64    Zn76    2.001   .     S
O65    Zn76    2.001   .     S
O65    C67     1.285   .     A
O66    C68     1.285   .     A
O66    Zn75    2.001   .     S
C67    C87     1.437   .     S
C68    C88     1.437   .     S
O69    C73     1.272   .     A
O69    Zn75    1.980   .     S
O70    C74     1.273   .     A
O70    Zn76    1.980   .     S
O71    Zn76    1.990   .     S
O71    C73     1.280   .     A
O72    C74     1.280   .     A
O72    Zn75    1.990   .     S
C73    C77     1.406   .     S
C74    C78     1.406   .     S
Zn75   N108    2.003   .     S
Zn76   N107    2.003   .     S
C78    C139    1.352   .     S
C78    N184    1.445   .     S
C79    H81     1.083   .     S
C79    C97     1.399   .     A
C79    C83     1.380   .     A
C80    C84     1.380   .     A
C80    H82     1.083   .     S
C80    C98     1.399   .     A
C83    H85     1.083   .     S
C83    C87     1.399   .     A
C84    H86     1.084   .     S
C84    C88     1.399   .     A
C87    C89     1.399   .     A
C88    C90     1.399   .     A
C89    C93     1.380   .     A
C89    H91     1.084   .     S
C90    C94     1.380   .     A
C90    H92     1.084   .     S
C93    H95     1.083   .     S
C93    C97     1.399   .     A
C94    C98     1.399   .     A
C94    H96     1.083   .     S
C97    C284    1.444   1_545 S
C98    C283    1.444   .     S
C99    H101    1.082   .     S
C99    C103    1.406   .     A
C99    C117    1.410   .     A
C100   H102    1.082   .     S
C100   C118    1.410   .     A
C100   C104    1.406   .     A
C103   N107    1.363   .     A
C103   H105    1.082   .     S
C104   N108    1.363   .     A
C104   H106    1.081   .     S
N107   C109    1.363   .     A
N108   C110    1.363   .     A
C109   H111    1.082   .     S
C109   C113    1.406   .     A
C110   H112    1.081   .     S
C110   C114    1.406   .     A
C113   C117    1.410   .     A
C113   H115    1.082   .     S
C114   H116    1.082   .     S
C114   C118    1.410   .     A
C117   C490    1.512   1_554 S
C118   C489    1.512   .     S
N119   O120    1.301   .     A
N119   O121    1.302   .     A
N119   C139    1.445   .     S
N122   O124    1.302   .     A
N122   O123    1.301   .     A
O125   C129    1.286   .     A
O125   Zn137   2.001   .     S
O126   C130    1.285   .     A
O126   Zn138   2.001   .     S
O127   Zn138   2.001   .     S
O127   C129    1.285   .     A
O128   C130    1.285   .     A
O128   Zn137   2.001   .     S
C129   C149    1.437   .     S
C130   C150    1.437   .     S
O131   C135    1.272   .     A
O131   Zn137   1.980   .     S
O132   C136    1.273   .     A
O132   Zn138   1.980   .     S
O133   Zn138   1.990   .     S
O133   C135    1.280   .     A
O134   C136    1.280   .     A
O134   Zn137   1.990   .     S
C135   C139    1.406   .     S
C136   C140    1.406   .     S
Zn137  N170    2.003   .     S
Zn138  N169    2.003   .     S
C140   C15     1.352   1_655 S
C140   N60     1.445   1_655 S
C141   H143    1.083   .     S
C141   C159    1.399   .     A
C141   C145    1.380   .     A
C142   C146    1.380   .     A
C142   H144    1.083   .     S
C142   C160    1.399   .     A
C145   H147    1.083   .     S
C145   C149    1.399   .     A
C146   H148    1.084   .     S
C146   C150    1.399   .     A
C149   C151    1.399   .     A
C150   C152    1.399   .     A
C151   C155    1.380   .     A
C151   H153    1.084   .     S
C152   C156    1.380   .     A
C152   H154    1.084   .     S
C155   H157    1.083   .     S
C155   C159    1.399   .     A
C156   C160    1.399   .     A
C156   H158    1.083   .     S
C159   C346    1.444   1_545 S
C160   C345    1.444   .     S
C161   H163    1.082   .     S
C161   C165    1.406   .     A
C161   C179    1.410   .     A
C162   H164    1.082   .     S
C162   C180    1.410   .     A
C162   C166    1.406   .     A
C165   N169    1.363   .     A
C165   H167    1.082   .     S
C166   N170    1.363   .     A
C166   H168    1.081   .     S
N169   C171    1.363   .     A
N170   C172    1.363   .     A
C171   H173    1.082   .     S
C171   C175    1.406   .     A
C172   H174    1.081   .     S
C172   C176    1.406   .     A
C175   C179    1.410   .     A
C175   H177    1.082   .     S
C176   H178    1.082   .     S
C176   C180    1.410   .     A
C179   C552    1.512   1_554 S
C180   C551    1.512   .     S
N181   O182    1.301   .     A
N181   O183    1.302   .     A
N181   C15     1.445   1_655 S
N184   O186    1.302   .     A
N184   O185    1.301   .     A
O187   C191    1.286   .     A
O187   Zn199   2.001   .     S
O188   C192    1.285   .     A
O188   Zn200   2.001   .     S
O189   Zn200   2.001   .     S
O189   C191    1.285   .     A
O190   C192    1.285   .     A
O190   Zn199   2.001   .     S
C191   C211    1.437   .     S
C192   C212    1.437   .     S
O193   C197    1.272   .     A
O193   Zn199   1.980   .     S
O194   C198    1.273   .     A
O194   Zn200   1.980   .     S
O195   Zn200   1.990   .     S
O195   C197    1.280   .     A
O196   C198    1.280   .     A
O196   Zn199   1.990   .     S
C197   C201    1.406   .     S
C198   C202    1.406   .     S
Zn199  N232    2.003   .     S
Zn200  N231    2.003   .     S
C201   C326    1.352   1_455 S
C201   N367    1.445   1_455 S
C202   C263    1.352   .     S
C202   N308    1.445   .     S
C203   H205    1.083   .     S
C203   C221    1.399   .     A
C203   C207    1.380   .     A
C204   C208    1.380   .     A
C204   H206    1.083   .     S
C204   C222    1.399   .     A
C207   H209    1.083   .     S
C207   C211    1.399   .     A
C208   H210    1.084   .     S
C208   C212    1.399   .     A
C211   C213    1.399   .     A
C212   C214    1.399   .     A
C213   C217    1.380   .     A
C213   H215    1.084   .     S
C214   C218    1.380   .     A
C214   H216    1.084   .     S
C217   H219    1.083   .     S
C217   C221    1.399   .     A
C218   C222    1.399   .     A
C218   H220    1.083   .     S
C222   C35     1.444   1_565 S
C223   H225    1.082   .     S
C223   C227    1.406   .     A
C223   C241    1.410   .     A
C224   H226    1.082   .     S
C224   C242    1.410   .     A
C224   C228    1.406   .     A
C227   N231    1.363   .     A
C227   H229    1.082   .     S
C228   N232    1.363   .     A
C228   H230    1.081   .     S
N231   C233    1.363   .     A
N232   C234    1.363   .     A
C233   H235    1.082   .     S
C233   C237    1.406   .     A
C234   H236    1.081   .     S
C234   C238    1.406   .     A
C237   C241    1.410   .     A
C237   H239    1.082   .     S
C238   H240    1.082   .     S
C238   C242    1.410   .     A
C241   C614    1.512   1_554 S
C242   C613    1.512   .     S
N243   O244    1.301   .     A
N243   O245    1.302   .     A
N243   C263    1.445   .     S
N246   O248    1.302   .     A
N246   O247    1.301   .     A
N246   C326    1.445   1_455 S
O249   C253    1.286   .     A
O249   Zn261   2.001   .     S
O250   C254    1.285   .     A
O250   Zn262   2.001   .     S
O251   Zn262   2.001   .     S
O251   C253    1.285   .     A
O252   C254    1.285   .     A
O252   Zn261   2.001   .     S
C253   C273    1.437   .     S
C254   C274    1.437   .     S
O255   C259    1.272   .     A
O255   Zn261   1.980   .     S
O256   C260    1.273   .     A
O256   Zn262   1.980   .     S
O257   Zn262   1.990   .     S
O257   C259    1.280   .     A
O258   C260    1.280   .     A
O258   Zn261   1.990   .     S
C259   C263    1.406   .     S
C260   C264    1.406   .     S
Zn261  N294    2.003   .     S
Zn262  N293    2.003   .     S
C264   C325    1.352   .     S
C264   N370    1.445   .     S
C265   H267    1.083   .     S
C265   C283    1.399   .     A
C265   C269    1.380   .     A
C266   C270    1.380   .     A
C266   H268    1.083   .     S
C266   C284    1.399   .     A
C269   H271    1.083   .     S
C269   C273    1.399   .     A
C270   H272    1.084   .     S
C270   C274    1.399   .     A
C273   C275    1.399   .     A
C274   C276    1.399   .     A
C275   C279    1.380   .     A
C275   H277    1.084   .     S
C276   C280    1.380   .     A
C276   H278    1.084   .     S
C279   H281    1.083   .     S
C279   C283    1.399   .     A
C280   C284    1.399   .     A
C280   H282    1.083   .     S
C284   C97     1.444   1_565 S
C285   H287    1.082   .     S
C285   C289    1.406   .     A
C285   C303    1.410   .     A
C286   H288    1.082   .     S
C286   C304    1.410   .     A
C286   C290    1.406   .     A
C289   N293    1.363   .     A
C289   H291    1.082   .     S
C290   N294    1.363   .     A
C290   H292    1.081   .     S
N293   C295    1.363   .     A
N294   C296    1.363   .     A
C295   H297    1.082   .     S
C295   C299    1.406   .     A
C296   H298    1.081   .     S
C296   C300    1.406   .     A
C299   C303    1.410   .     A
C299   H301    1.082   .     S
C300   H302    1.082   .     S
C300   C304    1.410   .     A
C303   C676    1.512   1_554 S
C304   C675    1.512   .     S
N305   O306    1.301   .     A
N305   O307    1.302   .     A
N305   C325    1.445   .     S
N308   O310    1.302   .     A
N308   O309    1.301   .     A
O311   C315    1.286   .     A
O311   Zn323   2.001   .     S
O312   C316    1.285   .     A
O312   Zn324   2.001   .     S
O313   Zn324   2.001   .     S
O313   C315    1.285   .     A
O314   C316    1.285   .     A
O314   Zn323   2.001   .     S
C315   C335    1.437   .     S
C316   C336    1.437   .     S
O317   C321    1.272   .     A
O317   Zn323   1.980   .     S
O318   C322    1.273   .     A
O318   Zn324   1.980   .     S
O319   Zn324   1.990   .     S
O319   C321    1.280   .     A
O320   C322    1.280   .     A
O320   Zn323   1.990   .     S
C321   C325    1.406   .     S
C322   C326    1.406   .     S
Zn323  N356    2.003   .     S
Zn324  N355    2.003   .     S
C326   C201    1.352   1_655 S
C326   N246    1.445   1_655 S
C327   H329    1.083   .     S
C327   C345    1.399   .     A
C327   C331    1.380   .     A
C328   C332    1.380   .     A
C328   H330    1.083   .     S
C328   C346    1.399   .     A
C331   H333    1.083   .     S
C331   C335    1.399   .     A
C332   H334    1.084   .     S
C332   C336    1.399   .     A
C335   C337    1.399   .     A
C336   C338    1.399   .     A
C337   C341    1.380   .     A
C337   H339    1.084   .     S
C338   C342    1.380   .     A
C338   H340    1.084   .     S
C341   H343    1.083   .     S
C341   C345    1.399   .     A
C342   C346    1.399   .     A
C342   H344    1.083   .     S
C346   C159    1.444   1_565 S
C347   H349    1.082   .     S
C347   C351    1.406   .     A
C347   C365    1.410   .     A
C348   H350    1.082   .     S
C348   C366    1.410   .     A
C348   C352    1.406   .     A
C351   N355    1.363   .     A
C351   H353    1.082   .     S
C352   N356    1.363   .     A
C352   H354    1.081   .     S
N355   C357    1.363   .     A
N356   C358    1.363   .     A
C357   H359    1.082   .     S
C357   C361    1.406   .     A
C358   H360    1.081   .     S
C358   C362    1.406   .     A
C361   C365    1.410   .     A
C361   H363    1.082   .     S
C362   H364    1.082   .     S
C362   C366    1.410   .     A
C365   C738    1.512   1_554 S
C366   C737    1.512   .     S
N367   O368    1.301   .     A
N367   O369    1.302   .     A
N367   C201    1.445   1_655 S
N370   O372    1.302   .     A
N370   O371    1.301   .     A
O373   C377    1.286   .     A
O373   Zn385   2.001   .     S
O374   C378    1.285   .     A
O374   Zn386   2.001   .     S
O375   Zn386   2.001   .     S
O375   C377    1.285   .     A
O376   C378    1.285   .     A
O376   Zn385   2.001   .     S
C377   C397    1.437   .     S
C378   C398    1.437   .     S
O379   C383    1.272   .     A
O379   Zn385   1.980   .     S
O380   C384    1.273   .     A
O380   Zn386   1.980   .     S
O381   Zn386   1.990   .     S
O381   C383    1.280   .     A
O382   C384    1.280   .     A
O382   Zn385   1.990   .     S
C383   C387    1.406   .     S
C384   C388    1.406   .     S
Zn385  N418    2.003   .     S
Zn386  N417    2.003   .     S
C387   C512    1.352   1_455 S
C387   N553    1.445   1_455 S
C388   C449    1.352   .     S
C388   N494    1.445   .     S
C389   H391    1.083   .     S
C389   C407    1.399   .     A
C389   C393    1.380   .     A
C390   C394    1.380   .     A
C390   H392    1.083   .     S
C390   C408    1.399   .     A
C393   H395    1.083   .     S
C393   C397    1.399   .     A
C394   H396    1.084   .     S
C394   C398    1.399   .     A
C397   C399    1.399   .     A
C398   C400    1.399   .     A
C399   C403    1.380   .     A
C399   H401    1.084   .     S
C400   C404    1.380   .     A
C400   H402    1.084   .     S
C403   H405    1.083   .     S
C403   C407    1.399   .     A
C404   C408    1.399   .     A
C404   H406    1.083   .     S
C407   C594    1.444   1_545 S
C408   C593    1.444   .     S
C409   H411    1.082   .     S
C409   C413    1.406   .     A
C409   C427    1.410   .     A
C410   H412    1.082   .     S
C410   C428    1.410   .     A
C410   C414    1.406   .     A
C413   N417    1.363   .     A
C413   H415    1.082   .     S
C414   N418    1.363   .     A
C414   H416    1.081   .     S
N417   C419    1.363   .     A
N418   C420    1.363   .     A
C419   H421    1.082   .     S
C419   C423    1.406   .     A
C420   H422    1.081   .     S
C420   C424    1.406   .     A
C423   C427    1.410   .     A
C423   H425    1.082   .     S
C424   H426    1.082   .     S
C424   C428    1.410   .     A
C428   C55     1.512   1_556 S
N429   O430    1.301   .     A
N429   O431    1.302   .     A
N429   C449    1.445   .     S
N432   O434    1.302   .     A
N432   O433    1.301   .     A
N432   C512    1.445   1_455 S
O435   C439    1.286   .     A
O435   Zn447   2.001   .     S
O436   C440    1.285   .     A
O436   Zn448   2.001   .     S
O437   Zn448   2.001   .     S
O437   C439    1.285   .     A
O438   C440    1.285   .     A
O438   Zn447   2.001   .     S
C439   C459    1.437   .     S
C440   C460    1.437   .     S
O441   C445    1.272   .     A
O441   Zn447   1.980   .     S
O442   C446    1.273   .     A
O442   Zn448   1.980   .     S
O443   Zn448   1.990   .     S
O443   C445    1.280   .     A
O444   C446    1.280   .     A
O444   Zn447   1.990   .     S
C445   C449    1.406   .     S
C446   C450    1.406   .     S
Zn447  N480    2.003   .     S
Zn448  N479    2.003   .     S
C450   C511    1.352   .     S
C450   N556    1.445   .     S
C451   H453    1.083   .     S
C451   C469    1.399   .     A
C451   C455    1.380   .     A
C452   C456    1.380   .     A
C452   H454    1.083   .     S
C452   C470    1.399   .     A
C455   H457    1.083   .     S
C455   C459    1.399   .     A
C456   H458    1.084   .     S
C456   C460    1.399   .     A
C459   C461    1.399   .     A
C460   C462    1.399   .     A
C461   C465    1.380   .     A
C461   H463    1.084   .     S
C462   C466    1.380   .     A
C462   H464    1.084   .     S
C465   H467    1.083   .     S
C465   C469    1.399   .     A
C466   C470    1.399   .     A
C466   H468    1.083   .     S
C469   C656    1.444   1_545 S
C470   C655    1.444   .     S
C471   H473    1.082   .     S
C471   C475    1.406   .     A
C471   C489    1.410   .     A
C472   H474    1.082   .     S
C472   C490    1.410   .     A
C472   C476    1.406   .     A
C475   N479    1.363   .     A
C475   H477    1.082   .     S
C476   N480    1.363   .     A
C476   H478    1.081   .     S
N479   C481    1.363   .     A
N480   C482    1.363   .     A
C481   H483    1.082   .     S
C481   C485    1.406   .     A
C482   H484    1.081   .     S
C482   C486    1.406   .     A
C485   C489    1.410   .     A
C485   H487    1.082   .     S
C486   H488    1.082   .     S
C486   C490    1.410   .     A
C490   C117    1.512   1_556 S
N491   O492    1.301   .     A
N491   O493    1.302   .     A
N491   C511    1.445   .     S
N494   O496    1.302   .     A
N494   O495    1.301   .     A
O497   C501    1.286   .     A
O497   Zn509   2.001   .     S
O498   C502    1.285   .     A
O498   Zn510   2.001   .     S
O499   Zn510   2.001   .     S
O499   C501    1.285   .     A
O500   C502    1.285   .     A
O500   Zn509   2.001   .     S
C501   C521    1.437   .     S
C502   C522    1.437   .     S
O503   C507    1.272   .     A
O503   Zn509   1.980   .     S
O504   C508    1.273   .     A
O504   Zn510   1.980   .     S
O505   Zn510   1.990   .     S
O505   C507    1.280   .     A
O506   C508    1.280   .     A
O506   Zn509   1.990   .     S
C507   C511    1.406   .     S
C508   C512    1.406   .     S
Zn509  N542    2.003   .     S
Zn510  N541    2.003   .     S
C512   C387    1.352   1_655 S
C512   N432    1.445   1_655 S
C513   H515    1.083   .     S
C513   C531    1.399   .     A
C513   C517    1.380   .     A
C514   C518    1.380   .     A
C514   H516    1.083   .     S
C514   C532    1.399   .     A
C517   H519    1.083   .     S
C517   C521    1.399   .     A
C518   H520    1.084   .     S
C518   C522    1.399   .     A
C521   C523    1.399   .     A
C522   C524    1.399   .     A
C523   C527    1.380   .     A
C523   H525    1.084   .     S
C524   C528    1.380   .     A
C524   H526    1.084   .     S
C527   H529    1.083   .     S
C527   C531    1.399   .     A
C528   C532    1.399   .     A
C528   H530    1.083   .     S
C531   C718    1.444   1_545 S
C532   C717    1.444   .     S
C533   H535    1.082   .     S
C533   C537    1.406   .     A
C533   C551    1.410   .     A
C534   H536    1.082   .     S
C534   C552    1.410   .     A
C534   C538    1.406   .     A
C537   N541    1.363   .     A
C537   H539    1.082   .     S
C538   N542    1.363   .     A
C538   H540    1.081   .     S
N541   C543    1.363   .     A
N542   C544    1.363   .     A
C543   H545    1.082   .     S
C543   C547    1.406   .     A
C544   H546    1.081   .     S
C544   C548    1.406   .     A
C547   C551    1.410   .     A
C547   H549    1.082   .     S
C548   H550    1.082   .     S
C548   C552    1.410   .     A
C552   C179    1.512   1_556 S
N553   O554    1.301   .     A
N553   O555    1.302   .     A
N553   C387    1.445   1_655 S
N556   O558    1.302   .     A
N556   O557    1.301   .     A
O559   C563    1.286   .     A
O559   Zn571   2.001   .     S
O560   C564    1.285   .     A
O560   Zn572   2.001   .     S
O561   Zn572   2.001   .     S
O561   C563    1.285   .     A
O562   C564    1.285   .     A
O562   Zn571   2.001   .     S
C563   C583    1.437   .     S
C564   C584    1.437   .     S
O565   C569    1.272   .     A
O565   Zn571   1.980   .     S
O566   C570    1.273   .     A
O566   Zn572   1.980   .     S
O567   Zn572   1.990   .     S
O567   C569    1.280   .     A
O568   C570    1.280   .     A
O568   Zn571   1.990   .     S
C569   C573    1.406   .     S
C570   C574    1.406   .     S
Zn571  N604    2.003   .     S
Zn572  N603    2.003   .     S
C573   C698    1.352   1_455 S
C573   N739    1.445   1_455 S
C574   C635    1.352   .     S
C574   N680    1.445   .     S
C575   H577    1.083   .     S
C575   C593    1.399   .     A
C575   C579    1.380   .     A
C576   C580    1.380   .     A
C576   H578    1.083   .     S
C576   C594    1.399   .     A
C579   H581    1.083   .     S
C579   C583    1.399   .     A
C580   H582    1.084   .     S
C580   C584    1.399   .     A
C583   C585    1.399   .     A
C584   C586    1.399   .     A
C585   C589    1.380   .     A
C585   H587    1.084   .     S
C586   C590    1.380   .     A
C586   H588    1.084   .     S
C589   H591    1.083   .     S
C589   C593    1.399   .     A
C590   C594    1.399   .     A
C590   H592    1.083   .     S
C594   C407    1.444   1_565 S
C595   H597    1.082   .     S
C595   C599    1.406   .     A
C595   C613    1.410   .     A
C596   H598    1.082   .     S
C596   C614    1.410   .     A
C596   C600    1.406   .     A
C599   N603    1.363   .     A
C599   H601    1.082   .     S
C600   N604    1.363   .     A
C600   H602    1.081   .     S
N603   C605    1.363   .     A
N604   C606    1.363   .     A
C605   H607    1.082   .     S
C605   C609    1.406   .     A
C606   H608    1.081   .     S
C606   C610    1.406   .     A
C609   C613    1.410   .     A
C609   H611    1.082   .     S
C610   H612    1.082   .     S
C610   C614    1.410   .     A
C614   C241    1.512   1_556 S
N615   O616    1.301   .     A
N615   O617    1.302   .     A
N615   C635    1.445   .     S
N618   O620    1.302   .     A
N618   O619    1.301   .     A
N618   C698    1.445   1_455 S
O621   C625    1.286   .     A
O621   Zn633   2.001   .     S
O622   C626    1.285   .     A
O622   Zn634   2.001   .     S
O623   Zn634   2.001   .     S
O623   C625    1.285   .     A
O624   C626    1.285   .     A
O624   Zn633   2.001   .     S
C625   C645    1.437   .     S
C626   C646    1.437   .     S
O627   C631    1.272   .     A
O627   Zn633   1.980   .     S
O628   C632    1.273   .     A
O628   Zn634   1.980   .     S
O629   Zn634   1.990   .     S
O629   C631    1.280   .     A
O630   C632    1.280   .     A
O630   Zn633   1.990   .     S
C631   C635    1.406   .     S
C632   C636    1.406   .     S
Zn633  N666    2.003   .     S
Zn634  N665    2.003   .     S
C636   C697    1.352   .     S
C636   N742    1.445   .     S
C637   H639    1.083   .     S
C637   C655    1.399   .     A
C637   C641    1.380   .     A
C638   C642    1.380   .     A
C638   H640    1.083   .     S
C638   C656    1.399   .     A
C641   H643    1.083   .     S
C641   C645    1.399   .     A
C642   H644    1.084   .     S
C642   C646    1.399   .     A
C645   C647    1.399   .     A
C646   C648    1.399   .     A
C647   C651    1.380   .     A
C647   H649    1.084   .     S
C648   C652    1.380   .     A
C648   H650    1.084   .     S
C651   H653    1.083   .     S
C651   C655    1.399   .     A
C652   C656    1.399   .     A
C652   H654    1.083   .     S
C656   C469    1.444   1_565 S
C657   H659    1.082   .     S
C657   C661    1.406   .     A
C657   C675    1.410   .     A
C658   H660    1.082   .     S
C658   C676    1.410   .     A
C658   C662    1.406   .     A
C661   N665    1.363   .     A
C661   H663    1.082   .     S
C662   N666    1.363   .     A
C662   H664    1.081   .     S
N665   C667    1.363   .     A
N666   C668    1.363   .     A
C667   H669    1.082   .     S
C667   C671    1.406   .     A
C668   H670    1.081   .     S
C668   C672    1.406   .     A
C671   C675    1.410   .     A
C671   H673    1.082   .     S
C672   H674    1.082   .     S
C672   C676    1.410   .     A
C676   C303    1.512   1_556 S
N677   O678    1.301   .     A
N677   O679    1.302   .     A
N677   C697    1.445   .     S
N680   O682    1.302   .     A
N680   O681    1.301   .     A
O683   C687    1.286   .     A
O683   Zn695   2.001   .     S
O684   C688    1.285   .     A
O684   Zn696   2.001   .     S
O685   Zn696   2.001   .     S
O685   C687    1.285   .     A
O686   C688    1.285   .     A
O686   Zn695   2.001   .     S
C687   C707    1.437   .     S
C688   C708    1.437   .     S
O689   C693    1.272   .     A
O689   Zn695   1.980   .     S
O690   C694    1.273   .     A
O690   Zn696   1.980   .     S
O691   Zn696   1.990   .     S
O691   C693    1.280   .     A
O692   C694    1.280   .     A
O692   Zn695   1.990   .     S
C693   C697    1.406   .     S
C694   C698    1.406   .     S
Zn695  N728    2.003   .     S
Zn696  N727    2.003   .     S
C698   C573    1.352   1_655 S
C698   N618    1.445   1_655 S
C699   H701    1.083   .     S
C699   C717    1.399   .     A
C699   C703    1.380   .     A
C700   C704    1.380   .     A
C700   H702    1.083   .     S
C700   C718    1.399   .     A
C703   H705    1.083   .     S
C703   C707    1.399   .     A
C704   H706    1.084   .     S
C704   C708    1.399   .     A
C707   C709    1.399   .     A
C708   C710    1.399   .     A
C709   C713    1.380   .     A
C709   H711    1.084   .     S
C710   C714    1.380   .     A
C710   H712    1.084   .     S
C713   H715    1.083   .     S
C713   C717    1.399   .     A
C714   C718    1.399   .     A
C714   H716    1.083   .     S
C718   C531    1.444   1_565 S
C719   H721    1.082   .     S
C719   C723    1.406   .     A
C719   C737    1.410   .     A
C720   H722    1.082   .     S
C720   C738    1.410   .     A
C720   C724    1.406   .     A
C723   N727    1.363   .     A
C723   H725    1.082   .     S
C724   N728    1.363   .     A
C724   H726    1.081   .     S
N727   C729    1.363   .     A
N728   C730    1.363   .     A
C729   H731    1.082   .     S
C729   C733    1.406   .     A
C730   H732    1.081   .     S
C730   C734    1.406   .     A
C733   C737    1.410   .     A
C733   H735    1.082   .     S
C734   H736    1.082   .     S
C734   C738    1.410   .     A
C738   C365    1.512   1_556 S
N739   O740    1.301   .     A
N739   O741    1.302   .     A
N739   C573    1.445   1_655 S
N742   O744    1.302   .     A
N742   O743    1.301   .     A
