data_str_m3_o1_o5_pcu_sym.100
_audit_creation_date              2020-01-03
_audit_creation_method            'Materials Studio'
_symmetry_space_group_name_H-M    'P1'
_symmetry_Int_Tables_number       1
_symmetry_cell_setting            triclinic
loop_
_symmetry_equiv_pos_as_xyz
  x,y,z
_cell_length_a                    31.8833
_cell_length_b                    29.6228
_cell_length_c                    26.7282
_cell_angle_alpha                 90.0735
_cell_angle_beta                  90.1282
_cell_angle_gamma                 90.0240
loop_
_atom_site_label
_atom_site_type_symbol
_atom_site_fract_x
_atom_site_fract_y
_atom_site_fract_z
_atom_site_U_iso_or_equiv
_atom_site_adp_type
_atom_site_occupancy
C1     C     0.08685   0.16666   0.16665   0.00000  Uiso   1.00
C2     C     0.24651   0.16668   0.16668   0.00000  Uiso   1.00
C3     C     0.16666   0.16665   0.07290   0.00000  Uiso   1.00
C4     C     0.16669   0.16668   0.26043   0.00000  Uiso   1.00
C5     C     0.16669   0.16664   0.02180   0.00000  Uiso   1.00
C6     C     0.16670   0.16669   0.31153   0.00000  Uiso   1.00
C7     C     0.02193   0.15104   0.20922   0.00000  Uiso   1.00
C8     C     0.31174   0.18230   0.12394   0.00000  Uiso   1.00
C9     C     0.31189   0.15113   0.20943   0.00000  Uiso   1.00
C10    C     0.02178   0.18235   0.12414   0.00000  Uiso   1.00
C11    C     0.29065   0.16670   0.16668   0.00000  Uiso   1.00
C12    C     0.04277   0.16666   0.16666   0.00000  Uiso   1.00
C13    C     0.19368   0.02399   0.19658   0.00000  Uiso   1.00
C14    C     0.13965   0.30934   0.13676   0.00000  Uiso   1.00
C15    C     0.13965   0.02389   0.13675   0.00000  Uiso   1.00
C16    C     0.19368   0.30944   0.19658   0.00000  Uiso   1.00
N17    N     0.16667   0.28573   0.16667   0.00000  Uiso   1.00
N18    N     0.16667   0.04760   0.16667   0.00000  Uiso   1.00
O19    O     0.10559   0.20487   0.16666   0.00000  Uiso   1.00
O20    O     0.22774   0.12846   0.16667   0.00000  Uiso   1.00
O21    O     0.22774   0.20487   0.16667   0.00000  Uiso   1.00
O22    O     0.10559   0.12846   0.16666   0.00000  Uiso   1.00
O23    O     0.16667   0.20488   0.09511   0.00000  Uiso   1.00
O24    O     0.16666   0.12845   0.23822   0.00000  Uiso   1.00
O25    O     0.16666   0.20488   0.23822   0.00000  Uiso   1.00
O26    O     0.16667   0.12845   0.09511   0.00000  Uiso   1.00
Zn27   Zn    0.16667   0.21771   0.16667   0.00000  Uiso   1.00
Zn28   Zn    0.16667   0.11563   0.16667   0.00000  Uiso   1.00
N29    N     0.04518   0.13601   0.25217   0.00000  Uiso   1.00
H30    H     0.03659   0.10266   0.25981   0.00000  Uiso   1.00
H31    H     0.03671   0.15600   0.28280   0.00000  Uiso   1.00
N32    N     0.28970   0.19710   0.07998   0.00000  Uiso   1.00
H33    H     0.27141   0.22515   0.08919   0.00000  Uiso   1.00
H34    H     0.26991   0.17111   0.06788   0.00000  Uiso   1.00
N35    N     0.29001   0.13640   0.25343   0.00000  Uiso   1.00
H36    H     0.27029   0.16241   0.26548   0.00000  Uiso   1.00
H37    H     0.27166   0.10834   0.24427   0.00000  Uiso   1.00
N38    N     0.04489   0.19748   0.08123   0.00000  Uiso   1.00
H39    H     0.03621   0.17764   0.05052   0.00000  Uiso   1.00
H40    H     0.03637   0.23089   0.07377   0.00000  Uiso   1.00
H41    H     0.21530   0.04210   0.22055   0.00000  Uiso   1.00
H42    H     0.11801   0.29123   0.11281   0.00000  Uiso   1.00
H43    H     0.11802   0.04193   0.11280   0.00000  Uiso   1.00
H44    H     0.21531   0.29140   0.22053   0.00000  Uiso   1.00
C45    C     0.42019   0.16666   0.16665   0.00000  Uiso   1.00
C46    C     0.57984   0.16668   0.16668   0.00000  Uiso   1.00
C47    C     0.49999   0.16665   0.07290   0.00000  Uiso   1.00
C48    C     0.50003   0.16668   0.26043   0.00000  Uiso   1.00
C49    C     0.50002   0.16664   0.02180   0.00000  Uiso   1.00
C50    C     0.50004   0.16669   0.31153   0.00000  Uiso   1.00
C51    C     0.35526   0.15104   0.20922   0.00000  Uiso   1.00
C52    C     0.64507   0.18230   0.12394   0.00000  Uiso   1.00
C53    C     0.64522   0.15113   0.20943   0.00000  Uiso   1.00
C54    C     0.35512   0.18235   0.12414   0.00000  Uiso   1.00
C55    C     0.62398   0.16670   0.16668   0.00000  Uiso   1.00
C56    C     0.37610   0.16666   0.16666   0.00000  Uiso   1.00
C57    C     0.52701   0.02399   0.19658   0.00000  Uiso   1.00
C58    C     0.47298   0.30934   0.13676   0.00000  Uiso   1.00
C59    C     0.47298   0.02389   0.13675   0.00000  Uiso   1.00
C60    C     0.52702   0.30944   0.19658   0.00000  Uiso   1.00
N61    N     0.50000   0.28573   0.16667   0.00000  Uiso   1.00
N62    N     0.50000   0.04760   0.16667   0.00000  Uiso   1.00
O63    O     0.43892   0.20487   0.16666   0.00000  Uiso   1.00
O64    O     0.56108   0.12846   0.16667   0.00000  Uiso   1.00
O65    O     0.56108   0.20487   0.16667   0.00000  Uiso   1.00
O66    O     0.43892   0.12846   0.16666   0.00000  Uiso   1.00
O67    O     0.50000   0.20488   0.09511   0.00000  Uiso   1.00
O68    O     0.50000   0.12845   0.23822   0.00000  Uiso   1.00
O69    O     0.50000   0.20488   0.23822   0.00000  Uiso   1.00
O70    O     0.50000   0.12845   0.09511   0.00000  Uiso   1.00
Zn71   Zn    0.50000   0.21771   0.16667   0.00000  Uiso   1.00
Zn72   Zn    0.50000   0.11563   0.16667   0.00000  Uiso   1.00
N73    N     0.37851   0.13601   0.25217   0.00000  Uiso   1.00
H74    H     0.36992   0.10266   0.25981   0.00000  Uiso   1.00
H75    H     0.37004   0.15600   0.28280   0.00000  Uiso   1.00
N76    N     0.62303   0.19710   0.07998   0.00000  Uiso   1.00
H77    H     0.60475   0.22515   0.08919   0.00000  Uiso   1.00
H78    H     0.60324   0.17111   0.06788   0.00000  Uiso   1.00
N79    N     0.62334   0.13640   0.25343   0.00000  Uiso   1.00
H80    H     0.60362   0.16241   0.26548   0.00000  Uiso   1.00
H81    H     0.60499   0.10834   0.24427   0.00000  Uiso   1.00
N82    N     0.37822   0.19748   0.08123   0.00000  Uiso   1.00
H83    H     0.36955   0.17764   0.05052   0.00000  Uiso   1.00
H84    H     0.36971   0.23089   0.07377   0.00000  Uiso   1.00
H85    H     0.54864   0.04210   0.22055   0.00000  Uiso   1.00
H86    H     0.45134   0.29123   0.11281   0.00000  Uiso   1.00
H87    H     0.45135   0.04193   0.11280   0.00000  Uiso   1.00
H88    H     0.54865   0.29140   0.22053   0.00000  Uiso   1.00
C89    C     0.75352   0.16666   0.16665   0.00000  Uiso   1.00
C90    C     0.91318   0.16668   0.16668   0.00000  Uiso   1.00
C91    C     0.83333   0.16665   0.07290   0.00000  Uiso   1.00
C92    C     0.83336   0.16668   0.26043   0.00000  Uiso   1.00
C93    C     0.83336   0.16664   0.02180   0.00000  Uiso   1.00
C94    C     0.83337   0.16669   0.31153   0.00000  Uiso   1.00
C95    C     0.68860   0.15104   0.20922   0.00000  Uiso   1.00
C96    C     0.97840   0.18230   0.12394   0.00000  Uiso   1.00
C97    C     0.97855   0.15113   0.20943   0.00000  Uiso   1.00
C98    C     0.68845   0.18235   0.12414   0.00000  Uiso   1.00
C99    C     0.95732   0.16670   0.16668   0.00000  Uiso   1.00
C100   C     0.70943   0.16666   0.16666   0.00000  Uiso   1.00
C101   C     0.86035   0.02399   0.19658   0.00000  Uiso   1.00
C102   C     0.80631   0.30934   0.13676   0.00000  Uiso   1.00
C103   C     0.80632   0.02389   0.13675   0.00000  Uiso   1.00
C104   C     0.86035   0.30944   0.19658   0.00000  Uiso   1.00
N105   N     0.83333   0.28573   0.16667   0.00000  Uiso   1.00
N106   N     0.83333   0.04760   0.16667   0.00000  Uiso   1.00
O107   O     0.77226   0.20487   0.16666   0.00000  Uiso   1.00
O108   O     0.89441   0.12846   0.16667   0.00000  Uiso   1.00
O109   O     0.89441   0.20487   0.16667   0.00000  Uiso   1.00
O110   O     0.77226   0.12846   0.16666   0.00000  Uiso   1.00
O111   O     0.83334   0.20488   0.09511   0.00000  Uiso   1.00
O112   O     0.83333   0.12845   0.23822   0.00000  Uiso   1.00
O113   O     0.83333   0.20488   0.23822   0.00000  Uiso   1.00
O114   O     0.83334   0.12845   0.09511   0.00000  Uiso   1.00
Zn115  Zn    0.83333   0.21771   0.16667   0.00000  Uiso   1.00
Zn116  Zn    0.83333   0.11563   0.16667   0.00000  Uiso   1.00
N117   N     0.71185   0.13601   0.25217   0.00000  Uiso   1.00
H118   H     0.70325   0.10266   0.25981   0.00000  Uiso   1.00
H119   H     0.70337   0.15600   0.28280   0.00000  Uiso   1.00
N120   N     0.95637   0.19710   0.07998   0.00000  Uiso   1.00
H121   H     0.93808   0.22515   0.08919   0.00000  Uiso   1.00
H122   H     0.93658   0.17111   0.06788   0.00000  Uiso   1.00
N123   N     0.95667   0.13640   0.25343   0.00000  Uiso   1.00
H124   H     0.93695   0.16241   0.26548   0.00000  Uiso   1.00
H125   H     0.93832   0.10834   0.24427   0.00000  Uiso   1.00
N126   N     0.71155   0.19748   0.08123   0.00000  Uiso   1.00
H127   H     0.70288   0.17764   0.05052   0.00000  Uiso   1.00
H128   H     0.70304   0.23089   0.07377   0.00000  Uiso   1.00
H129   H     0.88197   0.04210   0.22055   0.00000  Uiso   1.00
H130   H     0.78468   0.29123   0.11281   0.00000  Uiso   1.00
H131   H     0.78469   0.04193   0.11280   0.00000  Uiso   1.00
H132   H     0.88198   0.29140   0.22053   0.00000  Uiso   1.00
C133   C     0.08685   0.49999   0.16665   0.00000  Uiso   1.00
C134   C     0.24651   0.50001   0.16668   0.00000  Uiso   1.00
C135   C     0.16666   0.49998   0.07290   0.00000  Uiso   1.00
C136   C     0.16669   0.50002   0.26043   0.00000  Uiso   1.00
C137   C     0.16669   0.49998   0.02180   0.00000  Uiso   1.00
C138   C     0.16670   0.50002   0.31153   0.00000  Uiso   1.00
C139   C     0.02193   0.48437   0.20922   0.00000  Uiso   1.00
C140   C     0.31174   0.51563   0.12394   0.00000  Uiso   1.00
C141   C     0.31189   0.48446   0.20943   0.00000  Uiso   1.00
C142   C     0.02178   0.51569   0.12414   0.00000  Uiso   1.00
C143   C     0.29065   0.50003   0.16668   0.00000  Uiso   1.00
C144   C     0.04277   0.49999   0.16666   0.00000  Uiso   1.00
C145   C     0.19368   0.35732   0.19658   0.00000  Uiso   1.00
C146   C     0.13965   0.64267   0.13676   0.00000  Uiso   1.00
C147   C     0.13965   0.35723   0.13675   0.00000  Uiso   1.00
C148   C     0.19368   0.64277   0.19658   0.00000  Uiso   1.00
N149   N     0.16667   0.61907   0.16667   0.00000  Uiso   1.00
N150   N     0.16667   0.38093   0.16667   0.00000  Uiso   1.00
O151   O     0.10559   0.53821   0.16666   0.00000  Uiso   1.00
O152   O     0.22774   0.46179   0.16667   0.00000  Uiso   1.00
O153   O     0.22774   0.53821   0.16667   0.00000  Uiso   1.00
O154   O     0.10559   0.46179   0.16666   0.00000  Uiso   1.00
O155   O     0.16667   0.53821   0.09511   0.00000  Uiso   1.00
O156   O     0.16666   0.46179   0.23822   0.00000  Uiso   1.00
O157   O     0.16666   0.53821   0.23822   0.00000  Uiso   1.00
O158   O     0.16667   0.46179   0.09511   0.00000  Uiso   1.00
Zn159  Zn    0.16667   0.55104   0.16667   0.00000  Uiso   1.00
Zn160  Zn    0.16667   0.44896   0.16667   0.00000  Uiso   1.00
N161   N     0.04518   0.46934   0.25217   0.00000  Uiso   1.00
H162   H     0.03659   0.43600   0.25981   0.00000  Uiso   1.00
H163   H     0.03671   0.48933   0.28280   0.00000  Uiso   1.00
N164   N     0.28970   0.53043   0.07998   0.00000  Uiso   1.00
H165   H     0.27141   0.55849   0.08919   0.00000  Uiso   1.00
H166   H     0.26991   0.50445   0.06788   0.00000  Uiso   1.00
N167   N     0.29001   0.46974   0.25343   0.00000  Uiso   1.00
H168   H     0.27029   0.49575   0.26548   0.00000  Uiso   1.00
H169   H     0.27166   0.44167   0.24427   0.00000  Uiso   1.00
N170   N     0.04489   0.53082   0.08123   0.00000  Uiso   1.00
H171   H     0.03621   0.51097   0.05052   0.00000  Uiso   1.00
H172   H     0.03637   0.56422   0.07377   0.00000  Uiso   1.00
H173   H     0.21530   0.37543   0.22055   0.00000  Uiso   1.00
H174   H     0.11801   0.62456   0.11281   0.00000  Uiso   1.00
H175   H     0.11802   0.37526   0.11280   0.00000  Uiso   1.00
H176   H     0.21531   0.62474   0.22053   0.00000  Uiso   1.00
C177   C     0.42019   0.49999   0.16665   0.00000  Uiso   1.00
C178   C     0.57984   0.50001   0.16668   0.00000  Uiso   1.00
C179   C     0.49999   0.49998   0.07290   0.00000  Uiso   1.00
C180   C     0.50003   0.50002   0.26043   0.00000  Uiso   1.00
C181   C     0.50002   0.49998   0.02180   0.00000  Uiso   1.00
C182   C     0.50004   0.50002   0.31153   0.00000  Uiso   1.00
C183   C     0.35526   0.48437   0.20922   0.00000  Uiso   1.00
C184   C     0.64507   0.51563   0.12394   0.00000  Uiso   1.00
C185   C     0.64522   0.48446   0.20943   0.00000  Uiso   1.00
C186   C     0.35512   0.51569   0.12414   0.00000  Uiso   1.00
C187   C     0.62398   0.50003   0.16668   0.00000  Uiso   1.00
C188   C     0.37610   0.49999   0.16666   0.00000  Uiso   1.00
C189   C     0.52701   0.35732   0.19658   0.00000  Uiso   1.00
C190   C     0.47298   0.64267   0.13676   0.00000  Uiso   1.00
C191   C     0.47298   0.35723   0.13675   0.00000  Uiso   1.00
C192   C     0.52702   0.64277   0.19658   0.00000  Uiso   1.00
N193   N     0.50000   0.61907   0.16667   0.00000  Uiso   1.00
N194   N     0.50000   0.38093   0.16667   0.00000  Uiso   1.00
O195   O     0.43892   0.53821   0.16666   0.00000  Uiso   1.00
O196   O     0.56108   0.46179   0.16667   0.00000  Uiso   1.00
O197   O     0.56108   0.53821   0.16667   0.00000  Uiso   1.00
O198   O     0.43892   0.46179   0.16666   0.00000  Uiso   1.00
O199   O     0.50000   0.53821   0.09511   0.00000  Uiso   1.00
O200   O     0.50000   0.46179   0.23822   0.00000  Uiso   1.00
O201   O     0.50000   0.53821   0.23822   0.00000  Uiso   1.00
O202   O     0.50000   0.46179   0.09511   0.00000  Uiso   1.00
Zn203  Zn    0.50000   0.55104   0.16667   0.00000  Uiso   1.00
Zn204  Zn    0.50000   0.44896   0.16667   0.00000  Uiso   1.00
N205   N     0.37851   0.46934   0.25217   0.00000  Uiso   1.00
H206   H     0.36992   0.43600   0.25981   0.00000  Uiso   1.00
H207   H     0.37004   0.48933   0.28280   0.00000  Uiso   1.00
N208   N     0.62303   0.53043   0.07998   0.00000  Uiso   1.00
H209   H     0.60475   0.55849   0.08919   0.00000  Uiso   1.00
H210   H     0.60324   0.50445   0.06788   0.00000  Uiso   1.00
N211   N     0.62334   0.46974   0.25343   0.00000  Uiso   1.00
H212   H     0.60362   0.49575   0.26548   0.00000  Uiso   1.00
H213   H     0.60499   0.44167   0.24427   0.00000  Uiso   1.00
N214   N     0.37822   0.53082   0.08123   0.00000  Uiso   1.00
H215   H     0.36955   0.51097   0.05052   0.00000  Uiso   1.00
H216   H     0.36971   0.56422   0.07377   0.00000  Uiso   1.00
H217   H     0.54864   0.37543   0.22055   0.00000  Uiso   1.00
H218   H     0.45134   0.62456   0.11281   0.00000  Uiso   1.00
H219   H     0.45135   0.37526   0.11280   0.00000  Uiso   1.00
H220   H     0.54865   0.62474   0.22053   0.00000  Uiso   1.00
C221   C     0.75352   0.49999   0.16665   0.00000  Uiso   1.00
C222   C     0.91318   0.50001   0.16668   0.00000  Uiso   1.00
C223   C     0.83333   0.49998   0.07290   0.00000  Uiso   1.00
C224   C     0.83336   0.50002   0.26043   0.00000  Uiso   1.00
C225   C     0.83336   0.49998   0.02180   0.00000  Uiso   1.00
C226   C     0.83337   0.50002   0.31153   0.00000  Uiso   1.00
C227   C     0.68860   0.48437   0.20922   0.00000  Uiso   1.00
C228   C     0.97840   0.51563   0.12394   0.00000  Uiso   1.00
C229   C     0.97855   0.48446   0.20943   0.00000  Uiso   1.00
C230   C     0.68845   0.51569   0.12414   0.00000  Uiso   1.00
C231   C     0.95732   0.50003   0.16668   0.00000  Uiso   1.00
C232   C     0.70943   0.49999   0.16666   0.00000  Uiso   1.00
C233   C     0.86035   0.35732   0.19658   0.00000  Uiso   1.00
C234   C     0.80631   0.64267   0.13676   0.00000  Uiso   1.00
C235   C     0.80632   0.35723   0.13675   0.00000  Uiso   1.00
C236   C     0.86035   0.64277   0.19658   0.00000  Uiso   1.00
N237   N     0.83333   0.61907   0.16667   0.00000  Uiso   1.00
N238   N     0.83333   0.38093   0.16667   0.00000  Uiso   1.00
O239   O     0.77226   0.53821   0.16666   0.00000  Uiso   1.00
O240   O     0.89441   0.46179   0.16667   0.00000  Uiso   1.00
O241   O     0.89441   0.53821   0.16667   0.00000  Uiso   1.00
O242   O     0.77226   0.46179   0.16666   0.00000  Uiso   1.00
O243   O     0.83334   0.53821   0.09511   0.00000  Uiso   1.00
O244   O     0.83333   0.46179   0.23822   0.00000  Uiso   1.00
O245   O     0.83333   0.53821   0.23822   0.00000  Uiso   1.00
O246   O     0.83334   0.46179   0.09511   0.00000  Uiso   1.00
Zn247  Zn    0.83333   0.55104   0.16667   0.00000  Uiso   1.00
Zn248  Zn    0.83333   0.44896   0.16667   0.00000  Uiso   1.00
N249   N     0.71185   0.46934   0.25217   0.00000  Uiso   1.00
H250   H     0.70325   0.43600   0.25981   0.00000  Uiso   1.00
H251   H     0.70337   0.48933   0.28280   0.00000  Uiso   1.00
N252   N     0.95637   0.53043   0.07998   0.00000  Uiso   1.00
H253   H     0.93808   0.55849   0.08919   0.00000  Uiso   1.00
H254   H     0.93658   0.50445   0.06788   0.00000  Uiso   1.00
N255   N     0.95667   0.46974   0.25343   0.00000  Uiso   1.00
H256   H     0.93695   0.49575   0.26548   0.00000  Uiso   1.00
H257   H     0.93832   0.44167   0.24427   0.00000  Uiso   1.00
N258   N     0.71155   0.53082   0.08123   0.00000  Uiso   1.00
H259   H     0.70288   0.51097   0.05052   0.00000  Uiso   1.00
H260   H     0.70304   0.56422   0.07377   0.00000  Uiso   1.00
H261   H     0.88197   0.37543   0.22055   0.00000  Uiso   1.00
H262   H     0.78468   0.62456   0.11281   0.00000  Uiso   1.00
H263   H     0.78469   0.37526   0.11280   0.00000  Uiso   1.00
H264   H     0.88198   0.62474   0.22053   0.00000  Uiso   1.00
C265   C     0.08685   0.83333   0.16665   0.00000  Uiso   1.00
C266   C     0.24651   0.83334   0.16668   0.00000  Uiso   1.00
C267   C     0.16666   0.83332   0.07290   0.00000  Uiso   1.00
C268   C     0.16669   0.83335   0.26043   0.00000  Uiso   1.00
C269   C     0.16669   0.83331   0.02180   0.00000  Uiso   1.00
C270   C     0.16670   0.83336   0.31153   0.00000  Uiso   1.00
C271   C     0.02193   0.81771   0.20922   0.00000  Uiso   1.00
C272   C     0.31174   0.84896   0.12394   0.00000  Uiso   1.00
C273   C     0.31189   0.81780   0.20943   0.00000  Uiso   1.00
C274   C     0.02178   0.84902   0.12414   0.00000  Uiso   1.00
C275   C     0.29065   0.83337   0.16668   0.00000  Uiso   1.00
C276   C     0.04277   0.83332   0.16666   0.00000  Uiso   1.00
C277   C     0.19368   0.69066   0.19658   0.00000  Uiso   1.00
C278   C     0.13965   0.97601   0.13676   0.00000  Uiso   1.00
C279   C     0.13965   0.69056   0.13675   0.00000  Uiso   1.00
C280   C     0.19368   0.97610   0.19658   0.00000  Uiso   1.00
N281   N     0.16667   0.95240   0.16667   0.00000  Uiso   1.00
N282   N     0.16667   0.71427   0.16667   0.00000  Uiso   1.00
O283   O     0.10559   0.87154   0.16666   0.00000  Uiso   1.00
O284   O     0.22774   0.79513   0.16667   0.00000  Uiso   1.00
O285   O     0.22774   0.87154   0.16667   0.00000  Uiso   1.00
O286   O     0.10559   0.79513   0.16666   0.00000  Uiso   1.00
O287   O     0.16667   0.87155   0.09511   0.00000  Uiso   1.00
O288   O     0.16666   0.79512   0.23822   0.00000  Uiso   1.00
O289   O     0.16666   0.87155   0.23822   0.00000  Uiso   1.00
O290   O     0.16667   0.79512   0.09511   0.00000  Uiso   1.00
Zn291  Zn    0.16667   0.88437   0.16667   0.00000  Uiso   1.00
Zn292  Zn    0.16667   0.78229   0.16667   0.00000  Uiso   1.00
N293   N     0.04518   0.80268   0.25217   0.00000  Uiso   1.00
H294   H     0.03659   0.76933   0.25981   0.00000  Uiso   1.00
H295   H     0.03671   0.82266   0.28280   0.00000  Uiso   1.00
N296   N     0.28970   0.86377   0.07998   0.00000  Uiso   1.00
H297   H     0.27141   0.89182   0.08919   0.00000  Uiso   1.00
H298   H     0.26991   0.83778   0.06788   0.00000  Uiso   1.00
N299   N     0.29001   0.80307   0.25343   0.00000  Uiso   1.00
H300   H     0.27029   0.82908   0.26548   0.00000  Uiso   1.00
H301   H     0.27166   0.77501   0.24427   0.00000  Uiso   1.00
N302   N     0.04489   0.86415   0.08123   0.00000  Uiso   1.00
H303   H     0.03621   0.84431   0.05052   0.00000  Uiso   1.00
H304   H     0.03637   0.89755   0.07377   0.00000  Uiso   1.00
H305   H     0.21530   0.70876   0.22055   0.00000  Uiso   1.00
H306   H     0.11801   0.95789   0.11281   0.00000  Uiso   1.00
H307   H     0.11802   0.70859   0.11280   0.00000  Uiso   1.00
H308   H     0.21531   0.95807   0.22053   0.00000  Uiso   1.00
C309   C     0.42019   0.83333   0.16665   0.00000  Uiso   1.00
C310   C     0.57984   0.83334   0.16668   0.00000  Uiso   1.00
C311   C     0.49999   0.83332   0.07290   0.00000  Uiso   1.00
C312   C     0.50003   0.83335   0.26043   0.00000  Uiso   1.00
C313   C     0.50002   0.83331   0.02180   0.00000  Uiso   1.00
C314   C     0.50004   0.83336   0.31153   0.00000  Uiso   1.00
C315   C     0.35526   0.81771   0.20922   0.00000  Uiso   1.00
C316   C     0.64507   0.84896   0.12394   0.00000  Uiso   1.00
C317   C     0.64522   0.81780   0.20943   0.00000  Uiso   1.00
C318   C     0.35512   0.84902   0.12414   0.00000  Uiso   1.00
C319   C     0.62398   0.83337   0.16668   0.00000  Uiso   1.00
C320   C     0.37610   0.83332   0.16666   0.00000  Uiso   1.00
C321   C     0.52701   0.69066   0.19658   0.00000  Uiso   1.00
C322   C     0.47298   0.97601   0.13676   0.00000  Uiso   1.00
C323   C     0.47298   0.69056   0.13675   0.00000  Uiso   1.00
C324   C     0.52702   0.97610   0.19658   0.00000  Uiso   1.00
N325   N     0.50000   0.95240   0.16667   0.00000  Uiso   1.00
N326   N     0.50000   0.71427   0.16667   0.00000  Uiso   1.00
O327   O     0.43892   0.87154   0.16666   0.00000  Uiso   1.00
O328   O     0.56108   0.79513   0.16667   0.00000  Uiso   1.00
O329   O     0.56108   0.87154   0.16667   0.00000  Uiso   1.00
O330   O     0.43892   0.79513   0.16666   0.00000  Uiso   1.00
O331   O     0.50000   0.87155   0.09511   0.00000  Uiso   1.00
O332   O     0.50000   0.79512   0.23822   0.00000  Uiso   1.00
O333   O     0.50000   0.87155   0.23822   0.00000  Uiso   1.00
O334   O     0.50000   0.79512   0.09511   0.00000  Uiso   1.00
Zn335  Zn    0.50000   0.88437   0.16667   0.00000  Uiso   1.00
Zn336  Zn    0.50000   0.78229   0.16667   0.00000  Uiso   1.00
N337   N     0.37851   0.80268   0.25217   0.00000  Uiso   1.00
H338   H     0.36992   0.76933   0.25981   0.00000  Uiso   1.00
H339   H     0.37004   0.82266   0.28280   0.00000  Uiso   1.00
N340   N     0.62303   0.86377   0.07998   0.00000  Uiso   1.00
H341   H     0.60475   0.89182   0.08919   0.00000  Uiso   1.00
H342   H     0.60324   0.83778   0.06788   0.00000  Uiso   1.00
N343   N     0.62334   0.80307   0.25343   0.00000  Uiso   1.00
H344   H     0.60362   0.82908   0.26548   0.00000  Uiso   1.00
H345   H     0.60499   0.77501   0.24427   0.00000  Uiso   1.00
N346   N     0.37822   0.86415   0.08123   0.00000  Uiso   1.00
H347   H     0.36955   0.84431   0.05052   0.00000  Uiso   1.00
H348   H     0.36971   0.89755   0.07377   0.00000  Uiso   1.00
H349   H     0.54864   0.70876   0.22055   0.00000  Uiso   1.00
H350   H     0.45134   0.95789   0.11281   0.00000  Uiso   1.00
H351   H     0.45135   0.70859   0.11280   0.00000  Uiso   1.00
H352   H     0.54865   0.95807   0.22053   0.00000  Uiso   1.00
C353   C     0.75352   0.83333   0.16665   0.00000  Uiso   1.00
C354   C     0.91318   0.83334   0.16668   0.00000  Uiso   1.00
C355   C     0.83333   0.83332   0.07290   0.00000  Uiso   1.00
C356   C     0.83336   0.83335   0.26043   0.00000  Uiso   1.00
C357   C     0.83336   0.83331   0.02180   0.00000  Uiso   1.00
C358   C     0.83337   0.83336   0.31153   0.00000  Uiso   1.00
C359   C     0.68860   0.81771   0.20922   0.00000  Uiso   1.00
C360   C     0.97840   0.84896   0.12394   0.00000  Uiso   1.00
C361   C     0.97855   0.81780   0.20943   0.00000  Uiso   1.00
C362   C     0.68845   0.84902   0.12414   0.00000  Uiso   1.00
C363   C     0.95732   0.83337   0.16668   0.00000  Uiso   1.00
C364   C     0.70943   0.83332   0.16666   0.00000  Uiso   1.00
C365   C     0.86035   0.69066   0.19658   0.00000  Uiso   1.00
C366   C     0.80631   0.97601   0.13676   0.00000  Uiso   1.00
C367   C     0.80632   0.69056   0.13675   0.00000  Uiso   1.00
C368   C     0.86035   0.97610   0.19658   0.00000  Uiso   1.00
N369   N     0.83333   0.95240   0.16667   0.00000  Uiso   1.00
N370   N     0.83333   0.71427   0.16667   0.00000  Uiso   1.00
O371   O     0.77226   0.87154   0.16666   0.00000  Uiso   1.00
O372   O     0.89441   0.79513   0.16667   0.00000  Uiso   1.00
O373   O     0.89441   0.87154   0.16667   0.00000  Uiso   1.00
O374   O     0.77226   0.79513   0.16666   0.00000  Uiso   1.00
O375   O     0.83334   0.87155   0.09511   0.00000  Uiso   1.00
O376   O     0.83333   0.79512   0.23822   0.00000  Uiso   1.00
O377   O     0.83333   0.87155   0.23822   0.00000  Uiso   1.00
O378   O     0.83334   0.79512   0.09511   0.00000  Uiso   1.00
Zn379  Zn    0.83333   0.88437   0.16667   0.00000  Uiso   1.00
Zn380  Zn    0.83333   0.78229   0.16667   0.00000  Uiso   1.00
N381   N     0.71185   0.80268   0.25217   0.00000  Uiso   1.00
H382   H     0.70325   0.76933   0.25981   0.00000  Uiso   1.00
H383   H     0.70337   0.82266   0.28280   0.00000  Uiso   1.00
N384   N     0.95637   0.86377   0.07998   0.00000  Uiso   1.00
H385   H     0.93808   0.89182   0.08919   0.00000  Uiso   1.00
H386   H     0.93658   0.83778   0.06788   0.00000  Uiso   1.00
N387   N     0.95667   0.80307   0.25343   0.00000  Uiso   1.00
H388   H     0.93695   0.82908   0.26548   0.00000  Uiso   1.00
H389   H     0.93832   0.77501   0.24427   0.00000  Uiso   1.00
N390   N     0.71155   0.86415   0.08123   0.00000  Uiso   1.00
H391   H     0.70288   0.84431   0.05052   0.00000  Uiso   1.00
H392   H     0.70304   0.89755   0.07377   0.00000  Uiso   1.00
H393   H     0.88197   0.70876   0.22055   0.00000  Uiso   1.00
H394   H     0.78468   0.95789   0.11281   0.00000  Uiso   1.00
H395   H     0.78469   0.70859   0.11280   0.00000  Uiso   1.00
H396   H     0.88198   0.95807   0.22053   0.00000  Uiso   1.00
C397   C     0.08685   0.16666   0.49999   0.00000  Uiso   1.00
C398   C     0.24651   0.16668   0.50001   0.00000  Uiso   1.00
C399   C     0.16666   0.16665   0.40623   0.00000  Uiso   1.00
C400   C     0.16669   0.16668   0.59376   0.00000  Uiso   1.00
C401   C     0.16669   0.16664   0.35513   0.00000  Uiso   1.00
C402   C     0.16670   0.16669   0.64487   0.00000  Uiso   1.00
C403   C     0.02193   0.15104   0.54255   0.00000  Uiso   1.00
C404   C     0.31174   0.18230   0.45728   0.00000  Uiso   1.00
C405   C     0.31189   0.15113   0.54277   0.00000  Uiso   1.00
C406   C     0.02178   0.18235   0.45747   0.00000  Uiso   1.00
C407   C     0.29065   0.16670   0.50002   0.00000  Uiso   1.00
C408   C     0.04277   0.16666   0.49999   0.00000  Uiso   1.00
C409   C     0.19368   0.02399   0.52991   0.00000  Uiso   1.00
C410   C     0.13965   0.30934   0.47009   0.00000  Uiso   1.00
C411   C     0.13965   0.02389   0.47009   0.00000  Uiso   1.00
C412   C     0.19368   0.30944   0.52991   0.00000  Uiso   1.00
N413   N     0.16667   0.28573   0.50000   0.00000  Uiso   1.00
N414   N     0.16667   0.04760   0.50000   0.00000  Uiso   1.00
O415   O     0.10559   0.20487   0.50000   0.00000  Uiso   1.00
O416   O     0.22774   0.12846   0.50000   0.00000  Uiso   1.00
O417   O     0.22774   0.20487   0.50000   0.00000  Uiso   1.00
O418   O     0.10559   0.12846   0.50000   0.00000  Uiso   1.00
O419   O     0.16667   0.20488   0.42845   0.00000  Uiso   1.00
O420   O     0.16666   0.12845   0.57155   0.00000  Uiso   1.00
O421   O     0.16666   0.20488   0.57155   0.00000  Uiso   1.00
O422   O     0.16667   0.12845   0.42845   0.00000  Uiso   1.00
Zn423  Zn    0.16667   0.21771   0.50000   0.00000  Uiso   1.00
Zn424  Zn    0.16667   0.11563   0.50000   0.00000  Uiso   1.00
N425   N     0.04518   0.13601   0.58551   0.00000  Uiso   1.00
H426   H     0.03659   0.10266   0.59315   0.00000  Uiso   1.00
H427   H     0.03671   0.15600   0.61613   0.00000  Uiso   1.00
N428   N     0.28970   0.19710   0.41331   0.00000  Uiso   1.00
H429   H     0.27141   0.22515   0.42253   0.00000  Uiso   1.00
H430   H     0.26991   0.17111   0.40121   0.00000  Uiso   1.00
N431   N     0.29001   0.13640   0.58676   0.00000  Uiso   1.00
H432   H     0.27029   0.16241   0.59882   0.00000  Uiso   1.00
H433   H     0.27166   0.10834   0.57761   0.00000  Uiso   1.00
N434   N     0.04489   0.19748   0.41456   0.00000  Uiso   1.00
H435   H     0.03621   0.17764   0.38385   0.00000  Uiso   1.00
H436   H     0.03637   0.23089   0.40710   0.00000  Uiso   1.00
H437   H     0.21530   0.04210   0.55388   0.00000  Uiso   1.00
H438   H     0.11801   0.29123   0.44614   0.00000  Uiso   1.00
H439   H     0.11802   0.04193   0.44613   0.00000  Uiso   1.00
H440   H     0.21531   0.29140   0.55387   0.00000  Uiso   1.00
C441   C     0.42019   0.16666   0.49999   0.00000  Uiso   1.00
C442   C     0.57984   0.16668   0.50001   0.00000  Uiso   1.00
C443   C     0.49999   0.16665   0.40623   0.00000  Uiso   1.00
C444   C     0.50003   0.16668   0.59376   0.00000  Uiso   1.00
C445   C     0.50002   0.16664   0.35513   0.00000  Uiso   1.00
C446   C     0.50004   0.16669   0.64487   0.00000  Uiso   1.00
C447   C     0.35526   0.15104   0.54255   0.00000  Uiso   1.00
C448   C     0.64507   0.18230   0.45728   0.00000  Uiso   1.00
C449   C     0.64522   0.15113   0.54277   0.00000  Uiso   1.00
C450   C     0.35512   0.18235   0.45747   0.00000  Uiso   1.00
C451   C     0.62398   0.16670   0.50002   0.00000  Uiso   1.00
C452   C     0.37610   0.16666   0.49999   0.00000  Uiso   1.00
C453   C     0.52701   0.02399   0.52991   0.00000  Uiso   1.00
C454   C     0.47298   0.30934   0.47009   0.00000  Uiso   1.00
C455   C     0.47298   0.02389   0.47009   0.00000  Uiso   1.00
C456   C     0.52702   0.30944   0.52991   0.00000  Uiso   1.00
N457   N     0.50000   0.28573   0.50000   0.00000  Uiso   1.00
N458   N     0.50000   0.04760   0.50000   0.00000  Uiso   1.00
O459   O     0.43892   0.20487   0.50000   0.00000  Uiso   1.00
O460   O     0.56108   0.12846   0.50000   0.00000  Uiso   1.00
O461   O     0.56108   0.20487   0.50000   0.00000  Uiso   1.00
O462   O     0.43892   0.12846   0.50000   0.00000  Uiso   1.00
O463   O     0.50000   0.20488   0.42845   0.00000  Uiso   1.00
O464   O     0.50000   0.12845   0.57155   0.00000  Uiso   1.00
O465   O     0.50000   0.20488   0.57155   0.00000  Uiso   1.00
O466   O     0.50000   0.12845   0.42845   0.00000  Uiso   1.00
Zn467  Zn    0.50000   0.21771   0.50000   0.00000  Uiso   1.00
Zn468  Zn    0.50000   0.11563   0.50000   0.00000  Uiso   1.00
N469   N     0.37851   0.13601   0.58551   0.00000  Uiso   1.00
H470   H     0.36992   0.10266   0.59315   0.00000  Uiso   1.00
H471   H     0.37004   0.15600   0.61613   0.00000  Uiso   1.00
N472   N     0.62303   0.19710   0.41331   0.00000  Uiso   1.00
H473   H     0.60475   0.22515   0.42253   0.00000  Uiso   1.00
H474   H     0.60324   0.17111   0.40121   0.00000  Uiso   1.00
N475   N     0.62334   0.13640   0.58676   0.00000  Uiso   1.00
H476   H     0.60362   0.16241   0.59882   0.00000  Uiso   1.00
H477   H     0.60499   0.10834   0.57761   0.00000  Uiso   1.00
N478   N     0.37822   0.19748   0.41456   0.00000  Uiso   1.00
H479   H     0.36955   0.17764   0.38385   0.00000  Uiso   1.00
H480   H     0.36971   0.23089   0.40710   0.00000  Uiso   1.00
H481   H     0.54864   0.04210   0.55388   0.00000  Uiso   1.00
H482   H     0.45134   0.29123   0.44614   0.00000  Uiso   1.00
H483   H     0.45135   0.04193   0.44613   0.00000  Uiso   1.00
H484   H     0.54865   0.29140   0.55387   0.00000  Uiso   1.00
C485   C     0.75352   0.16666   0.49999   0.00000  Uiso   1.00
C486   C     0.91318   0.16668   0.50001   0.00000  Uiso   1.00
C487   C     0.83333   0.16665   0.40623   0.00000  Uiso   1.00
C488   C     0.83336   0.16668   0.59376   0.00000  Uiso   1.00
C489   C     0.83336   0.16664   0.35513   0.00000  Uiso   1.00
C490   C     0.83337   0.16669   0.64487   0.00000  Uiso   1.00
C491   C     0.68860   0.15104   0.54255   0.00000  Uiso   1.00
C492   C     0.97840   0.18230   0.45728   0.00000  Uiso   1.00
C493   C     0.97855   0.15113   0.54277   0.00000  Uiso   1.00
C494   C     0.68845   0.18235   0.45747   0.00000  Uiso   1.00
C495   C     0.95732   0.16670   0.50002   0.00000  Uiso   1.00
C496   C     0.70943   0.16666   0.49999   0.00000  Uiso   1.00
C497   C     0.86035   0.02399   0.52991   0.00000  Uiso   1.00
C498   C     0.80631   0.30934   0.47009   0.00000  Uiso   1.00
C499   C     0.80632   0.02389   0.47009   0.00000  Uiso   1.00
C500   C     0.86035   0.30944   0.52991   0.00000  Uiso   1.00
N501   N     0.83333   0.28573   0.50000   0.00000  Uiso   1.00
N502   N     0.83333   0.04760   0.50000   0.00000  Uiso   1.00
O503   O     0.77226   0.20487   0.50000   0.00000  Uiso   1.00
O504   O     0.89441   0.12846   0.50000   0.00000  Uiso   1.00
O505   O     0.89441   0.20487   0.50000   0.00000  Uiso   1.00
O506   O     0.77226   0.12846   0.50000   0.00000  Uiso   1.00
O507   O     0.83334   0.20488   0.42845   0.00000  Uiso   1.00
O508   O     0.83333   0.12845   0.57155   0.00000  Uiso   1.00
O509   O     0.83333   0.20488   0.57155   0.00000  Uiso   1.00
O510   O     0.83334   0.12845   0.42845   0.00000  Uiso   1.00
Zn511  Zn    0.83333   0.21771   0.50000   0.00000  Uiso   1.00
Zn512  Zn    0.83333   0.11563   0.50000   0.00000  Uiso   1.00
N513   N     0.71185   0.13601   0.58551   0.00000  Uiso   1.00
H514   H     0.70325   0.10266   0.59315   0.00000  Uiso   1.00
H515   H     0.70337   0.15600   0.61613   0.00000  Uiso   1.00
N516   N     0.95637   0.19710   0.41331   0.00000  Uiso   1.00
H517   H     0.93808   0.22515   0.42253   0.00000  Uiso   1.00
H518   H     0.93658   0.17111   0.40121   0.00000  Uiso   1.00
N519   N     0.95667   0.13640   0.58676   0.00000  Uiso   1.00
H520   H     0.93695   0.16241   0.59882   0.00000  Uiso   1.00
H521   H     0.93832   0.10834   0.57761   0.00000  Uiso   1.00
N522   N     0.71155   0.19748   0.41456   0.00000  Uiso   1.00
H523   H     0.70288   0.17764   0.38385   0.00000  Uiso   1.00
H524   H     0.70304   0.23089   0.40710   0.00000  Uiso   1.00
H525   H     0.88197   0.04210   0.55388   0.00000  Uiso   1.00
H526   H     0.78468   0.29123   0.44614   0.00000  Uiso   1.00
H527   H     0.78469   0.04193   0.44613   0.00000  Uiso   1.00
H528   H     0.88198   0.29140   0.55387   0.00000  Uiso   1.00
C529   C     0.08685   0.49999   0.49999   0.00000  Uiso   1.00
C530   C     0.24651   0.50001   0.50001   0.00000  Uiso   1.00
C531   C     0.16666   0.49998   0.40623   0.00000  Uiso   1.00
C532   C     0.16669   0.50002   0.59376   0.00000  Uiso   1.00
C533   C     0.16669   0.49998   0.35513   0.00000  Uiso   1.00
C534   C     0.16670   0.50002   0.64487   0.00000  Uiso   1.00
C535   C     0.02193   0.48437   0.54255   0.00000  Uiso   1.00
C536   C     0.31174   0.51563   0.45728   0.00000  Uiso   1.00
C537   C     0.31189   0.48446   0.54277   0.00000  Uiso   1.00
C538   C     0.02178   0.51569   0.45747   0.00000  Uiso   1.00
C539   C     0.29065   0.50003   0.50002   0.00000  Uiso   1.00
C540   C     0.04277   0.49999   0.49999   0.00000  Uiso   1.00
C541   C     0.19368   0.35732   0.52991   0.00000  Uiso   1.00
C542   C     0.13965   0.64267   0.47009   0.00000  Uiso   1.00
C543   C     0.13965   0.35723   0.47009   0.00000  Uiso   1.00
C544   C     0.19368   0.64277   0.52991   0.00000  Uiso   1.00
N545   N     0.16667   0.61907   0.50000   0.00000  Uiso   1.00
N546   N     0.16667   0.38093   0.50000   0.00000  Uiso   1.00
O547   O     0.10559   0.53821   0.50000   0.00000  Uiso   1.00
O548   O     0.22774   0.46179   0.50000   0.00000  Uiso   1.00
O549   O     0.22774   0.53821   0.50000   0.00000  Uiso   1.00
O550   O     0.10559   0.46179   0.50000   0.00000  Uiso   1.00
O551   O     0.16667   0.53821   0.42845   0.00000  Uiso   1.00
O552   O     0.16666   0.46179   0.57155   0.00000  Uiso   1.00
O553   O     0.16666   0.53821   0.57155   0.00000  Uiso   1.00
O554   O     0.16667   0.46179   0.42845   0.00000  Uiso   1.00
Zn555  Zn    0.16667   0.55104   0.50000   0.00000  Uiso   1.00
Zn556  Zn    0.16667   0.44896   0.50000   0.00000  Uiso   1.00
N557   N     0.04518   0.46934   0.58551   0.00000  Uiso   1.00
H558   H     0.03659   0.43600   0.59315   0.00000  Uiso   1.00
H559   H     0.03671   0.48933   0.61613   0.00000  Uiso   1.00
N560   N     0.28970   0.53043   0.41331   0.00000  Uiso   1.00
H561   H     0.27141   0.55849   0.42253   0.00000  Uiso   1.00
H562   H     0.26991   0.50445   0.40121   0.00000  Uiso   1.00
N563   N     0.29001   0.46974   0.58676   0.00000  Uiso   1.00
H564   H     0.27029   0.49575   0.59882   0.00000  Uiso   1.00
H565   H     0.27166   0.44167   0.57761   0.00000  Uiso   1.00
N566   N     0.04489   0.53082   0.41456   0.00000  Uiso   1.00
H567   H     0.03621   0.51097   0.38385   0.00000  Uiso   1.00
H568   H     0.03637   0.56422   0.40710   0.00000  Uiso   1.00
H569   H     0.21530   0.37543   0.55388   0.00000  Uiso   1.00
H570   H     0.11801   0.62456   0.44614   0.00000  Uiso   1.00
H571   H     0.11802   0.37526   0.44613   0.00000  Uiso   1.00
H572   H     0.21531   0.62474   0.55387   0.00000  Uiso   1.00
C573   C     0.42019   0.49999   0.49999   0.00000  Uiso   1.00
C574   C     0.57984   0.50001   0.50001   0.00000  Uiso   1.00
C575   C     0.49999   0.49998   0.40623   0.00000  Uiso   1.00
C576   C     0.50003   0.50002   0.59376   0.00000  Uiso   1.00
C577   C     0.50002   0.49998   0.35513   0.00000  Uiso   1.00
C578   C     0.50004   0.50002   0.64487   0.00000  Uiso   1.00
C579   C     0.35526   0.48437   0.54255   0.00000  Uiso   1.00
C580   C     0.64507   0.51563   0.45728   0.00000  Uiso   1.00
C581   C     0.64522   0.48446   0.54277   0.00000  Uiso   1.00
C582   C     0.35512   0.51569   0.45747   0.00000  Uiso   1.00
C583   C     0.62398   0.50003   0.50002   0.00000  Uiso   1.00
C584   C     0.37610   0.49999   0.49999   0.00000  Uiso   1.00
C585   C     0.52701   0.35732   0.52991   0.00000  Uiso   1.00
C586   C     0.47298   0.64267   0.47009   0.00000  Uiso   1.00
C587   C     0.47298   0.35723   0.47009   0.00000  Uiso   1.00
C588   C     0.52702   0.64277   0.52991   0.00000  Uiso   1.00
N589   N     0.50000   0.61907   0.50000   0.00000  Uiso   1.00
N590   N     0.50000   0.38093   0.50000   0.00000  Uiso   1.00
O591   O     0.43892   0.53821   0.50000   0.00000  Uiso   1.00
O592   O     0.56108   0.46179   0.50000   0.00000  Uiso   1.00
O593   O     0.56108   0.53821   0.50000   0.00000  Uiso   1.00
O594   O     0.43892   0.46179   0.50000   0.00000  Uiso   1.00
O595   O     0.50000   0.53821   0.42845   0.00000  Uiso   1.00
O596   O     0.50000   0.46179   0.57155   0.00000  Uiso   1.00
O597   O     0.50000   0.53821   0.57155   0.00000  Uiso   1.00
O598   O     0.50000   0.46179   0.42845   0.00000  Uiso   1.00
Zn599  Zn    0.50000   0.55104   0.50000   0.00000  Uiso   1.00
Zn600  Zn    0.50000   0.44896   0.50000   0.00000  Uiso   1.00
N601   N     0.37851   0.46934   0.58551   0.00000  Uiso   1.00
H602   H     0.36992   0.43600   0.59315   0.00000  Uiso   1.00
H603   H     0.37004   0.48933   0.61613   0.00000  Uiso   1.00
N604   N     0.62303   0.53043   0.41331   0.00000  Uiso   1.00
H605   H     0.60475   0.55849   0.42253   0.00000  Uiso   1.00
H606   H     0.60324   0.50445   0.40121   0.00000  Uiso   1.00
N607   N     0.62334   0.46974   0.58676   0.00000  Uiso   1.00
H608   H     0.60362   0.49575   0.59882   0.00000  Uiso   1.00
H609   H     0.60499   0.44167   0.57761   0.00000  Uiso   1.00
N610   N     0.37822   0.53082   0.41456   0.00000  Uiso   1.00
H611   H     0.36955   0.51097   0.38385   0.00000  Uiso   1.00
H612   H     0.36971   0.56422   0.40710   0.00000  Uiso   1.00
H613   H     0.54864   0.37543   0.55388   0.00000  Uiso   1.00
H614   H     0.45134   0.62456   0.44614   0.00000  Uiso   1.00
H615   H     0.45135   0.37526   0.44613   0.00000  Uiso   1.00
H616   H     0.54865   0.62474   0.55387   0.00000  Uiso   1.00
C617   C     0.75352   0.49999   0.49999   0.00000  Uiso   1.00
C618   C     0.91318   0.50001   0.50001   0.00000  Uiso   1.00
C619   C     0.83333   0.49998   0.40623   0.00000  Uiso   1.00
C620   C     0.83336   0.50002   0.59376   0.00000  Uiso   1.00
C621   C     0.83336   0.49998   0.35513   0.00000  Uiso   1.00
C622   C     0.83337   0.50002   0.64487   0.00000  Uiso   1.00
C623   C     0.68860   0.48437   0.54255   0.00000  Uiso   1.00
C624   C     0.97840   0.51563   0.45728   0.00000  Uiso   1.00
C625   C     0.97855   0.48446   0.54277   0.00000  Uiso   1.00
C626   C     0.68845   0.51569   0.45747   0.00000  Uiso   1.00
C627   C     0.95732   0.50003   0.50002   0.00000  Uiso   1.00
C628   C     0.70943   0.49999   0.49999   0.00000  Uiso   1.00
C629   C     0.86035   0.35732   0.52991   0.00000  Uiso   1.00
C630   C     0.80631   0.64267   0.47009   0.00000  Uiso   1.00
C631   C     0.80632   0.35723   0.47009   0.00000  Uiso   1.00
C632   C     0.86035   0.64277   0.52991   0.00000  Uiso   1.00
N633   N     0.83333   0.61907   0.50000   0.00000  Uiso   1.00
N634   N     0.83333   0.38093   0.50000   0.00000  Uiso   1.00
O635   O     0.77226   0.53821   0.50000   0.00000  Uiso   1.00
O636   O     0.89441   0.46179   0.50000   0.00000  Uiso   1.00
O637   O     0.89441   0.53821   0.50000   0.00000  Uiso   1.00
O638   O     0.77226   0.46179   0.50000   0.00000  Uiso   1.00
O639   O     0.83334   0.53821   0.42845   0.00000  Uiso   1.00
O640   O     0.83333   0.46179   0.57155   0.00000  Uiso   1.00
O641   O     0.83333   0.53821   0.57155   0.00000  Uiso   1.00
O642   O     0.83334   0.46179   0.42845   0.00000  Uiso   1.00
Zn643  Zn    0.83333   0.55104   0.50000   0.00000  Uiso   1.00
Zn644  Zn    0.83333   0.44896   0.50000   0.00000  Uiso   1.00
N645   N     0.71185   0.46934   0.58551   0.00000  Uiso   1.00
H646   H     0.70325   0.43600   0.59315   0.00000  Uiso   1.00
H647   H     0.70337   0.48933   0.61613   0.00000  Uiso   1.00
N648   N     0.95637   0.53043   0.41331   0.00000  Uiso   1.00
H649   H     0.93808   0.55849   0.42253   0.00000  Uiso   1.00
H650   H     0.93658   0.50445   0.40121   0.00000  Uiso   1.00
N651   N     0.95667   0.46974   0.58676   0.00000  Uiso   1.00
H652   H     0.93695   0.49575   0.59882   0.00000  Uiso   1.00
H653   H     0.93832   0.44167   0.57761   0.00000  Uiso   1.00
N654   N     0.71155   0.53082   0.41456   0.00000  Uiso   1.00
H655   H     0.70288   0.51097   0.38385   0.00000  Uiso   1.00
H656   H     0.70304   0.56422   0.40710   0.00000  Uiso   1.00
H657   H     0.88197   0.37543   0.55388   0.00000  Uiso   1.00
H658   H     0.78468   0.62456   0.44614   0.00000  Uiso   1.00
H659   H     0.78469   0.37526   0.44613   0.00000  Uiso   1.00
H660   H     0.88198   0.62474   0.55387   0.00000  Uiso   1.00
C661   C     0.08685   0.83333   0.49999   0.00000  Uiso   1.00
C662   C     0.24651   0.83334   0.50001   0.00000  Uiso   1.00
C663   C     0.16666   0.83332   0.40623   0.00000  Uiso   1.00
C664   C     0.16669   0.83335   0.59376   0.00000  Uiso   1.00
C665   C     0.16669   0.83331   0.35513   0.00000  Uiso   1.00
C666   C     0.16670   0.83336   0.64487   0.00000  Uiso   1.00
C667   C     0.02193   0.81771   0.54255   0.00000  Uiso   1.00
C668   C     0.31174   0.84896   0.45728   0.00000  Uiso   1.00
C669   C     0.31189   0.81780   0.54277   0.00000  Uiso   1.00
C670   C     0.02178   0.84902   0.45747   0.00000  Uiso   1.00
C671   C     0.29065   0.83337   0.50002   0.00000  Uiso   1.00
C672   C     0.04277   0.83332   0.49999   0.00000  Uiso   1.00
C673   C     0.19368   0.69066   0.52991   0.00000  Uiso   1.00
C674   C     0.13965   0.97601   0.47009   0.00000  Uiso   1.00
C675   C     0.13965   0.69056   0.47009   0.00000  Uiso   1.00
C676   C     0.19368   0.97610   0.52991   0.00000  Uiso   1.00
N677   N     0.16667   0.95240   0.50000   0.00000  Uiso   1.00
N678   N     0.16667   0.71427   0.50000   0.00000  Uiso   1.00
O679   O     0.10559   0.87154   0.50000   0.00000  Uiso   1.00
O680   O     0.22774   0.79513   0.50000   0.00000  Uiso   1.00
O681   O     0.22774   0.87154   0.50000   0.00000  Uiso   1.00
O682   O     0.10559   0.79513   0.50000   0.00000  Uiso   1.00
O683   O     0.16667   0.87155   0.42845   0.00000  Uiso   1.00
O684   O     0.16666   0.79512   0.57155   0.00000  Uiso   1.00
O685   O     0.16666   0.87155   0.57155   0.00000  Uiso   1.00
O686   O     0.16667   0.79512   0.42845   0.00000  Uiso   1.00
Zn687  Zn    0.16667   0.88437   0.50000   0.00000  Uiso   1.00
Zn688  Zn    0.16667   0.78229   0.50000   0.00000  Uiso   1.00
N689   N     0.04518   0.80268   0.58551   0.00000  Uiso   1.00
H690   H     0.03659   0.76933   0.59315   0.00000  Uiso   1.00
H691   H     0.03671   0.82266   0.61613   0.00000  Uiso   1.00
N692   N     0.28970   0.86377   0.41331   0.00000  Uiso   1.00
H693   H     0.27141   0.89182   0.42253   0.00000  Uiso   1.00
H694   H     0.26991   0.83778   0.40121   0.00000  Uiso   1.00
N695   N     0.29001   0.80307   0.58676   0.00000  Uiso   1.00
H696   H     0.27029   0.82908   0.59882   0.00000  Uiso   1.00
H697   H     0.27166   0.77501   0.57761   0.00000  Uiso   1.00
N698   N     0.04489   0.86415   0.41456   0.00000  Uiso   1.00
H699   H     0.03621   0.84431   0.38385   0.00000  Uiso   1.00
H700   H     0.03637   0.89755   0.40710   0.00000  Uiso   1.00
H701   H     0.21530   0.70876   0.55388   0.00000  Uiso   1.00
H702   H     0.11801   0.95789   0.44614   0.00000  Uiso   1.00
H703   H     0.11802   0.70859   0.44613   0.00000  Uiso   1.00
H704   H     0.21531   0.95807   0.55387   0.00000  Uiso   1.00
C705   C     0.42019   0.83333   0.49999   0.00000  Uiso   1.00
C706   C     0.57984   0.83334   0.50001   0.00000  Uiso   1.00
C707   C     0.49999   0.83332   0.40623   0.00000  Uiso   1.00
C708   C     0.50003   0.83335   0.59376   0.00000  Uiso   1.00
C709   C     0.50002   0.83331   0.35513   0.00000  Uiso   1.00
C710   C     0.50004   0.83336   0.64487   0.00000  Uiso   1.00
C711   C     0.35526   0.81771   0.54255   0.00000  Uiso   1.00
C712   C     0.64507   0.84896   0.45728   0.00000  Uiso   1.00
C713   C     0.64522   0.81780   0.54277   0.00000  Uiso   1.00
C714   C     0.35512   0.84902   0.45747   0.00000  Uiso   1.00
C715   C     0.62398   0.83337   0.50002   0.00000  Uiso   1.00
C716   C     0.37610   0.83332   0.49999   0.00000  Uiso   1.00
C717   C     0.52701   0.69066   0.52991   0.00000  Uiso   1.00
C718   C     0.47298   0.97601   0.47009   0.00000  Uiso   1.00
C719   C     0.47298   0.69056   0.47009   0.00000  Uiso   1.00
C720   C     0.52702   0.97610   0.52991   0.00000  Uiso   1.00
N721   N     0.50000   0.95240   0.50000   0.00000  Uiso   1.00
N722   N     0.50000   0.71427   0.50000   0.00000  Uiso   1.00
O723   O     0.43892   0.87154   0.50000   0.00000  Uiso   1.00
O724   O     0.56108   0.79513   0.50000   0.00000  Uiso   1.00
O725   O     0.56108   0.87154   0.50000   0.00000  Uiso   1.00
O726   O     0.43892   0.79513   0.50000   0.00000  Uiso   1.00
O727   O     0.50000   0.87155   0.42845   0.00000  Uiso   1.00
O728   O     0.50000   0.79512   0.57155   0.00000  Uiso   1.00
O729   O     0.50000   0.87155   0.57155   0.00000  Uiso   1.00
O730   O     0.50000   0.79512   0.42845   0.00000  Uiso   1.00
Zn731  Zn    0.50000   0.88437   0.50000   0.00000  Uiso   1.00
Zn732  Zn    0.50000   0.78229   0.50000   0.00000  Uiso   1.00
N733   N     0.37851   0.80268   0.58551   0.00000  Uiso   1.00
H734   H     0.36992   0.76933   0.59315   0.00000  Uiso   1.00
H735   H     0.37004   0.82266   0.61613   0.00000  Uiso   1.00
N736   N     0.62303   0.86377   0.41331   0.00000  Uiso   1.00
H737   H     0.60475   0.89182   0.42253   0.00000  Uiso   1.00
H738   H     0.60324   0.83778   0.40121   0.00000  Uiso   1.00
N739   N     0.62334   0.80307   0.58676   0.00000  Uiso   1.00
H740   H     0.60362   0.82908   0.59882   0.00000  Uiso   1.00
H741   H     0.60499   0.77501   0.57761   0.00000  Uiso   1.00
N742   N     0.37822   0.86415   0.41456   0.00000  Uiso   1.00
H743   H     0.36955   0.84431   0.38385   0.00000  Uiso   1.00
H744   H     0.36971   0.89755   0.40710   0.00000  Uiso   1.00
H745   H     0.54864   0.70876   0.55388   0.00000  Uiso   1.00
H746   H     0.45134   0.95789   0.44614   0.00000  Uiso   1.00
H747   H     0.45135   0.70859   0.44613   0.00000  Uiso   1.00
H748   H     0.54865   0.95807   0.55387   0.00000  Uiso   1.00
C749   C     0.75352   0.83333   0.49999   0.00000  Uiso   1.00
C750   C     0.91318   0.83334   0.50001   0.00000  Uiso   1.00
C751   C     0.83333   0.83332   0.40623   0.00000  Uiso   1.00
C752   C     0.83336   0.83335   0.59376   0.00000  Uiso   1.00
C753   C     0.83336   0.83331   0.35513   0.00000  Uiso   1.00
C754   C     0.83337   0.83336   0.64487   0.00000  Uiso   1.00
C755   C     0.68860   0.81771   0.54255   0.00000  Uiso   1.00
C756   C     0.97840   0.84896   0.45728   0.00000  Uiso   1.00
C757   C     0.97855   0.81780   0.54277   0.00000  Uiso   1.00
C758   C     0.68845   0.84902   0.45747   0.00000  Uiso   1.00
C759   C     0.95732   0.83337   0.50002   0.00000  Uiso   1.00
C760   C     0.70943   0.83332   0.49999   0.00000  Uiso   1.00
C761   C     0.86035   0.69066   0.52991   0.00000  Uiso   1.00
C762   C     0.80631   0.97601   0.47009   0.00000  Uiso   1.00
C763   C     0.80632   0.69056   0.47009   0.00000  Uiso   1.00
C764   C     0.86035   0.97610   0.52991   0.00000  Uiso   1.00
N765   N     0.83333   0.95240   0.50000   0.00000  Uiso   1.00
N766   N     0.83333   0.71427   0.50000   0.00000  Uiso   1.00
O767   O     0.77226   0.87154   0.50000   0.00000  Uiso   1.00
O768   O     0.89441   0.79513   0.50000   0.00000  Uiso   1.00
O769   O     0.89441   0.87154   0.50000   0.00000  Uiso   1.00
O770   O     0.77226   0.79513   0.50000   0.00000  Uiso   1.00
O771   O     0.83334   0.87155   0.42845   0.00000  Uiso   1.00
O772   O     0.83333   0.79512   0.57155   0.00000  Uiso   1.00
O773   O     0.83333   0.87155   0.57155   0.00000  Uiso   1.00
O774   O     0.83334   0.79512   0.42845   0.00000  Uiso   1.00
Zn775  Zn    0.83333   0.88437   0.50000   0.00000  Uiso   1.00
Zn776  Zn    0.83333   0.78229   0.50000   0.00000  Uiso   1.00
N777   N     0.71185   0.80268   0.58551   0.00000  Uiso   1.00
H778   H     0.70325   0.76933   0.59315   0.00000  Uiso   1.00
H779   H     0.70337   0.82266   0.61613   0.00000  Uiso   1.00
N780   N     0.95637   0.86377   0.41331   0.00000  Uiso   1.00
H781   H     0.93808   0.89182   0.42253   0.00000  Uiso   1.00
H782   H     0.93658   0.83778   0.40121   0.00000  Uiso   1.00
N783   N     0.95667   0.80307   0.58676   0.00000  Uiso   1.00
H784   H     0.93695   0.82908   0.59882   0.00000  Uiso   1.00
H785   H     0.93832   0.77501   0.57761   0.00000  Uiso   1.00
N786   N     0.71155   0.86415   0.41456   0.00000  Uiso   1.00
H787   H     0.70288   0.84431   0.38385   0.00000  Uiso   1.00
H788   H     0.70304   0.89755   0.40710   0.00000  Uiso   1.00
H789   H     0.88197   0.70876   0.55388   0.00000  Uiso   1.00
H790   H     0.78468   0.95789   0.44614   0.00000  Uiso   1.00
H791   H     0.78469   0.70859   0.44613   0.00000  Uiso   1.00
H792   H     0.88198   0.95807   0.55387   0.00000  Uiso   1.00
C793   C     0.08685   0.16666   0.83332   0.00000  Uiso   1.00
C794   C     0.24651   0.16668   0.83335   0.00000  Uiso   1.00
C795   C     0.16666   0.16665   0.73957   0.00000  Uiso   1.00
C796   C     0.16669   0.16668   0.92710   0.00000  Uiso   1.00
C797   C     0.16669   0.16664   0.68846   0.00000  Uiso   1.00
C798   C     0.16670   0.16669   0.97820   0.00000  Uiso   1.00
C799   C     0.02193   0.15104   0.87589   0.00000  Uiso   1.00
C800   C     0.31174   0.18230   0.79061   0.00000  Uiso   1.00
C801   C     0.31189   0.15113   0.87610   0.00000  Uiso   1.00
C802   C     0.02178   0.18235   0.79080   0.00000  Uiso   1.00
C803   C     0.29065   0.16670   0.83335   0.00000  Uiso   1.00
C804   C     0.04277   0.16666   0.83333   0.00000  Uiso   1.00
C805   C     0.19368   0.02399   0.86325   0.00000  Uiso   1.00
C806   C     0.13965   0.30934   0.80342   0.00000  Uiso   1.00
C807   C     0.13965   0.02389   0.80342   0.00000  Uiso   1.00
C808   C     0.19368   0.30944   0.86324   0.00000  Uiso   1.00
N809   N     0.16667   0.28573   0.83333   0.00000  Uiso   1.00
N810   N     0.16667   0.04760   0.83333   0.00000  Uiso   1.00
O811   O     0.10559   0.20487   0.83333   0.00000  Uiso   1.00
O812   O     0.22774   0.12846   0.83334   0.00000  Uiso   1.00
O813   O     0.22774   0.20487   0.83334   0.00000  Uiso   1.00
O814   O     0.10559   0.12846   0.83333   0.00000  Uiso   1.00
O815   O     0.16667   0.20488   0.76178   0.00000  Uiso   1.00
O816   O     0.16666   0.12845   0.90489   0.00000  Uiso   1.00
O817   O     0.16666   0.20488   0.90489   0.00000  Uiso   1.00
O818   O     0.16667   0.12845   0.76178   0.00000  Uiso   1.00
Zn819  Zn    0.16667   0.21771   0.83333   0.00000  Uiso   1.00
Zn820  Zn    0.16667   0.11563   0.83333   0.00000  Uiso   1.00
N821   N     0.04518   0.13601   0.91884   0.00000  Uiso   1.00
H822   H     0.03659   0.10266   0.92648   0.00000  Uiso   1.00
H823   H     0.03671   0.15600   0.94946   0.00000  Uiso   1.00
N824   N     0.28970   0.19710   0.74664   0.00000  Uiso   1.00
H825   H     0.27141   0.22515   0.75586   0.00000  Uiso   1.00
H826   H     0.26991   0.17111   0.73454   0.00000  Uiso   1.00
N827   N     0.29001   0.13640   0.92010   0.00000  Uiso   1.00
H828   H     0.27029   0.16241   0.93215   0.00000  Uiso   1.00
H829   H     0.27166   0.10834   0.91094   0.00000  Uiso   1.00
N830   N     0.04489   0.19748   0.74790   0.00000  Uiso   1.00
H831   H     0.03621   0.17764   0.71719   0.00000  Uiso   1.00
H832   H     0.03637   0.23089   0.74043   0.00000  Uiso   1.00
H833   H     0.21530   0.04210   0.88722   0.00000  Uiso   1.00
H834   H     0.11801   0.29123   0.77947   0.00000  Uiso   1.00
H835   H     0.11802   0.04193   0.77946   0.00000  Uiso   1.00
H836   H     0.21531   0.29140   0.88720   0.00000  Uiso   1.00
C837   C     0.42019   0.16666   0.83332   0.00000  Uiso   1.00
C838   C     0.57984   0.16668   0.83335   0.00000  Uiso   1.00
C839   C     0.49999   0.16665   0.73957   0.00000  Uiso   1.00
C840   C     0.50003   0.16668   0.92710   0.00000  Uiso   1.00
C841   C     0.50002   0.16664   0.68846   0.00000  Uiso   1.00
C842   C     0.50004   0.16669   0.97820   0.00000  Uiso   1.00
C843   C     0.35526   0.15104   0.87589   0.00000  Uiso   1.00
C844   C     0.64507   0.18230   0.79061   0.00000  Uiso   1.00
C845   C     0.64522   0.15113   0.87610   0.00000  Uiso   1.00
C846   C     0.35512   0.18235   0.79080   0.00000  Uiso   1.00
C847   C     0.62398   0.16670   0.83335   0.00000  Uiso   1.00
C848   C     0.37610   0.16666   0.83333   0.00000  Uiso   1.00
C849   C     0.52701   0.02399   0.86325   0.00000  Uiso   1.00
C850   C     0.47298   0.30934   0.80342   0.00000  Uiso   1.00
C851   C     0.47298   0.02389   0.80342   0.00000  Uiso   1.00
C852   C     0.52702   0.30944   0.86324   0.00000  Uiso   1.00
N853   N     0.50000   0.28573   0.83333   0.00000  Uiso   1.00
N854   N     0.50000   0.04760   0.83333   0.00000  Uiso   1.00
O855   O     0.43892   0.20487   0.83333   0.00000  Uiso   1.00
O856   O     0.56108   0.12846   0.83334   0.00000  Uiso   1.00
O857   O     0.56108   0.20487   0.83334   0.00000  Uiso   1.00
O858   O     0.43892   0.12846   0.83333   0.00000  Uiso   1.00
O859   O     0.50000   0.20488   0.76178   0.00000  Uiso   1.00
O860   O     0.50000   0.12845   0.90489   0.00000  Uiso   1.00
O861   O     0.50000   0.20488   0.90489   0.00000  Uiso   1.00
O862   O     0.50000   0.12845   0.76178   0.00000  Uiso   1.00
Zn863  Zn    0.50000   0.21771   0.83333   0.00000  Uiso   1.00
Zn864  Zn    0.50000   0.11563   0.83333   0.00000  Uiso   1.00
N865   N     0.37851   0.13601   0.91884   0.00000  Uiso   1.00
H866   H     0.36992   0.10266   0.92648   0.00000  Uiso   1.00
H867   H     0.37004   0.15600   0.94946   0.00000  Uiso   1.00
N868   N     0.62303   0.19710   0.74664   0.00000  Uiso   1.00
H869   H     0.60475   0.22515   0.75586   0.00000  Uiso   1.00
H870   H     0.60324   0.17111   0.73454   0.00000  Uiso   1.00
N871   N     0.62334   0.13640   0.92010   0.00000  Uiso   1.00
H872   H     0.60362   0.16241   0.93215   0.00000  Uiso   1.00
H873   H     0.60499   0.10834   0.91094   0.00000  Uiso   1.00
N874   N     0.37822   0.19748   0.74790   0.00000  Uiso   1.00
H875   H     0.36955   0.17764   0.71719   0.00000  Uiso   1.00
H876   H     0.36971   0.23089   0.74043   0.00000  Uiso   1.00
H877   H     0.54864   0.04210   0.88722   0.00000  Uiso   1.00
H878   H     0.45134   0.29123   0.77947   0.00000  Uiso   1.00
H879   H     0.45135   0.04193   0.77946   0.00000  Uiso   1.00
H880   H     0.54865   0.29140   0.88720   0.00000  Uiso   1.00
C881   C     0.75352   0.16666   0.83332   0.00000  Uiso   1.00
C882   C     0.91318   0.16668   0.83335   0.00000  Uiso   1.00
C883   C     0.83333   0.16665   0.73957   0.00000  Uiso   1.00
C884   C     0.83336   0.16668   0.92710   0.00000  Uiso   1.00
C885   C     0.83336   0.16664   0.68846   0.00000  Uiso   1.00
C886   C     0.83337   0.16669   0.97820   0.00000  Uiso   1.00
C887   C     0.68860   0.15104   0.87589   0.00000  Uiso   1.00
C888   C     0.97840   0.18230   0.79061   0.00000  Uiso   1.00
C889   C     0.97855   0.15113   0.87610   0.00000  Uiso   1.00
C890   C     0.68845   0.18235   0.79080   0.00000  Uiso   1.00
C891   C     0.95732   0.16670   0.83335   0.00000  Uiso   1.00
C892   C     0.70943   0.16666   0.83333   0.00000  Uiso   1.00
C893   C     0.86035   0.02399   0.86325   0.00000  Uiso   1.00
C894   C     0.80631   0.30934   0.80342   0.00000  Uiso   1.00
C895   C     0.80632   0.02389   0.80342   0.00000  Uiso   1.00
C896   C     0.86035   0.30944   0.86324   0.00000  Uiso   1.00
N897   N     0.83333   0.28573   0.83333   0.00000  Uiso   1.00
N898   N     0.83333   0.04760   0.83333   0.00000  Uiso   1.00
O899   O     0.77226   0.20487   0.83333   0.00000  Uiso   1.00
O900   O     0.89441   0.12846   0.83334   0.00000  Uiso   1.00
O901   O     0.89441   0.20487   0.83334   0.00000  Uiso   1.00
O902   O     0.77226   0.12846   0.83333   0.00000  Uiso   1.00
O903   O     0.83334   0.20488   0.76178   0.00000  Uiso   1.00
O904   O     0.83333   0.12845   0.90489   0.00000  Uiso   1.00
O905   O     0.83333   0.20488   0.90489   0.00000  Uiso   1.00
O906   O     0.83334   0.12845   0.76178   0.00000  Uiso   1.00
Zn907  Zn    0.83333   0.21771   0.83333   0.00000  Uiso   1.00
Zn908  Zn    0.83333   0.11563   0.83333   0.00000  Uiso   1.00
N909   N     0.71185   0.13601   0.91884   0.00000  Uiso   1.00
H910   H     0.70325   0.10266   0.92648   0.00000  Uiso   1.00
H911   H     0.70337   0.15600   0.94946   0.00000  Uiso   1.00
N912   N     0.95637   0.19710   0.74664   0.00000  Uiso   1.00
H913   H     0.93808   0.22515   0.75586   0.00000  Uiso   1.00
H914   H     0.93658   0.17111   0.73454   0.00000  Uiso   1.00
N915   N     0.95667   0.13640   0.92010   0.00000  Uiso   1.00
H916   H     0.93695   0.16241   0.93215   0.00000  Uiso   1.00
H917   H     0.93832   0.10834   0.91094   0.00000  Uiso   1.00
N918   N     0.71155   0.19748   0.74790   0.00000  Uiso   1.00
H919   H     0.70288   0.17764   0.71719   0.00000  Uiso   1.00
H920   H     0.70304   0.23089   0.74043   0.00000  Uiso   1.00
H921   H     0.88197   0.04210   0.88722   0.00000  Uiso   1.00
H922   H     0.78468   0.29123   0.77947   0.00000  Uiso   1.00
H923   H     0.78469   0.04193   0.77946   0.00000  Uiso   1.00
H924   H     0.88198   0.29140   0.88720   0.00000  Uiso   1.00
C925   C     0.08685   0.49999   0.83332   0.00000  Uiso   1.00
C926   C     0.24651   0.50001   0.83335   0.00000  Uiso   1.00
C927   C     0.16666   0.49998   0.73957   0.00000  Uiso   1.00
C928   C     0.16669   0.50002   0.92710   0.00000  Uiso   1.00
C929   C     0.16669   0.49998   0.68846   0.00000  Uiso   1.00
C930   C     0.16670   0.50002   0.97820   0.00000  Uiso   1.00
C931   C     0.02193   0.48437   0.87589   0.00000  Uiso   1.00
C932   C     0.31174   0.51563   0.79061   0.00000  Uiso   1.00
C933   C     0.31189   0.48446   0.87610   0.00000  Uiso   1.00
C934   C     0.02178   0.51569   0.79080   0.00000  Uiso   1.00
C935   C     0.29065   0.50003   0.83335   0.00000  Uiso   1.00
C936   C     0.04277   0.49999   0.83333   0.00000  Uiso   1.00
C937   C     0.19368   0.35732   0.86325   0.00000  Uiso   1.00
C938   C     0.13965   0.64267   0.80342   0.00000  Uiso   1.00
C939   C     0.13965   0.35723   0.80342   0.00000  Uiso   1.00
C940   C     0.19368   0.64277   0.86324   0.00000  Uiso   1.00
N941   N     0.16667   0.61907   0.83333   0.00000  Uiso   1.00
N942   N     0.16667   0.38093   0.83333   0.00000  Uiso   1.00
O943   O     0.10559   0.53821   0.83333   0.00000  Uiso   1.00
O944   O     0.22774   0.46179   0.83334   0.00000  Uiso   1.00
O945   O     0.22774   0.53821   0.83334   0.00000  Uiso   1.00
O946   O     0.10559   0.46179   0.83333   0.00000  Uiso   1.00
O947   O     0.16667   0.53821   0.76178   0.00000  Uiso   1.00
O948   O     0.16666   0.46179   0.90489   0.00000  Uiso   1.00
O949   O     0.16666   0.53821   0.90489   0.00000  Uiso   1.00
O950   O     0.16667   0.46179   0.76178   0.00000  Uiso   1.00
Zn951  Zn    0.16667   0.55104   0.83333   0.00000  Uiso   1.00
Zn952  Zn    0.16667   0.44896   0.83333   0.00000  Uiso   1.00
N953   N     0.04518   0.46934   0.91884   0.00000  Uiso   1.00
H954   H     0.03659   0.43600   0.92648   0.00000  Uiso   1.00
H955   H     0.03671   0.48933   0.94946   0.00000  Uiso   1.00
N956   N     0.28970   0.53043   0.74664   0.00000  Uiso   1.00
H957   H     0.27141   0.55849   0.75586   0.00000  Uiso   1.00
H958   H     0.26991   0.50445   0.73454   0.00000  Uiso   1.00
N959   N     0.29001   0.46974   0.92010   0.00000  Uiso   1.00
H960   H     0.27029   0.49575   0.93215   0.00000  Uiso   1.00
H961   H     0.27166   0.44167   0.91094   0.00000  Uiso   1.00
N962   N     0.04489   0.53082   0.74790   0.00000  Uiso   1.00
H963   H     0.03621   0.51097   0.71719   0.00000  Uiso   1.00
H964   H     0.03637   0.56422   0.74043   0.00000  Uiso   1.00
H965   H     0.21530   0.37543   0.88722   0.00000  Uiso   1.00
H966   H     0.11801   0.62456   0.77947   0.00000  Uiso   1.00
H967   H     0.11802   0.37526   0.77946   0.00000  Uiso   1.00
H968   H     0.21531   0.62474   0.88720   0.00000  Uiso   1.00
C969   C     0.42019   0.49999   0.83332   0.00000  Uiso   1.00
C970   C     0.57984   0.50001   0.83335   0.00000  Uiso   1.00
C971   C     0.49999   0.49998   0.73957   0.00000  Uiso   1.00
C972   C     0.50003   0.50002   0.92710   0.00000  Uiso   1.00
C973   C     0.50002   0.49998   0.68846   0.00000  Uiso   1.00
C974   C     0.50004   0.50002   0.97820   0.00000  Uiso   1.00
C975   C     0.35526   0.48437   0.87589   0.00000  Uiso   1.00
C976   C     0.64507   0.51563   0.79061   0.00000  Uiso   1.00
C977   C     0.64522   0.48446   0.87610   0.00000  Uiso   1.00
C978   C     0.35512   0.51569   0.79080   0.00000  Uiso   1.00
C979   C     0.62398   0.50003   0.83335   0.00000  Uiso   1.00
C980   C     0.37610   0.49999   0.83333   0.00000  Uiso   1.00
C981   C     0.52701   0.35732   0.86325   0.00000  Uiso   1.00
C982   C     0.47298   0.64267   0.80342   0.00000  Uiso   1.00
C983   C     0.47298   0.35723   0.80342   0.00000  Uiso   1.00
C984   C     0.52702   0.64277   0.86324   0.00000  Uiso   1.00
N985   N     0.50000   0.61907   0.83333   0.00000  Uiso   1.00
N986   N     0.50000   0.38093   0.83333   0.00000  Uiso   1.00
O987   O     0.43892   0.53821   0.83333   0.00000  Uiso   1.00
O988   O     0.56108   0.46179   0.83334   0.00000  Uiso   1.00
O989   O     0.56108   0.53821   0.83334   0.00000  Uiso   1.00
O990   O     0.43892   0.46179   0.83333   0.00000  Uiso   1.00
O991   O     0.50000   0.53821   0.76178   0.00000  Uiso   1.00
O992   O     0.50000   0.46179   0.90489   0.00000  Uiso   1.00
O993   O     0.50000   0.53821   0.90489   0.00000  Uiso   1.00
O994   O     0.50000   0.46179   0.76178   0.00000  Uiso   1.00
Zn995  Zn    0.50000   0.55104   0.83333   0.00000  Uiso   1.00
Zn996  Zn    0.50000   0.44896   0.83333   0.00000  Uiso   1.00
N997   N     0.37851   0.46934   0.91884   0.00000  Uiso   1.00
H998   H     0.36992   0.43600   0.92648   0.00000  Uiso   1.00
H999   H     0.37004   0.48933   0.94946   0.00000  Uiso   1.00
N1000  N     0.62303   0.53043   0.74664   0.00000  Uiso   1.00
H1001  H     0.60475   0.55849   0.75586   0.00000  Uiso   1.00
H1002  H     0.60324   0.50445   0.73454   0.00000  Uiso   1.00
N1003  N     0.62334   0.46974   0.92010   0.00000  Uiso   1.00
H1004  H     0.60362   0.49575   0.93215   0.00000  Uiso   1.00
H1005  H     0.60499   0.44167   0.91094   0.00000  Uiso   1.00
N1006  N     0.37822   0.53082   0.74790   0.00000  Uiso   1.00
H1007  H     0.36955   0.51097   0.71719   0.00000  Uiso   1.00
H1008  H     0.36971   0.56422   0.74043   0.00000  Uiso   1.00
H1009  H     0.54864   0.37543   0.88722   0.00000  Uiso   1.00
H1010  H     0.45134   0.62456   0.77947   0.00000  Uiso   1.00
H1011  H     0.45135   0.37526   0.77946   0.00000  Uiso   1.00
H1012  H     0.54865   0.62474   0.88720   0.00000  Uiso   1.00
C1013  C     0.75352   0.49999   0.83332   0.00000  Uiso   1.00
C1014  C     0.91318   0.50001   0.83335   0.00000  Uiso   1.00
C1015  C     0.83333   0.49998   0.73957   0.00000  Uiso   1.00
C1016  C     0.83336   0.50002   0.92710   0.00000  Uiso   1.00
C1017  C     0.83336   0.49998   0.68846   0.00000  Uiso   1.00
C1018  C     0.83337   0.50002   0.97820   0.00000  Uiso   1.00
C1019  C     0.68860   0.48437   0.87589   0.00000  Uiso   1.00
C1020  C     0.97840   0.51563   0.79061   0.00000  Uiso   1.00
C1021  C     0.97855   0.48446   0.87610   0.00000  Uiso   1.00
C1022  C     0.68845   0.51569   0.79080   0.00000  Uiso   1.00
C1023  C     0.95732   0.50003   0.83335   0.00000  Uiso   1.00
C1024  C     0.70943   0.49999   0.83333   0.00000  Uiso   1.00
C1025  C     0.86035   0.35732   0.86325   0.00000  Uiso   1.00
C1026  C     0.80631   0.64267   0.80342   0.00000  Uiso   1.00
C1027  C     0.80632   0.35723   0.80342   0.00000  Uiso   1.00
C1028  C     0.86035   0.64277   0.86324   0.00000  Uiso   1.00
N1029  N     0.83333   0.61907   0.83333   0.00000  Uiso   1.00
N1030  N     0.83333   0.38093   0.83333   0.00000  Uiso   1.00
O1031  O     0.77226   0.53821   0.83333   0.00000  Uiso   1.00
O1032  O     0.89441   0.46179   0.83334   0.00000  Uiso   1.00
O1033  O     0.89441   0.53821   0.83334   0.00000  Uiso   1.00
O1034  O     0.77226   0.46179   0.83333   0.00000  Uiso   1.00
O1035  O     0.83334   0.53821   0.76178   0.00000  Uiso   1.00
O1036  O     0.83333   0.46179   0.90489   0.00000  Uiso   1.00
O1037  O     0.83333   0.53821   0.90489   0.00000  Uiso   1.00
O1038  O     0.83334   0.46179   0.76178   0.00000  Uiso   1.00
Zn1039 Zn    0.83333   0.55104   0.83333   0.00000  Uiso   1.00
Zn1040 Zn    0.83333   0.44896   0.83333   0.00000  Uiso   1.00
N1041  N     0.71185   0.46934   0.91884   0.00000  Uiso   1.00
H1042  H     0.70325   0.43600   0.92648   0.00000  Uiso   1.00
H1043  H     0.70337   0.48933   0.94946   0.00000  Uiso   1.00
N1044  N     0.95637   0.53043   0.74664   0.00000  Uiso   1.00
H1045  H     0.93808   0.55849   0.75586   0.00000  Uiso   1.00
H1046  H     0.93658   0.50445   0.73454   0.00000  Uiso   1.00
N1047  N     0.95667   0.46974   0.92010   0.00000  Uiso   1.00
H1048  H     0.93695   0.49575   0.93215   0.00000  Uiso   1.00
H1049  H     0.93832   0.44167   0.91094   0.00000  Uiso   1.00
N1050  N     0.71155   0.53082   0.74790   0.00000  Uiso   1.00
H1051  H     0.70288   0.51097   0.71719   0.00000  Uiso   1.00
H1052  H     0.70304   0.56422   0.74043   0.00000  Uiso   1.00
H1053  H     0.88197   0.37543   0.88722   0.00000  Uiso   1.00
H1054  H     0.78468   0.62456   0.77947   0.00000  Uiso   1.00
H1055  H     0.78469   0.37526   0.77946   0.00000  Uiso   1.00
H1056  H     0.88198   0.62474   0.88720   0.00000  Uiso   1.00
C1057  C     0.08685   0.83333   0.83332   0.00000  Uiso   1.00
C1058  C     0.24651   0.83334   0.83335   0.00000  Uiso   1.00
C1059  C     0.16666   0.83332   0.73957   0.00000  Uiso   1.00
C1060  C     0.16669   0.83335   0.92710   0.00000  Uiso   1.00
C1061  C     0.16669   0.83331   0.68846   0.00000  Uiso   1.00
C1062  C     0.16670   0.83336   0.97820   0.00000  Uiso   1.00
C1063  C     0.02193   0.81771   0.87589   0.00000  Uiso   1.00
C1064  C     0.31174   0.84896   0.79061   0.00000  Uiso   1.00
C1065  C     0.31189   0.81780   0.87610   0.00000  Uiso   1.00
C1066  C     0.02178   0.84902   0.79080   0.00000  Uiso   1.00
C1067  C     0.29065   0.83337   0.83335   0.00000  Uiso   1.00
C1068  C     0.04277   0.83332   0.83333   0.00000  Uiso   1.00
C1069  C     0.19368   0.69066   0.86325   0.00000  Uiso   1.00
C1070  C     0.13965   0.97601   0.80342   0.00000  Uiso   1.00
C1071  C     0.13965   0.69056   0.80342   0.00000  Uiso   1.00
C1072  C     0.19368   0.97610   0.86324   0.00000  Uiso   1.00
N1073  N     0.16667   0.95240   0.83333   0.00000  Uiso   1.00
N1074  N     0.16667   0.71427   0.83333   0.00000  Uiso   1.00
O1075  O     0.10559   0.87154   0.83333   0.00000  Uiso   1.00
O1076  O     0.22774   0.79513   0.83334   0.00000  Uiso   1.00
O1077  O     0.22774   0.87154   0.83334   0.00000  Uiso   1.00
O1078  O     0.10559   0.79513   0.83333   0.00000  Uiso   1.00
O1079  O     0.16667   0.87155   0.76178   0.00000  Uiso   1.00
O1080  O     0.16666   0.79512   0.90489   0.00000  Uiso   1.00
O1081  O     0.16666   0.87155   0.90489   0.00000  Uiso   1.00
O1082  O     0.16667   0.79512   0.76178   0.00000  Uiso   1.00
Zn1083 Zn    0.16667   0.88437   0.83333   0.00000  Uiso   1.00
Zn1084 Zn    0.16667   0.78229   0.83333   0.00000  Uiso   1.00
N1085  N     0.04518   0.80268   0.91884   0.00000  Uiso   1.00
H1086  H     0.03659   0.76933   0.92648   0.00000  Uiso   1.00
H1087  H     0.03671   0.82266   0.94946   0.00000  Uiso   1.00
N1088  N     0.28970   0.86377   0.74664   0.00000  Uiso   1.00
H1089  H     0.27141   0.89182   0.75586   0.00000  Uiso   1.00
H1090  H     0.26991   0.83778   0.73454   0.00000  Uiso   1.00
N1091  N     0.29001   0.80307   0.92010   0.00000  Uiso   1.00
H1092  H     0.27029   0.82908   0.93215   0.00000  Uiso   1.00
H1093  H     0.27166   0.77501   0.91094   0.00000  Uiso   1.00
N1094  N     0.04489   0.86415   0.74790   0.00000  Uiso   1.00
H1095  H     0.03621   0.84431   0.71719   0.00000  Uiso   1.00
H1096  H     0.03637   0.89755   0.74043   0.00000  Uiso   1.00
H1097  H     0.21530   0.70876   0.88722   0.00000  Uiso   1.00
H1098  H     0.11801   0.95789   0.77947   0.00000  Uiso   1.00
H1099  H     0.11802   0.70859   0.77946   0.00000  Uiso   1.00
H1100  H     0.21531   0.95807   0.88720   0.00000  Uiso   1.00
C1101  C     0.42019   0.83333   0.83332   0.00000  Uiso   1.00
C1102  C     0.57984   0.83334   0.83335   0.00000  Uiso   1.00
C1103  C     0.49999   0.83332   0.73957   0.00000  Uiso   1.00
C1104  C     0.50003   0.83335   0.92710   0.00000  Uiso   1.00
C1105  C     0.50002   0.83331   0.68846   0.00000  Uiso   1.00
C1106  C     0.50004   0.83336   0.97820   0.00000  Uiso   1.00
C1107  C     0.35526   0.81771   0.87589   0.00000  Uiso   1.00
C1108  C     0.64507   0.84896   0.79061   0.00000  Uiso   1.00
C1109  C     0.64522   0.81780   0.87610   0.00000  Uiso   1.00
C1110  C     0.35512   0.84902   0.79080   0.00000  Uiso   1.00
C1111  C     0.62398   0.83337   0.83335   0.00000  Uiso   1.00
C1112  C     0.37610   0.83332   0.83333   0.00000  Uiso   1.00
C1113  C     0.52701   0.69066   0.86325   0.00000  Uiso   1.00
C1114  C     0.47298   0.97601   0.80342   0.00000  Uiso   1.00
C1115  C     0.47298   0.69056   0.80342   0.00000  Uiso   1.00
C1116  C     0.52702   0.97610   0.86324   0.00000  Uiso   1.00
N1117  N     0.50000   0.95240   0.83333   0.00000  Uiso   1.00
N1118  N     0.50000   0.71427   0.83333   0.00000  Uiso   1.00
O1119  O     0.43892   0.87154   0.83333   0.00000  Uiso   1.00
O1120  O     0.56108   0.79513   0.83334   0.00000  Uiso   1.00
O1121  O     0.56108   0.87154   0.83334   0.00000  Uiso   1.00
O1122  O     0.43892   0.79513   0.83333   0.00000  Uiso   1.00
O1123  O     0.50000   0.87155   0.76178   0.00000  Uiso   1.00
O1124  O     0.50000   0.79512   0.90489   0.00000  Uiso   1.00
O1125  O     0.50000   0.87155   0.90489   0.00000  Uiso   1.00
O1126  O     0.50000   0.79512   0.76178   0.00000  Uiso   1.00
Zn1127 Zn    0.50000   0.88437   0.83333   0.00000  Uiso   1.00
Zn1128 Zn    0.50000   0.78229   0.83333   0.00000  Uiso   1.00
N1129  N     0.37851   0.80268   0.91884   0.00000  Uiso   1.00
H1130  H     0.36992   0.76933   0.92648   0.00000  Uiso   1.00
H1131  H     0.37004   0.82266   0.94946   0.00000  Uiso   1.00
N1132  N     0.62303   0.86377   0.74664   0.00000  Uiso   1.00
H1133  H     0.60475   0.89182   0.75586   0.00000  Uiso   1.00
H1134  H     0.60324   0.83778   0.73454   0.00000  Uiso   1.00
N1135  N     0.62334   0.80307   0.92010   0.00000  Uiso   1.00
H1136  H     0.60362   0.82908   0.93215   0.00000  Uiso   1.00
H1137  H     0.60499   0.77501   0.91094   0.00000  Uiso   1.00
N1138  N     0.37822   0.86415   0.74790   0.00000  Uiso   1.00
H1139  H     0.36955   0.84431   0.71719   0.00000  Uiso   1.00
H1140  H     0.36971   0.89755   0.74043   0.00000  Uiso   1.00
H1141  H     0.54864   0.70876   0.88722   0.00000  Uiso   1.00
H1142  H     0.45134   0.95789   0.77947   0.00000  Uiso   1.00
H1143  H     0.45135   0.70859   0.77946   0.00000  Uiso   1.00
H1144  H     0.54865   0.95807   0.88720   0.00000  Uiso   1.00
C1145  C     0.75352   0.83333   0.83332   0.00000  Uiso   1.00
C1146  C     0.91318   0.83334   0.83335   0.00000  Uiso   1.00
C1147  C     0.83333   0.83332   0.73957   0.00000  Uiso   1.00
C1148  C     0.83336   0.83335   0.92710   0.00000  Uiso   1.00
C1149  C     0.83336   0.83331   0.68846   0.00000  Uiso   1.00
C1150  C     0.83337   0.83336   0.97820   0.00000  Uiso   1.00
C1151  C     0.68860   0.81771   0.87589   0.00000  Uiso   1.00
C1152  C     0.97840   0.84896   0.79061   0.00000  Uiso   1.00
C1153  C     0.97855   0.81780   0.87610   0.00000  Uiso   1.00
C1154  C     0.68845   0.84902   0.79080   0.00000  Uiso   1.00
C1155  C     0.95732   0.83337   0.83335   0.00000  Uiso   1.00
C1156  C     0.70943   0.83332   0.83333   0.00000  Uiso   1.00
C1157  C     0.86035   0.69066   0.86325   0.00000  Uiso   1.00
C1158  C     0.80631   0.97601   0.80342   0.00000  Uiso   1.00
C1159  C     0.80632   0.69056   0.80342   0.00000  Uiso   1.00
C1160  C     0.86035   0.97610   0.86324   0.00000  Uiso   1.00
N1161  N     0.83333   0.95240   0.83333   0.00000  Uiso   1.00
N1162  N     0.83333   0.71427   0.83333   0.00000  Uiso   1.00
O1163  O     0.77226   0.87154   0.83333   0.00000  Uiso   1.00
O1164  O     0.89441   0.79513   0.83334   0.00000  Uiso   1.00
O1165  O     0.89441   0.87154   0.83334   0.00000  Uiso   1.00
O1166  O     0.77226   0.79513   0.83333   0.00000  Uiso   1.00
O1167  O     0.83334   0.87155   0.76178   0.00000  Uiso   1.00
O1168  O     0.83333   0.79512   0.90489   0.00000  Uiso   1.00
O1169  O     0.83333   0.87155   0.90489   0.00000  Uiso   1.00
O1170  O     0.83334   0.79512   0.76178   0.00000  Uiso   1.00
Zn1171 Zn    0.83333   0.88437   0.83333   0.00000  Uiso   1.00
Zn1172 Zn    0.83333   0.78229   0.83333   0.00000  Uiso   1.00
N1173  N     0.71185   0.80268   0.91884   0.00000  Uiso   1.00
H1174  H     0.70325   0.76933   0.92648   0.00000  Uiso   1.00
H1175  H     0.70337   0.82266   0.94946   0.00000  Uiso   1.00
N1176  N     0.95637   0.86377   0.74664   0.00000  Uiso   1.00
H1177  H     0.93808   0.89182   0.75586   0.00000  Uiso   1.00
H1178  H     0.93658   0.83778   0.73454   0.00000  Uiso   1.00
N1179  N     0.95667   0.80307   0.92010   0.00000  Uiso   1.00
H1180  H     0.93695   0.82908   0.93215   0.00000  Uiso   1.00
H1181  H     0.93832   0.77501   0.91094   0.00000  Uiso   1.00
N1182  N     0.71155   0.86415   0.74790   0.00000  Uiso   1.00
H1183  H     0.70288   0.84431   0.71719   0.00000  Uiso   1.00
H1184  H     0.70304   0.89755   0.74043   0.00000  Uiso   1.00
H1185  H     0.88197   0.70876   0.88722   0.00000  Uiso   1.00
H1186  H     0.78468   0.95789   0.77947   0.00000  Uiso   1.00
H1187  H     0.78469   0.70859   0.77946   0.00000  Uiso   1.00
H1188  H     0.88198   0.95807   0.88720   0.00000  Uiso   1.00
loop_
_geom_bond_atom_site_label_1
_geom_bond_atom_site_label_2
_geom_bond_distance
_geom_bond_site_symmetry_2
_ccdc_geom_bond_type
C1     O22     1.280   .     A
C1     C12     1.406   .     S
C1     O19     1.280   .     A
C2     O21     1.280   .     A
C2     C11     1.407   .     S
C2     O20     1.280   .     A
C3     O23     1.278   .     A
C3     O26     1.278   .     A
C3     C5      1.366   .     S
C4     O25     1.278   .     A
C4     O24     1.278   .     A
C4     C6      1.366   .     S
C5     C798    1.165   1_554 S
C6     C401    1.165   .     S
C7     N29     1.436   .     S
C7     C12     1.398   .     A
C7     C97     1.383   1_455 S
C8     C11     1.405   .     A
C8     N32     1.437   .     S
C8     C54     1.383   .     S
C9     C11     1.405   .     A
C9     N35     1.437   .     S
C9     C51     1.383   .     S
C10    N38     1.437   .     S
C10    C12     1.398   .     A
C10    C96     1.383   1_455 S
C13    H41     1.082   .     S
C13    N18     1.367   .     A
C13    C280    1.419   1_545 S
C14    H42     1.082   .     S
C14    N17     1.367   .     A
C14    C147    1.419   .     S
C15    N18     1.367   .     A
C15    H43     1.082   .     S
C15    C278    1.419   1_545 S
C16    H44     1.082   .     S
C16    N17     1.367   .     A
C16    C145    1.419   .     S
N17    Zn27    2.015   .     S
N18    Zn28    2.015   .     S
O19    Zn27    1.984   .     S
O20    Zn28    1.984   .     S
O21    Zn27    1.984   .     S
O22    Zn28    1.984   .     S
O23    Zn27    1.949   .     S
O24    Zn28    1.949   .     S
O25    Zn27    1.950   .     S
O26    Zn28    1.950   .     S
N29    H30     1.046   .     S
N29    H31     1.046   .     S
N32    H33     1.045   .     S
N32    H34     1.046   .     S
N35    H36     1.046   .     S
N35    H37     1.045   .     S
N38    H40     1.046   .     S
N38    H39     1.046   .     S
C45    O66     1.280   .     A
C45    C56     1.406   .     S
C45    O63     1.280   .     A
C46    O65     1.280   .     A
C46    C55     1.407   .     S
C46    O64     1.280   .     A
C47    O67     1.278   .     A
C47    O70     1.278   .     A
C47    C49     1.366   .     S
C48    O69     1.278   .     A
C48    O68     1.278   .     A
C48    C50     1.366   .     S
C49    C842    1.165   1_554 S
C50    C445    1.165   .     S
C51    N73     1.436   .     S
C51    C56     1.398   .     A
C52    C55     1.405   .     A
C52    N76     1.437   .     S
C52    C98     1.383   .     S
C53    C55     1.405   .     A
C53    N79     1.437   .     S
C53    C95     1.383   .     S
C54    N82     1.437   .     S
C54    C56     1.398   .     A
C57    H85     1.082   .     S
C57    N62     1.367   .     A
C57    C324    1.419   1_545 S
C58    H86     1.082   .     S
C58    N61     1.367   .     A
C58    C191    1.419   .     S
C59    N62     1.367   .     A
C59    H87     1.082   .     S
C59    C322    1.419   1_545 S
C60    H88     1.082   .     S
C60    N61     1.367   .     A
C60    C189    1.419   .     S
N61    Zn71    2.015   .     S
N62    Zn72    2.015   .     S
O63    Zn71    1.984   .     S
O64    Zn72    1.984   .     S
O65    Zn71    1.984   .     S
O66    Zn72    1.984   .     S
O67    Zn71    1.949   .     S
O68    Zn72    1.949   .     S
O69    Zn71    1.950   .     S
O70    Zn72    1.950   .     S
N73    H74     1.046   .     S
N73    H75     1.046   .     S
N76    H77     1.045   .     S
N76    H78     1.046   .     S
N79    H80     1.046   .     S
N79    H81     1.045   .     S
N82    H84     1.046   .     S
N82    H83     1.046   .     S
C89    O110    1.280   .     A
C89    C100    1.406   .     S
C89    O107    1.280   .     A
C90    O109    1.280   .     A
C90    C99     1.407   .     S
C90    O108    1.280   .     A
C91    O111    1.278   .     A
C91    O114    1.278   .     A
C91    C93     1.366   .     S
C92    O113    1.278   .     A
C92    O112    1.278   .     A
C92    C94     1.366   .     S
C93    C886    1.165   1_554 S
C94    C489    1.165   .     S
C95    N117    1.436   .     S
C95    C100    1.398   .     A
C96    C99     1.405   .     A
C96    N120    1.437   .     S
C96    C10     1.383   1_655 S
C97    C99     1.405   .     A
C97    N123    1.437   .     S
C97    C7      1.383   1_655 S
C98    N126    1.437   .     S
C98    C100    1.398   .     A
C101   H129    1.082   .     S
C101   N106    1.367   .     A
C101   C368    1.419   1_545 S
C102   H130    1.082   .     S
C102   N105    1.367   .     A
C102   C235    1.419   .     S
C103   N106    1.367   .     A
C103   H131    1.082   .     S
C103   C366    1.419   1_545 S
C104   H132    1.082   .     S
C104   N105    1.367   .     A
C104   C233    1.419   .     S
N105   Zn115   2.015   .     S
N106   Zn116   2.015   .     S
O107   Zn115   1.984   .     S
O108   Zn116   1.984   .     S
O109   Zn115   1.984   .     S
O110   Zn116   1.984   .     S
O111   Zn115   1.949   .     S
O112   Zn116   1.949   .     S
O113   Zn115   1.950   .     S
O114   Zn116   1.950   .     S
N117   H118    1.046   .     S
N117   H119    1.046   .     S
N120   H121    1.045   .     S
N120   H122    1.046   .     S
N123   H124    1.046   .     S
N123   H125    1.045   .     S
N126   H128    1.046   .     S
N126   H127    1.046   .     S
C133   O154    1.280   .     A
C133   C144    1.406   .     S
C133   O151    1.280   .     A
C134   O153    1.280   .     A
C134   C143    1.407   .     S
C134   O152    1.280   .     A
C135   O155    1.278   .     A
C135   O158    1.278   .     A
C135   C137    1.366   .     S
C136   O157    1.278   .     A
C136   O156    1.278   .     A
C136   C138    1.366   .     S
C137   C930    1.165   1_554 S
C138   C533    1.165   .     S
C139   N161    1.436   .     S
C139   C144    1.398   .     A
C139   C229    1.383   1_455 S
C140   C143    1.405   .     A
C140   N164    1.437   .     S
C140   C186    1.383   .     S
C141   C143    1.405   .     A
C141   N167    1.437   .     S
C141   C183    1.383   .     S
C142   N170    1.437   .     S
C142   C144    1.398   .     A
C142   C228    1.383   1_455 S
C145   H173    1.082   .     S
C145   N150    1.367   .     A
C146   H174    1.082   .     S
C146   N149    1.367   .     A
C146   C279    1.419   .     S
C147   N150    1.367   .     A
C147   H175    1.082   .     S
C148   H176    1.082   .     S
C148   N149    1.367   .     A
C148   C277    1.419   .     S
N149   Zn159   2.015   .     S
N150   Zn160   2.015   .     S
O151   Zn159   1.984   .     S
O152   Zn160   1.984   .     S
O153   Zn159   1.984   .     S
O154   Zn160   1.984   .     S
O155   Zn159   1.949   .     S
O156   Zn160   1.949   .     S
O157   Zn159   1.950   .     S
O158   Zn160   1.950   .     S
N161   H162    1.046   .     S
N161   H163    1.046   .     S
N164   H165    1.045   .     S
N164   H166    1.046   .     S
N167   H168    1.046   .     S
N167   H169    1.045   .     S
N170   H172    1.046   .     S
N170   H171    1.046   .     S
C177   O198    1.280   .     A
C177   C188    1.406   .     S
C177   O195    1.280   .     A
C178   O197    1.280   .     A
C178   C187    1.407   .     S
C178   O196    1.280   .     A
C179   O199    1.278   .     A
C179   O202    1.278   .     A
C179   C181    1.366   .     S
C180   O201    1.278   .     A
C180   O200    1.278   .     A
C180   C182    1.366   .     S
C181   C974    1.165   1_554 S
C182   C577    1.165   .     S
C183   N205    1.436   .     S
C183   C188    1.398   .     A
C184   C187    1.405   .     A
C184   N208    1.437   .     S
C184   C230    1.383   .     S
C185   C187    1.405   .     A
C185   N211    1.437   .     S
C185   C227    1.383   .     S
C186   N214    1.437   .     S
C186   C188    1.398   .     A
C189   H217    1.082   .     S
C189   N194    1.367   .     A
C190   H218    1.082   .     S
C190   N193    1.367   .     A
C190   C323    1.419   .     S
C191   N194    1.367   .     A
C191   H219    1.082   .     S
C192   H220    1.082   .     S
C192   N193    1.367   .     A
C192   C321    1.419   .     S
N193   Zn203   2.015   .     S
N194   Zn204   2.015   .     S
O195   Zn203   1.984   .     S
O196   Zn204   1.984   .     S
O197   Zn203   1.984   .     S
O198   Zn204   1.984   .     S
O199   Zn203   1.949   .     S
O200   Zn204   1.949   .     S
O201   Zn203   1.950   .     S
O202   Zn204   1.950   .     S
N205   H206    1.046   .     S
N205   H207    1.046   .     S
N208   H209    1.045   .     S
N208   H210    1.046   .     S
N211   H212    1.046   .     S
N211   H213    1.045   .     S
N214   H216    1.046   .     S
N214   H215    1.046   .     S
C221   O242    1.280   .     A
C221   C232    1.406   .     S
C221   O239    1.280   .     A
C222   O241    1.280   .     A
C222   C231    1.407   .     S
C222   O240    1.280   .     A
C223   O243    1.278   .     A
C223   O246    1.278   .     A
C223   C225    1.366   .     S
C224   O245    1.278   .     A
C224   O244    1.278   .     A
C224   C226    1.366   .     S
C225   C1018   1.165   1_554 S
C226   C621    1.165   .     S
C227   N249    1.436   .     S
C227   C232    1.398   .     A
C228   C231    1.405   .     A
C228   N252    1.437   .     S
C228   C142    1.383   1_655 S
C229   C231    1.405   .     A
C229   N255    1.437   .     S
C229   C139    1.383   1_655 S
C230   N258    1.437   .     S
C230   C232    1.398   .     A
C233   H261    1.082   .     S
C233   N238    1.367   .     A
C234   H262    1.082   .     S
C234   N237    1.367   .     A
C234   C367    1.419   .     S
C235   N238    1.367   .     A
C235   H263    1.082   .     S
C236   H264    1.082   .     S
C236   N237    1.367   .     A
C236   C365    1.419   .     S
N237   Zn247   2.015   .     S
N238   Zn248   2.015   .     S
O239   Zn247   1.984   .     S
O240   Zn248   1.984   .     S
O241   Zn247   1.984   .     S
O242   Zn248   1.984   .     S
O243   Zn247   1.949   .     S
O244   Zn248   1.949   .     S
O245   Zn247   1.950   .     S
O246   Zn248   1.950   .     S
N249   H250    1.046   .     S
N249   H251    1.046   .     S
N252   H253    1.045   .     S
N252   H254    1.046   .     S
N255   H256    1.046   .     S
N255   H257    1.045   .     S
N258   H260    1.046   .     S
N258   H259    1.046   .     S
C265   O286    1.280   .     A
C265   C276    1.406   .     S
C265   O283    1.280   .     A
C266   O285    1.280   .     A
C266   C275    1.407   .     S
C266   O284    1.280   .     A
C267   O287    1.278   .     A
C267   O290    1.278   .     A
C267   C269    1.366   .     S
C268   O289    1.278   .     A
C268   O288    1.278   .     A
C268   C270    1.366   .     S
C269   C1062   1.165   1_554 S
C270   C665    1.165   .     S
C271   N293    1.436   .     S
C271   C276    1.398   .     A
C271   C361    1.383   1_455 S
C272   C275    1.405   .     A
C272   N296    1.437   .     S
C272   C318    1.383   .     S
C273   C275    1.405   .     A
C273   N299    1.437   .     S
C273   C315    1.383   .     S
C274   N302    1.437   .     S
C274   C276    1.398   .     A
C274   C360    1.383   1_455 S
C277   H305    1.082   .     S
C277   N282    1.367   .     A
C278   H306    1.082   .     S
C278   N281    1.367   .     A
C278   C15     1.419   1_565 S
C279   N282    1.367   .     A
C279   H307    1.082   .     S
C280   H308    1.082   .     S
C280   N281    1.367   .     A
C280   C13     1.419   1_565 S
N281   Zn291   2.015   .     S
N282   Zn292   2.015   .     S
O283   Zn291   1.984   .     S
O284   Zn292   1.984   .     S
O285   Zn291   1.984   .     S
O286   Zn292   1.984   .     S
O287   Zn291   1.949   .     S
O288   Zn292   1.949   .     S
O289   Zn291   1.950   .     S
O290   Zn292   1.950   .     S
N293   H294    1.046   .     S
N293   H295    1.046   .     S
N296   H297    1.045   .     S
N296   H298    1.046   .     S
N299   H300    1.046   .     S
N299   H301    1.045   .     S
N302   H304    1.046   .     S
N302   H303    1.046   .     S
C309   O330    1.280   .     A
C309   C320    1.406   .     S
C309   O327    1.280   .     A
C310   O329    1.280   .     A
C310   C319    1.407   .     S
C310   O328    1.280   .     A
C311   O331    1.278   .     A
C311   O334    1.278   .     A
C311   C313    1.366   .     S
C312   O333    1.278   .     A
C312   O332    1.278   .     A
C312   C314    1.366   .     S
C313   C1106   1.165   1_554 S
C314   C709    1.165   .     S
C315   N337    1.436   .     S
C315   C320    1.398   .     A
C316   C319    1.405   .     A
C316   N340    1.437   .     S
C316   C362    1.383   .     S
C317   C319    1.405   .     A
C317   N343    1.437   .     S
C317   C359    1.383   .     S
C318   N346    1.437   .     S
C318   C320    1.398   .     A
C321   H349    1.082   .     S
C321   N326    1.367   .     A
C322   H350    1.082   .     S
C322   N325    1.367   .     A
C322   C59     1.419   1_565 S
C323   N326    1.367   .     A
C323   H351    1.082   .     S
C324   H352    1.082   .     S
C324   N325    1.367   .     A
C324   C57     1.419   1_565 S
N325   Zn335   2.015   .     S
N326   Zn336   2.015   .     S
O327   Zn335   1.984   .     S
O328   Zn336   1.984   .     S
O329   Zn335   1.984   .     S
O330   Zn336   1.984   .     S
O331   Zn335   1.949   .     S
O332   Zn336   1.949   .     S
O333   Zn335   1.950   .     S
O334   Zn336   1.950   .     S
N337   H338    1.046   .     S
N337   H339    1.046   .     S
N340   H341    1.045   .     S
N340   H342    1.046   .     S
N343   H344    1.046   .     S
N343   H345    1.045   .     S
N346   H348    1.046   .     S
N346   H347    1.046   .     S
C353   O374    1.280   .     A
C353   C364    1.406   .     S
C353   O371    1.280   .     A
C354   O373    1.280   .     A
C354   C363    1.407   .     S
C354   O372    1.280   .     A
C355   O375    1.278   .     A
C355   O378    1.278   .     A
C355   C357    1.366   .     S
C356   O377    1.278   .     A
C356   O376    1.278   .     A
C356   C358    1.366   .     S
C357   C1150   1.165   1_554 S
C358   C753    1.165   .     S
C359   N381    1.436   .     S
C359   C364    1.398   .     A
C360   C363    1.405   .     A
C360   N384    1.437   .     S
C360   C274    1.383   1_655 S
C361   C363    1.405   .     A
C361   N387    1.437   .     S
C361   C271    1.383   1_655 S
C362   N390    1.437   .     S
C362   C364    1.398   .     A
C365   H393    1.082   .     S
C365   N370    1.367   .     A
C366   H394    1.082   .     S
C366   N369    1.367   .     A
C366   C103    1.419   1_565 S
C367   N370    1.367   .     A
C367   H395    1.082   .     S
C368   H396    1.082   .     S
C368   N369    1.367   .     A
C368   C101    1.419   1_565 S
N369   Zn379   2.015   .     S
N370   Zn380   2.015   .     S
O371   Zn379   1.984   .     S
O372   Zn380   1.984   .     S
O373   Zn379   1.984   .     S
O374   Zn380   1.984   .     S
O375   Zn379   1.949   .     S
O376   Zn380   1.949   .     S
O377   Zn379   1.950   .     S
O378   Zn380   1.950   .     S
N381   H382    1.046   .     S
N381   H383    1.046   .     S
N384   H385    1.045   .     S
N384   H386    1.046   .     S
N387   H388    1.046   .     S
N387   H389    1.045   .     S
N390   H392    1.046   .     S
N390   H391    1.046   .     S
C397   O418    1.280   .     A
C397   C408    1.406   .     S
C397   O415    1.280   .     A
C398   O417    1.280   .     A
C398   C407    1.407   .     S
C398   O416    1.280   .     A
C399   O419    1.278   .     A
C399   O422    1.278   .     A
C399   C401    1.366   .     S
C400   O421    1.278   .     A
C400   O420    1.278   .     A
C400   C402    1.366   .     S
C402   C797    1.165   .     S
C403   N425    1.436   .     S
C403   C408    1.398   .     A
C403   C493    1.383   1_455 S
C404   C407    1.405   .     A
C404   N428    1.437   .     S
C404   C450    1.383   .     S
C405   C407    1.405   .     A
C405   N431    1.437   .     S
C405   C447    1.383   .     S
C406   N434    1.437   .     S
C406   C408    1.398   .     A
C406   C492    1.383   1_455 S
C409   H437    1.082   .     S
C409   N414    1.367   .     A
C409   C676    1.419   1_545 S
C410   H438    1.082   .     S
C410   N413    1.367   .     A
C410   C543    1.419   .     S
C411   N414    1.367   .     A
C411   H439    1.082   .     S
C411   C674    1.419   1_545 S
C412   H440    1.082   .     S
C412   N413    1.367   .     A
C412   C541    1.419   .     S
N413   Zn423   2.015   .     S
N414   Zn424   2.015   .     S
O415   Zn423   1.984   .     S
O416   Zn424   1.984   .     S
O417   Zn423   1.984   .     S
O418   Zn424   1.984   .     S
O419   Zn423   1.949   .     S
O420   Zn424   1.949   .     S
O421   Zn423   1.950   .     S
O422   Zn424   1.950   .     S
N425   H426    1.046   .     S
N425   H427    1.046   .     S
N428   H429    1.045   .     S
N428   H430    1.046   .     S
N431   H432    1.046   .     S
N431   H433    1.045   .     S
N434   H436    1.046   .     S
N434   H435    1.046   .     S
C441   O462    1.280   .     A
C441   C452    1.406   .     S
C441   O459    1.280   .     A
C442   O461    1.280   .     A
C442   C451    1.407   .     S
C442   O460    1.280   .     A
C443   O463    1.278   .     A
C443   O466    1.278   .     A
C443   C445    1.366   .     S
C444   O465    1.278   .     A
C444   O464    1.278   .     A
C444   C446    1.366   .     S
C446   C841    1.165   .     S
C447   N469    1.436   .     S
C447   C452    1.398   .     A
C448   C451    1.405   .     A
C448   N472    1.437   .     S
C448   C494    1.383   .     S
C449   C451    1.405   .     A
C449   N475    1.437   .     S
C449   C491    1.383   .     S
C450   N478    1.437   .     S
C450   C452    1.398   .     A
C453   H481    1.082   .     S
C453   N458    1.367   .     A
C453   C720    1.419   1_545 S
C454   H482    1.082   .     S
C454   N457    1.367   .     A
C454   C587    1.419   .     S
C455   N458    1.367   .     A
C455   H483    1.082   .     S
C455   C718    1.419   1_545 S
C456   H484    1.082   .     S
C456   N457    1.367   .     A
C456   C585    1.419   .     S
N457   Zn467   2.015   .     S
N458   Zn468   2.015   .     S
O459   Zn467   1.984   .     S
O460   Zn468   1.984   .     S
O461   Zn467   1.984   .     S
O462   Zn468   1.984   .     S
O463   Zn467   1.949   .     S
O464   Zn468   1.949   .     S
O465   Zn467   1.950   .     S
O466   Zn468   1.950   .     S
N469   H470    1.046   .     S
N469   H471    1.046   .     S
N472   H473    1.045   .     S
N472   H474    1.046   .     S
N475   H476    1.046   .     S
N475   H477    1.045   .     S
N478   H480    1.046   .     S
N478   H479    1.046   .     S
C485   O506    1.280   .     A
C485   C496    1.406   .     S
C485   O503    1.280   .     A
C486   O505    1.280   .     A
C486   C495    1.407   .     S
C486   O504    1.280   .     A
C487   O507    1.278   .     A
C487   O510    1.278   .     A
C487   C489    1.366   .     S
C488   O509    1.278   .     A
C488   O508    1.278   .     A
C488   C490    1.366   .     S
C490   C885    1.165   .     S
C491   N513    1.436   .     S
C491   C496    1.398   .     A
C492   C495    1.405   .     A
C492   N516    1.437   .     S
C492   C406    1.383   1_655 S
C493   C495    1.405   .     A
C493   N519    1.437   .     S
C493   C403    1.383   1_655 S
C494   N522    1.437   .     S
C494   C496    1.398   .     A
C497   H525    1.082   .     S
C497   N502    1.367   .     A
C497   C764    1.419   1_545 S
C498   H526    1.082   .     S
C498   N501    1.367   .     A
C498   C631    1.419   .     S
C499   N502    1.367   .     A
C499   H527    1.082   .     S
C499   C762    1.419   1_545 S
C500   H528    1.082   .     S
C500   N501    1.367   .     A
C500   C629    1.419   .     S
N501   Zn511   2.015   .     S
N502   Zn512   2.015   .     S
O503   Zn511   1.984   .     S
O504   Zn512   1.984   .     S
O505   Zn511   1.984   .     S
O506   Zn512   1.984   .     S
O507   Zn511   1.949   .     S
O508   Zn512   1.949   .     S
O509   Zn511   1.950   .     S
O510   Zn512   1.950   .     S
N513   H514    1.046   .     S
N513   H515    1.046   .     S
N516   H517    1.045   .     S
N516   H518    1.046   .     S
N519   H520    1.046   .     S
N519   H521    1.045   .     S
N522   H524    1.046   .     S
N522   H523    1.046   .     S
C529   O550    1.280   .     A
C529   C540    1.406   .     S
C529   O547    1.280   .     A
C530   O549    1.280   .     A
C530   C539    1.407   .     S
C530   O548    1.280   .     A
C531   O551    1.278   .     A
C531   O554    1.278   .     A
C531   C533    1.366   .     S
C532   O553    1.278   .     A
C532   O552    1.278   .     A
C532   C534    1.366   .     S
C534   C929    1.165   .     S
C535   N557    1.436   .     S
C535   C540    1.398   .     A
C535   C625    1.383   1_455 S
C536   C539    1.405   .     A
C536   N560    1.437   .     S
C536   C582    1.383   .     S
C537   C539    1.405   .     A
C537   N563    1.437   .     S
C537   C579    1.383   .     S
C538   N566    1.437   .     S
C538   C540    1.398   .     A
C538   C624    1.383   1_455 S
C541   H569    1.082   .     S
C541   N546    1.367   .     A
C542   H570    1.082   .     S
C542   N545    1.367   .     A
C542   C675    1.419   .     S
C543   N546    1.367   .     A
C543   H571    1.082   .     S
C544   H572    1.082   .     S
C544   N545    1.367   .     A
C544   C673    1.419   .     S
N545   Zn555   2.015   .     S
N546   Zn556   2.015   .     S
O547   Zn555   1.984   .     S
O548   Zn556   1.984   .     S
O549   Zn555   1.984   .     S
O550   Zn556   1.984   .     S
O551   Zn555   1.949   .     S
O552   Zn556   1.949   .     S
O553   Zn555   1.950   .     S
O554   Zn556   1.950   .     S
N557   H558    1.046   .     S
N557   H559    1.046   .     S
N560   H561    1.045   .     S
N560   H562    1.046   .     S
N563   H564    1.046   .     S
N563   H565    1.045   .     S
N566   H568    1.046   .     S
N566   H567    1.046   .     S
C573   O594    1.280   .     A
C573   C584    1.406   .     S
C573   O591    1.280   .     A
C574   O593    1.280   .     A
C574   C583    1.407   .     S
C574   O592    1.280   .     A
C575   O595    1.278   .     A
C575   O598    1.278   .     A
C575   C577    1.366   .     S
C576   O597    1.278   .     A
C576   O596    1.278   .     A
C576   C578    1.366   .     S
C578   C973    1.165   .     S
C579   N601    1.436   .     S
C579   C584    1.398   .     A
C580   C583    1.405   .     A
C580   N604    1.437   .     S
C580   C626    1.383   .     S
C581   C583    1.405   .     A
C581   N607    1.437   .     S
C581   C623    1.383   .     S
C582   N610    1.437   .     S
C582   C584    1.398   .     A
C585   H613    1.082   .     S
C585   N590    1.367   .     A
C586   H614    1.082   .     S
C586   N589    1.367   .     A
C586   C719    1.419   .     S
C587   N590    1.367   .     A
C587   H615    1.082   .     S
C588   H616    1.082   .     S
C588   N589    1.367   .     A
C588   C717    1.419   .     S
N589   Zn599   2.015   .     S
N590   Zn600   2.015   .     S
O591   Zn599   1.984   .     S
O592   Zn600   1.984   .     S
O593   Zn599   1.984   .     S
O594   Zn600   1.984   .     S
O595   Zn599   1.949   .     S
O596   Zn600   1.949   .     S
O597   Zn599   1.950   .     S
O598   Zn600   1.950   .     S
N601   H602    1.046   .     S
N601   H603    1.046   .     S
N604   H605    1.045   .     S
N604   H606    1.046   .     S
N607   H608    1.046   .     S
N607   H609    1.045   .     S
N610   H612    1.046   .     S
N610   H611    1.046   .     S
C617   O638    1.280   .     A
C617   C628    1.406   .     S
C617   O635    1.280   .     A
C618   O637    1.280   .     A
C618   C627    1.407   .     S
C618   O636    1.280   .     A
C619   O639    1.278   .     A
C619   O642    1.278   .     A
C619   C621    1.366   .     S
C620   O641    1.278   .     A
C620   O640    1.278   .     A
C620   C622    1.366   .     S
C622   C1017   1.165   .     S
C623   N645    1.436   .     S
C623   C628    1.398   .     A
C624   C627    1.405   .     A
C624   N648    1.437   .     S
C624   C538    1.383   1_655 S
C625   C627    1.405   .     A
C625   N651    1.437   .     S
C625   C535    1.383   1_655 S
C626   N654    1.437   .     S
C626   C628    1.398   .     A
C629   H657    1.082   .     S
C629   N634    1.367   .     A
C630   H658    1.082   .     S
C630   N633    1.367   .     A
C630   C763    1.419   .     S
C631   N634    1.367   .     A
C631   H659    1.082   .     S
C632   H660    1.082   .     S
C632   N633    1.367   .     A
C632   C761    1.419   .     S
N633   Zn643   2.015   .     S
N634   Zn644   2.015   .     S
O635   Zn643   1.984   .     S
O636   Zn644   1.984   .     S
O637   Zn643   1.984   .     S
O638   Zn644   1.984   .     S
O639   Zn643   1.949   .     S
O640   Zn644   1.949   .     S
O641   Zn643   1.950   .     S
O642   Zn644   1.950   .     S
N645   H646    1.046   .     S
N645   H647    1.046   .     S
N648   H649    1.045   .     S
N648   H650    1.046   .     S
N651   H652    1.046   .     S
N651   H653    1.045   .     S
N654   H656    1.046   .     S
N654   H655    1.046   .     S
C661   O682    1.280   .     A
C661   C672    1.406   .     S
C661   O679    1.280   .     A
C662   O681    1.280   .     A
C662   C671    1.407   .     S
C662   O680    1.280   .     A
C663   O683    1.278   .     A
C663   O686    1.278   .     A
C663   C665    1.366   .     S
C664   O685    1.278   .     A
C664   O684    1.278   .     A
C664   C666    1.366   .     S
C666   C1061   1.165   .     S
C667   N689    1.436   .     S
C667   C672    1.398   .     A
C667   C757    1.383   1_455 S
C668   C671    1.405   .     A
C668   N692    1.437   .     S
C668   C714    1.383   .     S
C669   C671    1.405   .     A
C669   N695    1.437   .     S
C669   C711    1.383   .     S
C670   N698    1.437   .     S
C670   C672    1.398   .     A
C670   C756    1.383   1_455 S
C673   H701    1.082   .     S
C673   N678    1.367   .     A
C674   H702    1.082   .     S
C674   N677    1.367   .     A
C674   C411    1.419   1_565 S
C675   N678    1.367   .     A
C675   H703    1.082   .     S
C676   H704    1.082   .     S
C676   N677    1.367   .     A
C676   C409    1.419   1_565 S
N677   Zn687   2.015   .     S
N678   Zn688   2.015   .     S
O679   Zn687   1.984   .     S
O680   Zn688   1.984   .     S
O681   Zn687   1.984   .     S
O682   Zn688   1.984   .     S
O683   Zn687   1.949   .     S
O684   Zn688   1.949   .     S
O685   Zn687   1.950   .     S
O686   Zn688   1.950   .     S
N689   H690    1.046   .     S
N689   H691    1.046   .     S
N692   H693    1.045   .     S
N692   H694    1.046   .     S
N695   H696    1.046   .     S
N695   H697    1.045   .     S
N698   H700    1.046   .     S
N698   H699    1.046   .     S
C705   O726    1.280   .     A
C705   C716    1.406   .     S
C705   O723    1.280   .     A
C706   O725    1.280   .     A
C706   C715    1.407   .     S
C706   O724    1.280   .     A
C707   O727    1.278   .     A
C707   O730    1.278   .     A
C707   C709    1.366   .     S
C708   O729    1.278   .     A
C708   O728    1.278   .     A
C708   C710    1.366   .     S
C710   C1105   1.165   .     S
C711   N733    1.436   .     S
C711   C716    1.398   .     A
C712   C715    1.405   .     A
C712   N736    1.437   .     S
C712   C758    1.383   .     S
C713   C715    1.405   .     A
C713   N739    1.437   .     S
C713   C755    1.383   .     S
C714   N742    1.437   .     S
C714   C716    1.398   .     A
C717   H745    1.082   .     S
C717   N722    1.367   .     A
C718   H746    1.082   .     S
C718   N721    1.367   .     A
C718   C455    1.419   1_565 S
C719   N722    1.367   .     A
C719   H747    1.082   .     S
C720   H748    1.082   .     S
C720   N721    1.367   .     A
C720   C453    1.419   1_565 S
N721   Zn731   2.015   .     S
N722   Zn732   2.015   .     S
O723   Zn731   1.984   .     S
O724   Zn732   1.984   .     S
O725   Zn731   1.984   .     S
O726   Zn732   1.984   .     S
O727   Zn731   1.949   .     S
O728   Zn732   1.949   .     S
O729   Zn731   1.950   .     S
O730   Zn732   1.950   .     S
N733   H734    1.046   .     S
N733   H735    1.046   .     S
N736   H737    1.045   .     S
N736   H738    1.046   .     S
N739   H740    1.046   .     S
N739   H741    1.045   .     S
N742   H744    1.046   .     S
N742   H743    1.046   .     S
C749   O770    1.280   .     A
C749   C760    1.406   .     S
C749   O767    1.280   .     A
C750   O769    1.280   .     A
C750   C759    1.407   .     S
C750   O768    1.280   .     A
C751   O771    1.278   .     A
C751   O774    1.278   .     A
C751   C753    1.366   .     S
C752   O773    1.278   .     A
C752   O772    1.278   .     A
C752   C754    1.366   .     S
C754   C1149   1.165   .     S
C755   N777    1.436   .     S
C755   C760    1.398   .     A
C756   C759    1.405   .     A
C756   N780    1.437   .     S
C756   C670    1.383   1_655 S
C757   C759    1.405   .     A
C757   N783    1.437   .     S
C757   C667    1.383   1_655 S
C758   N786    1.437   .     S
C758   C760    1.398   .     A
C761   H789    1.082   .     S
C761   N766    1.367   .     A
C762   H790    1.082   .     S
C762   N765    1.367   .     A
C762   C499    1.419   1_565 S
C763   N766    1.367   .     A
C763   H791    1.082   .     S
C764   H792    1.082   .     S
C764   N765    1.367   .     A
C764   C497    1.419   1_565 S
N765   Zn775   2.015   .     S
N766   Zn776   2.015   .     S
O767   Zn775   1.984   .     S
O768   Zn776   1.984   .     S
O769   Zn775   1.984   .     S
O770   Zn776   1.984   .     S
O771   Zn775   1.949   .     S
O772   Zn776   1.949   .     S
O773   Zn775   1.950   .     S
O774   Zn776   1.950   .     S
N777   H778    1.046   .     S
N777   H779    1.046   .     S
N780   H781    1.045   .     S
N780   H782    1.046   .     S
N783   H784    1.046   .     S
N783   H785    1.045   .     S
N786   H788    1.046   .     S
N786   H787    1.046   .     S
C793   O814    1.280   .     A
C793   C804    1.406   .     S
C793   O811    1.280   .     A
C794   O813    1.280   .     A
C794   C803    1.407   .     S
C794   O812    1.280   .     A
C795   O815    1.278   .     A
C795   O818    1.278   .     A
C795   C797    1.366   .     S
C796   O817    1.278   .     A
C796   O816    1.278   .     A
C796   C798    1.366   .     S
C798   C5      1.165   1_556 S
C799   N821    1.436   .     S
C799   C804    1.398   .     A
C799   C889    1.383   1_455 S
C800   C803    1.405   .     A
C800   N824    1.437   .     S
C800   C846    1.383   .     S
C801   C803    1.405   .     A
C801   N827    1.437   .     S
C801   C843    1.383   .     S
C802   N830    1.437   .     S
C802   C804    1.398   .     A
C802   C888    1.383   1_455 S
C805   H833    1.082   .     S
C805   N810    1.367   .     A
C805   C1072   1.419   1_545 S
C806   H834    1.082   .     S
C806   N809    1.367   .     A
C806   C939    1.419   .     S
C807   N810    1.367   .     A
C807   H835    1.082   .     S
C807   C1070   1.419   1_545 S
C808   H836    1.082   .     S
C808   N809    1.367   .     A
C808   C937    1.419   .     S
N809   Zn819   2.015   .     S
N810   Zn820   2.015   .     S
O811   Zn819   1.984   .     S
O812   Zn820   1.984   .     S
O813   Zn819   1.984   .     S
O814   Zn820   1.984   .     S
O815   Zn819   1.949   .     S
O816   Zn820   1.949   .     S
O817   Zn819   1.950   .     S
O818   Zn820   1.950   .     S
N821   H822    1.046   .     S
N821   H823    1.046   .     S
N824   H825    1.045   .     S
N824   H826    1.046   .     S
N827   H828    1.046   .     S
N827   H829    1.045   .     S
N830   H832    1.046   .     S
N830   H831    1.046   .     S
C837   O858    1.280   .     A
C837   C848    1.406   .     S
C837   O855    1.280   .     A
C838   O857    1.280   .     A
C838   C847    1.407   .     S
C838   O856    1.280   .     A
C839   O859    1.278   .     A
C839   O862    1.278   .     A
C839   C841    1.366   .     S
C840   O861    1.278   .     A
C840   O860    1.278   .     A
C840   C842    1.366   .     S
C842   C49     1.165   1_556 S
C843   N865    1.436   .     S
C843   C848    1.398   .     A
C844   C847    1.405   .     A
C844   N868    1.437   .     S
C844   C890    1.383   .     S
C845   C847    1.405   .     A
C845   N871    1.437   .     S
C845   C887    1.383   .     S
C846   N874    1.437   .     S
C846   C848    1.398   .     A
C849   H877    1.082   .     S
C849   N854    1.367   .     A
C849   C1116   1.419   1_545 S
C850   H878    1.082   .     S
C850   N853    1.367   .     A
C850   C983    1.419   .     S
C851   N854    1.367   .     A
C851   H879    1.082   .     S
C851   C1114   1.419   1_545 S
C852   H880    1.082   .     S
C852   N853    1.367   .     A
C852   C981    1.419   .     S
N853   Zn863   2.015   .     S
N854   Zn864   2.015   .     S
O855   Zn863   1.984   .     S
O856   Zn864   1.984   .     S
O857   Zn863   1.984   .     S
O858   Zn864   1.984   .     S
O859   Zn863   1.949   .     S
O860   Zn864   1.949   .     S
O861   Zn863   1.950   .     S
O862   Zn864   1.950   .     S
N865   H866    1.046   .     S
N865   H867    1.046   .     S
N868   H869    1.045   .     S
N868   H870    1.046   .     S
N871   H872    1.046   .     S
N871   H873    1.045   .     S
N874   H876    1.046   .     S
N874   H875    1.046   .     S
C881   O902    1.280   .     A
C881   C892    1.406   .     S
C881   O899    1.280   .     A
C882   O901    1.280   .     A
C882   C891    1.407   .     S
C882   O900    1.280   .     A
C883   O903    1.278   .     A
C883   O906    1.278   .     A
C883   C885    1.366   .     S
C884   O905    1.278   .     A
C884   O904    1.278   .     A
C884   C886    1.366   .     S
C886   C93     1.165   1_556 S
C887   N909    1.436   .     S
C887   C892    1.398   .     A
C888   C891    1.405   .     A
C888   N912    1.437   .     S
C888   C802    1.383   1_655 S
C889   C891    1.405   .     A
C889   N915    1.437   .     S
C889   C799    1.383   1_655 S
C890   N918    1.437   .     S
C890   C892    1.398   .     A
C893   H921    1.082   .     S
C893   N898    1.367   .     A
C893   C1160   1.419   1_545 S
C894   H922    1.082   .     S
C894   N897    1.367   .     A
C894   C1027   1.419   .     S
C895   N898    1.367   .     A
C895   H923    1.082   .     S
C895   C1158   1.419   1_545 S
C896   H924    1.082   .     S
C896   N897    1.367   .     A
C896   C1025   1.419   .     S
N897   Zn907   2.015   .     S
N898   Zn908   2.015   .     S
O899   Zn907   1.984   .     S
O900   Zn908   1.984   .     S
O901   Zn907   1.984   .     S
O902   Zn908   1.984   .     S
O903   Zn907   1.949   .     S
O904   Zn908   1.949   .     S
O905   Zn907   1.950   .     S
O906   Zn908   1.950   .     S
N909   H910    1.046   .     S
N909   H911    1.046   .     S
N912   H913    1.045   .     S
N912   H914    1.046   .     S
N915   H916    1.046   .     S
N915   H917    1.045   .     S
N918   H920    1.046   .     S
N918   H919    1.046   .     S
C925   O946    1.280   .     A
C925   C936    1.406   .     S
C925   O943    1.280   .     A
C926   O945    1.280   .     A
C926   C935    1.407   .     S
C926   O944    1.280   .     A
C927   O947    1.278   .     A
C927   O950    1.278   .     A
C927   C929    1.366   .     S
C928   O949    1.278   .     A
C928   O948    1.278   .     A
C928   C930    1.366   .     S
C930   C137    1.165   1_556 S
C931   N953    1.436   .     S
C931   C936    1.398   .     A
C931   C1021   1.383   1_455 S
C932   C935    1.405   .     A
C932   N956    1.437   .     S
C932   C978    1.383   .     S
C933   C935    1.405   .     A
C933   N959    1.437   .     S
C933   C975    1.383   .     S
C934   N962    1.437   .     S
C934   C936    1.398   .     A
C934   C1020   1.383   1_455 S
C937   H965    1.082   .     S
C937   N942    1.367   .     A
C938   H966    1.082   .     S
C938   N941    1.367   .     A
C938   C1071   1.419   .     S
C939   N942    1.367   .     A
C939   H967    1.082   .     S
C940   H968    1.082   .     S
C940   N941    1.367   .     A
C940   C1069   1.419   .     S
N941   Zn951   2.015   .     S
N942   Zn952   2.015   .     S
O943   Zn951   1.984   .     S
O944   Zn952   1.984   .     S
O945   Zn951   1.984   .     S
O946   Zn952   1.984   .     S
O947   Zn951   1.949   .     S
O948   Zn952   1.949   .     S
O949   Zn951   1.950   .     S
O950   Zn952   1.950   .     S
N953   H954    1.046   .     S
N953   H955    1.046   .     S
N956   H957    1.045   .     S
N956   H958    1.046   .     S
N959   H960    1.046   .     S
N959   H961    1.045   .     S
N962   H964    1.046   .     S
N962   H963    1.046   .     S
C969   O990    1.280   .     A
C969   C980    1.406   .     S
C969   O987    1.280   .     A
C970   O989    1.280   .     A
C970   C979    1.407   .     S
C970   O988    1.280   .     A
C971   O991    1.278   .     A
C971   O994    1.278   .     A
C971   C973    1.366   .     S
C972   O993    1.278   .     A
C972   O992    1.278   .     A
C972   C974    1.366   .     S
C974   C181    1.165   1_556 S
C975   N997    1.436   .     S
C975   C980    1.398   .     A
C976   C979    1.405   .     A
C976   N1000   1.437   .     S
C976   C1022   1.383   .     S
C977   C979    1.405   .     A
C977   N1003   1.437   .     S
C977   C1019   1.383   .     S
C978   N1006   1.437   .     S
C978   C980    1.398   .     A
C981   H1009   1.082   .     S
C981   N986    1.367   .     A
C982   H1010   1.082   .     S
C982   N985    1.367   .     A
C982   C1115   1.419   .     S
C983   N986    1.367   .     A
C983   H1011   1.082   .     S
C984   H1012   1.082   .     S
C984   N985    1.367   .     A
C984   C1113   1.419   .     S
N985   Zn995   2.015   .     S
N986   Zn996   2.015   .     S
O987   Zn995   1.984   .     S
O988   Zn996   1.984   .     S
O989   Zn995   1.984   .     S
O990   Zn996   1.984   .     S
O991   Zn995   1.949   .     S
O992   Zn996   1.949   .     S
O993   Zn995   1.950   .     S
O994   Zn996   1.950   .     S
N997   H998    1.046   .     S
N997   H999    1.046   .     S
N1000  H1001   1.045   .     S
N1000  H1002   1.046   .     S
N1003  H1004   1.046   .     S
N1003  H1005   1.045   .     S
N1006  H1008   1.046   .     S
N1006  H1007   1.046   .     S
C1013  O1034   1.280   .     A
C1013  C1024   1.406   .     S
C1013  O1031   1.280   .     A
C1014  O1033   1.280   .     A
C1014  C1023   1.407   .     S
C1014  O1032   1.280   .     A
C1015  O1035   1.278   .     A
C1015  O1038   1.278   .     A
C1015  C1017   1.366   .     S
C1016  O1037   1.278   .     A
C1016  O1036   1.278   .     A
C1016  C1018   1.366   .     S
C1018  C225    1.165   1_556 S
C1019  N1041   1.436   .     S
C1019  C1024   1.398   .     A
C1020  C1023   1.405   .     A
C1020  N1044   1.437   .     S
C1020  C934    1.383   1_655 S
C1021  C1023   1.405   .     A
C1021  N1047   1.437   .     S
C1021  C931    1.383   1_655 S
C1022  N1050   1.437   .     S
C1022  C1024   1.398   .     A
C1025  H1053   1.082   .     S
C1025  N1030   1.367   .     A
C1026  H1054   1.082   .     S
C1026  N1029   1.367   .     A
C1026  C1159   1.419   .     S
C1027  N1030   1.367   .     A
C1027  H1055   1.082   .     S
C1028  H1056   1.082   .     S
C1028  N1029   1.367   .     A
C1028  C1157   1.419   .     S
N1029  Zn1039  2.015   .     S
N1030  Zn1040  2.015   .     S
O1031  Zn1039  1.984   .     S
O1032  Zn1040  1.984   .     S
O1033  Zn1039  1.984   .     S
O1034  Zn1040  1.984   .     S
O1035  Zn1039  1.949   .     S
O1036  Zn1040  1.949   .     S
O1037  Zn1039  1.950   .     S
O1038  Zn1040  1.950   .     S
N1041  H1042   1.046   .     S
N1041  H1043   1.046   .     S
N1044  H1045   1.045   .     S
N1044  H1046   1.046   .     S
N1047  H1048   1.046   .     S
N1047  H1049   1.045   .     S
N1050  H1052   1.046   .     S
N1050  H1051   1.046   .     S
C1057  O1078   1.280   .     A
C1057  C1068   1.406   .     S
C1057  O1075   1.280   .     A
C1058  O1077   1.280   .     A
C1058  C1067   1.407   .     S
C1058  O1076   1.280   .     A
C1059  O1079   1.278   .     A
C1059  O1082   1.278   .     A
C1059  C1061   1.366   .     S
C1060  O1081   1.278   .     A
C1060  O1080   1.278   .     A
C1060  C1062   1.366   .     S
C1062  C269    1.165   1_556 S
C1063  N1085   1.436   .     S
C1063  C1068   1.398   .     A
C1063  C1153   1.383   1_455 S
C1064  C1067   1.405   .     A
C1064  N1088   1.437   .     S
C1064  C1110   1.383   .     S
C1065  C1067   1.405   .     A
C1065  N1091   1.437   .     S
C1065  C1107   1.383   .     S
C1066  N1094   1.437   .     S
C1066  C1068   1.398   .     A
C1066  C1152   1.383   1_455 S
C1069  H1097   1.082   .     S
C1069  N1074   1.367   .     A
C1070  H1098   1.082   .     S
C1070  N1073   1.367   .     A
C1070  C807    1.419   1_565 S
C1071  N1074   1.367   .     A
C1071  H1099   1.082   .     S
C1072  H1100   1.082   .     S
C1072  N1073   1.367   .     A
C1072  C805    1.419   1_565 S
N1073  Zn1083  2.015   .     S
N1074  Zn1084  2.015   .     S
O1075  Zn1083  1.984   .     S
O1076  Zn1084  1.984   .     S
O1077  Zn1083  1.984   .     S
O1078  Zn1084  1.984   .     S
O1079  Zn1083  1.949   .     S
O1080  Zn1084  1.949   .     S
O1081  Zn1083  1.950   .     S
O1082  Zn1084  1.950   .     S
N1085  H1086   1.046   .     S
N1085  H1087   1.046   .     S
N1088  H1089   1.045   .     S
N1088  H1090   1.046   .     S
N1091  H1092   1.046   .     S
N1091  H1093   1.045   .     S
N1094  H1096   1.046   .     S
N1094  H1095   1.046   .     S
C1101  O1122   1.280   .     A
C1101  C1112   1.406   .     S
C1101  O1119   1.280   .     A
C1102  O1121   1.280   .     A
C1102  C1111   1.407   .     S
C1102  O1120   1.280   .     A
C1103  O1123   1.278   .     A
C1103  O1126   1.278   .     A
C1103  C1105   1.366   .     S
C1104  O1125   1.278   .     A
C1104  O1124   1.278   .     A
C1104  C1106   1.366   .     S
C1106  C313    1.165   1_556 S
C1107  N1129   1.436   .     S
C1107  C1112   1.398   .     A
C1108  C1111   1.405   .     A
C1108  N1132   1.437   .     S
C1108  C1154   1.383   .     S
C1109  C1111   1.405   .     A
C1109  N1135   1.437   .     S
C1109  C1151   1.383   .     S
C1110  N1138   1.437   .     S
C1110  C1112   1.398   .     A
C1113  H1141   1.082   .     S
C1113  N1118   1.367   .     A
C1114  H1142   1.082   .     S
C1114  N1117   1.367   .     A
C1114  C851    1.419   1_565 S
C1115  N1118   1.367   .     A
C1115  H1143   1.082   .     S
C1116  H1144   1.082   .     S
C1116  N1117   1.367   .     A
C1116  C849    1.419   1_565 S
N1117  Zn1127  2.015   .     S
N1118  Zn1128  2.015   .     S
O1119  Zn1127  1.984   .     S
O1120  Zn1128  1.984   .     S
O1121  Zn1127  1.984   .     S
O1122  Zn1128  1.984   .     S
O1123  Zn1127  1.949   .     S
O1124  Zn1128  1.949   .     S
O1125  Zn1127  1.950   .     S
O1126  Zn1128  1.950   .     S
N1129  H1130   1.046   .     S
N1129  H1131   1.046   .     S
N1132  H1133   1.045   .     S
N1132  H1134   1.046   .     S
N1135  H1136   1.046   .     S
N1135  H1137   1.045   .     S
N1138  H1140   1.046   .     S
N1138  H1139   1.046   .     S
C1145  O1166   1.280   .     A
C1145  C1156   1.406   .     S
C1145  O1163   1.280   .     A
C1146  O1165   1.280   .     A
C1146  C1155   1.407   .     S
C1146  O1164   1.280   .     A
C1147  O1167   1.278   .     A
C1147  O1170   1.278   .     A
C1147  C1149   1.366   .     S
C1148  O1169   1.278   .     A
C1148  O1168   1.278   .     A
C1148  C1150   1.366   .     S
C1150  C357    1.165   1_556 S
C1151  N1173   1.436   .     S
C1151  C1156   1.398   .     A
C1152  C1155   1.405   .     A
C1152  N1176   1.437   .     S
C1152  C1066   1.383   1_655 S
C1153  C1155   1.405   .     A
C1153  N1179   1.437   .     S
C1153  C1063   1.383   1_655 S
C1154  N1182   1.437   .     S
C1154  C1156   1.398   .     A
C1157  H1185   1.082   .     S
C1157  N1162   1.367   .     A
C1158  H1186   1.082   .     S
C1158  N1161   1.367   .     A
C1158  C895    1.419   1_565 S
C1159  N1162   1.367   .     A
C1159  H1187   1.082   .     S
C1160  H1188   1.082   .     S
C1160  N1161   1.367   .     A
C1160  C893    1.419   1_565 S
N1161  Zn1171  2.015   .     S
N1162  Zn1172  2.015   .     S
O1163  Zn1171  1.984   .     S
O1164  Zn1172  1.984   .     S
O1165  Zn1171  1.984   .     S
O1166  Zn1172  1.984   .     S
O1167  Zn1171  1.949   .     S
O1168  Zn1172  1.949   .     S
O1169  Zn1171  1.950   .     S
O1170  Zn1172  1.950   .     S
N1173  H1174   1.046   .     S
N1173  H1175   1.046   .     S
N1176  H1177   1.045   .     S
N1176  H1178   1.046   .     S
N1179  H1180   1.046   .     S
N1179  H1181   1.045   .     S
N1182  H1184   1.046   .     S
N1182  H1183   1.046   .     S
